MODEL 1
REMARK VINA RESULT:     -11.8      0.000      0.000
REMARK  Name = 54766013
REMARK  5 active torsions:
REMARK  status: ('A' for Active; 'I' for Inactive)
REMARK    1  A    between atoms: C_3  and  C_11
REMARK    2  A    between atoms: C_4  and  C_18
REMARK    3  A    between atoms: C_5  and  C_24
REMARK    4  A    between atoms: C_24  and  N_25
REMARK    5  A    between atoms: N_25  and  C_28
REMARK                            x       y       z     vdW  Elec       q    Type
REMARK                         _______ _______ _______ _____ _____    ______ ____
ROOT
ATOM      1  N   UNL     1      32.849 -22.858 -17.697  0.00  0.00    -0.315 N 
ATOM      2  N   UNL     1      35.068 -22.854 -17.640  0.00  0.00    -0.317 N 
ATOM      3  C   UNL     1      34.569 -23.463 -16.517  0.00  0.00    +0.063 C 
ATOM      4  C   UNL     1      33.194 -23.478 -16.530  0.00  0.00    +0.085 C 
ATOM      5  C   UNL     1      34.007 -22.501 -18.331  0.00  0.00    +0.164 C 
ATOM      6  H   UNL     1      31.933 -22.698 -18.024  0.00  0.00    +0.148 HD
ATOM      7  H   UNL     1      36.014 -22.712 -17.877  0.00  0.00    +0.148 HD
ENDROOT
BRANCH   3  11
ATOM      8  N   UNL     1      36.902 -23.650 -13.610  0.00  0.00    -0.170 N 
ATOM      9  N   UNL     1      37.561 -22.963 -12.644  0.00  0.00    -0.150 NA
ATOM     10  N   UNL     1      38.043 -25.191 -12.487  0.00  0.00    -0.206 NA
ATOM     11  C   UNL     1      35.469 -24.004 -15.480  0.00  0.00    +0.031 C 
ATOM     12  C   UNL     1      36.039 -23.160 -14.595  0.00  0.00    +0.092 C 
ATOM     13  C   UNL     1      35.793 -25.429 -15.367  0.00  0.00    +0.006 C 
ATOM     14  C   UNL     1      37.215 -25.006 -13.492  0.00  0.00    +0.157 C 
ATOM     15  C   UNL     1      36.622 -25.902 -14.420  0.00  0.00    +0.036 C 
ATOM     16  C   UNL     1      38.221 -23.930 -12.009  0.00  0.00    +0.219 C 
ENDBRANCH   3  11
BRANCH   4  18
ATOM     17  N   UNL     1      30.942 -23.946 -16.040  0.00  0.00    -0.409 NA
ATOM     18  C   UNL     1      32.219 -23.991 -15.600  0.00  0.00    +0.127 C 
ATOM     19  C   UNL     1      32.597 -24.488 -14.363  0.00  0.00    +0.086 C 
ATOM     20  C   UNL     1      29.999 -24.422 -15.195  0.00  0.00    +0.109 C 
ATOM     21  C   UNL     1      31.598 -24.969 -13.523  0.00  0.00    -0.016 C 
ATOM     22  C   UNL     1      30.272 -24.939 -13.939  0.00  0.00    +0.023 C 
ATOM     23  C   UNL     1      28.586 -24.373 -15.675  0.00  0.00    +0.066 C 
ENDBRANCH   4  18
BRANCH   5  24
ATOM     24  C   UNL     1      33.988 -21.805 -19.631  0.00  0.00    +0.128 C 
BRANCH  24  25
ATOM     25  N   UNL     1      35.186 -21.006 -19.826  0.00  0.00    -0.328 N 
ATOM     26  H   UNL     1      35.914 -21.089 -19.170  0.00  0.00    +0.147 HD
BRANCH  25  28
ATOM     27  F   UNL     1      37.519 -19.544 -20.110  0.00  0.00    -0.203 F 
ATOM     28  C   UNL     1      35.354 -20.136 -20.884  0.00  0.00    +0.073 C 
ATOM     29  C   UNL     1      36.536 -19.407 -21.011  0.00  0.00    +0.153 C 
ATOM     30  C   UNL     1      34.337 -19.984 -21.828  0.00  0.00    +0.017 C 
ATOM     31  C   UNL     1      36.704 -18.528 -22.081  0.00  0.00    +0.031 C 
ATOM     32  C   UNL     1      34.504 -19.105 -22.898  0.00  0.00    +0.001 C 
ATOM     33  C   UNL     1      35.687 -18.377 -23.025  0.00  0.00    +0.002 C 
ENDBRANCH  25  28
ENDBRANCH  24  25
ENDBRANCH   5  24
TORSDOF 5
ENDMDL
MODEL 2
REMARK VINA RESULT:     -11.7      3.074      6.457
REMARK  Name = 54766013
REMARK  5 active torsions:
REMARK  status: ('A' for Active; 'I' for Inactive)
REMARK    1  A    between atoms: C_3  and  C_11
REMARK    2  A    between atoms: C_4  and  C_18
REMARK    3  A    between atoms: C_5  and  C_24
REMARK    4  A    between atoms: C_24  and  N_25
REMARK    5  A    between atoms: N_25  and  C_28
REMARK                            x       y       z     vdW  Elec       q    Type
REMARK                         _______ _______ _______ _____ _____    ______ ____
ROOT
ATOM      1  N   UNL     1      33.216 -23.133 -14.916  0.00  0.00    -0.315 N 
ATOM      2  N   UNL     1      33.998 -24.670 -13.517  0.00  0.00    -0.317 N 
ATOM      3  C   UNL     1      34.899 -24.450 -14.528  0.00  0.00    +0.063 C 
ATOM      4  C   UNL     1      34.436 -23.500 -15.408  0.00  0.00    +0.085 C 
ATOM      5  C   UNL     1      32.995 -23.862 -13.780  0.00  0.00    +0.164 C 
ATOM      6  H   UNL     1      32.606 -22.465 -15.306  0.00  0.00    +0.148 HD
ATOM      7  H   UNL     1      34.083 -25.296 -12.762  0.00  0.00    +0.148 HD
ENDROOT
BRANCH   3  11
ATOM      8  N   UNL     1      38.505 -25.306 -14.092  0.00  0.00    -0.170 N 
ATOM      9  N   UNL     1      39.710 -24.912 -13.610  0.00  0.00    -0.150 NA
ATOM     10  N   UNL     1      39.895 -26.967 -14.592  0.00  0.00    -0.206 NA
ATOM     11  C   UNL     1      36.177 -25.186 -14.583  0.00  0.00    +0.031 C 
ATOM     12  C   UNL     1      37.283 -24.631 -14.044  0.00  0.00    +0.092 C 
ATOM     13  C   UNL     1      36.315 -26.503 -15.211  0.00  0.00    +0.006 C 
ATOM     14  C   UNL     1      38.648 -26.563 -14.687  0.00  0.00    +0.157 C 
ATOM     15  C   UNL     1      37.490 -27.155 -15.258  0.00  0.00    +0.036 C 
ATOM     16  C   UNL     1      40.495 -25.937 -13.936  0.00  0.00    +0.219 C 
ENDBRANCH   3  11
BRANCH   4  18
ATOM     17  N   UNL     1      34.125 -22.794 -17.630  0.00  0.00    -0.409 NA
ATOM     18  C   UNL     1      34.998 -22.931 -16.607  0.00  0.00    +0.127 C 
ATOM     19  C   UNL     1      36.332 -22.560 -16.671  0.00  0.00    +0.086 C 
ATOM     20  C   UNL     1      34.615 -22.260 -18.771  0.00  0.00    +0.109 C 
ATOM     21  C   UNL     1      36.798 -22.014 -17.863  0.00  0.00    -0.016 C 
ATOM     22  C   UNL     1      35.930 -21.858 -18.937  0.00  0.00    +0.023 C 
ATOM     23  C   UNL     1      33.655 -22.109 -19.904  0.00  0.00    +0.066 C 
ENDBRANCH   4  18
BRANCH   5  24
ATOM     24  C   UNL     1      31.757 -23.705 -12.995  0.00  0.00    +0.128 C 
BRANCH  24  25
ATOM     25  N   UNL     1      30.692 -24.554 -13.502  0.00  0.00    -0.328 N 
ATOM     26  H   UNL     1      30.508 -25.400 -13.034  0.00  0.00    +0.147 HD
BRANCH  25  28
ATOM     27  F   UNL     1      29.966 -26.495 -15.337  0.00  0.00    -0.203 F 
ATOM     28  C   UNL     1      29.927 -24.236 -14.606  0.00  0.00    +0.073 C 
ATOM     29  C   UNL     1      29.571 -25.227 -15.520  0.00  0.00    +0.153 C 
ATOM     30  C   UNL     1      29.511 -22.919 -14.808  0.00  0.00    +0.017 C 
ATOM     31  C   UNL     1      28.798 -24.904 -16.635  0.00  0.00    +0.031 C 
ATOM     32  C   UNL     1      28.738 -22.595 -15.923  0.00  0.00    +0.001 C 
ATOM     33  C   UNL     1      28.381 -23.587 -16.837  0.00  0.00    +0.002 C 
ENDBRANCH  25  28
ENDBRANCH  24  25
ENDBRANCH   5  24
TORSDOF 5
ENDMDL
MODEL 3
REMARK VINA RESULT:     -11.6      1.374      5.066
REMARK  Name = 54766013
REMARK  5 active torsions:
REMARK  status: ('A' for Active; 'I' for Inactive)
REMARK    1  A    between atoms: C_3  and  C_11
REMARK    2  A    between atoms: C_4  and  C_18
REMARK    3  A    between atoms: C_5  and  C_24
REMARK    4  A    between atoms: C_24  and  N_25
REMARK    5  A    between atoms: N_25  and  C_28
REMARK                            x       y       z     vdW  Elec       q    Type
REMARK                         _______ _______ _______ _____ _____    ______ ____
ROOT
ATOM      1  N   UNL     1      36.738 -22.932 -16.653  0.00  0.00    -0.315 N 
ATOM      2  N   UNL     1      34.671 -22.674 -17.423  0.00  0.00    -0.317 N 
ATOM      3  C   UNL     1      34.652 -23.386 -16.250  0.00  0.00    +0.063 C 
ATOM      4  C   UNL     1      35.923 -23.558 -15.754  0.00  0.00    +0.085 C 
ATOM      5  C   UNL     1      35.942 -22.416 -17.638  0.00  0.00    +0.164 C 
ATOM      6  H   UNL     1      37.719 -22.863 -16.602  0.00  0.00    +0.148 HD
ATOM      7  H   UNL     1      33.902 -22.414 -17.981  0.00  0.00    +0.148 HD
ENDROOT
BRANCH   3  11
ATOM      8  N   UNL     1      31.010 -24.046 -15.780  0.00  0.00    -0.170 N 
ATOM      9  N   UNL     1      29.758 -23.885 -16.278  0.00  0.00    -0.150 NA
ATOM     10  N   UNL     1      29.674 -25.039 -14.308  0.00  0.00    -0.206 NA
ATOM     11  C   UNL     1      33.382 -23.864 -15.671  0.00  0.00    +0.031 C 
ATOM     12  C   UNL     1      32.224 -23.609 -16.315  0.00  0.00    +0.092 C 
ATOM     13  C   UNL     1      33.309 -24.602 -14.406  0.00  0.00    +0.006 C 
ATOM     14  C   UNL     1      30.928 -24.752 -14.577  0.00  0.00    +0.157 C 
ATOM     15  C   UNL     1      32.140 -25.023 -13.889  0.00  0.00    +0.036 C 
ATOM     16  C   UNL     1      29.008 -24.495 -15.362  0.00  0.00    +0.219 C 
ENDBRANCH   3  11
BRANCH   4  18
ATOM     17  N   UNL     1      36.547 -23.425 -13.490  0.00  0.00    -0.409 NA
ATOM     18  C   UNL     1      36.424 -24.221 -14.576  0.00  0.00    +0.127 C 
ATOM     19  C   UNL     1      36.739 -25.570 -14.588  0.00  0.00    +0.086 C 
ATOM     20  C   UNL     1      37.011 -24.013 -12.365  0.00  0.00    +0.109 C 
ATOM     21  C   UNL     1      37.213 -26.138 -13.410  0.00  0.00    -0.016 C 
ATOM     22  C   UNL     1      37.354 -25.352 -12.273  0.00  0.00    +0.023 C 
ATOM     23  C   UNL     1      37.152 -23.138 -11.163  0.00  0.00    +0.066 C 
ENDBRANCH   4  18
BRANCH   5  24
ATOM     24  C   UNL     1      36.513 -21.670 -18.775  0.00  0.00    +0.128 C 
BRANCH  24  25
ATOM     25  N   UNL     1      35.483 -21.255 -19.713  0.00  0.00    -0.328 N 
ATOM     26  H   UNL     1      34.602 -21.690 -19.661  0.00  0.00    +0.147 HD
BRANCH  25  28
ATOM     27  F   UNL     1      33.397 -20.404 -21.320  0.00  0.00    -0.203 F 
ATOM     28  C   UNL     1      35.678 -20.282 -20.672  0.00  0.00    +0.073 C 
ATOM     29  C   UNL     1      34.615 -19.866 -21.474  0.00  0.00    +0.153 C 
ATOM     30  C   UNL     1      36.942 -19.715 -20.842  0.00  0.00    +0.017 C 
ATOM     31  C   UNL     1      34.814 -18.884 -22.443  0.00  0.00    +0.031 C 
ATOM     32  C   UNL     1      37.141 -18.732 -21.812  0.00  0.00    +0.001 C 
ATOM     33  C   UNL     1      36.078 -18.316 -22.612  0.00  0.00    +0.002 C 
ENDBRANCH  25  28
ENDBRANCH  24  25
ENDBRANCH   5  24
TORSDOF 5
ENDMDL
MODEL 4
REMARK VINA RESULT:     -11.4      1.664      5.071
REMARK  Name = 54766013
REMARK  5 active torsions:
REMARK  status: ('A' for Active; 'I' for Inactive)
REMARK    1  A    between atoms: C_3  and  C_11
REMARK    2  A    between atoms: C_4  and  C_18
REMARK    3  A    between atoms: C_5  and  C_24
REMARK    4  A    between atoms: C_24  and  N_25
REMARK    5  A    between atoms: N_25  and  C_28
REMARK                            x       y       z     vdW  Elec       q    Type
REMARK                         _______ _______ _______ _____ _____    ______ ____
ROOT
ATOM      1  N   UNL     1      36.149 -22.391 -18.026  0.00  0.00    -0.315 N 
ATOM      2  N   UNL     1      34.050 -22.188 -18.723  0.00  0.00    -0.317 N 
ATOM      3  C   UNL     1      34.081 -22.770 -17.480  0.00  0.00    +0.063 C 
ATOM      4  C   UNL     1      35.372 -22.906 -17.027  0.00  0.00    +0.085 C 
ATOM      5  C   UNL     1      35.312 -21.972 -19.023  0.00  0.00    +0.164 C 
ATOM      6  H   UNL     1      37.132 -22.331 -18.028  0.00  0.00    +0.148 HD
ATOM      7  H   UNL     1      33.258 -21.979 -19.270  0.00  0.00    +0.148 HD
ENDROOT
BRANCH   3  11
ATOM      8  N   UNL     1      30.456 -23.175 -16.692  0.00  0.00    -0.170 N 
ATOM      9  N   UNL     1      29.180 -22.916 -17.075  0.00  0.00    -0.150 NA
ATOM     10  N   UNL     1      29.186 -24.095 -15.118  0.00  0.00    -0.206 NA
ATOM     11  C   UNL     1      32.835 -23.166 -16.795  0.00  0.00    +0.031 C 
ATOM     12  C   UNL     1      31.647 -22.817 -17.330  0.00  0.00    +0.092 C 
ATOM     13  C   UNL     1      32.821 -23.920 -15.537  0.00  0.00    +0.006 C 
ATOM     14  C   UNL     1      30.429 -23.894 -15.495  0.00  0.00    +0.157 C 
ATOM     15  C   UNL     1      31.675 -24.265 -14.923  0.00  0.00    +0.036 C 
ATOM     16  C   UNL     1      28.472 -23.486 -16.102  0.00  0.00    +0.219 C 
ENDBRANCH   3  11
BRANCH   4  18
ATOM     17  N   UNL     1      36.152 -24.776 -15.835  0.00  0.00    -0.409 NA
ATOM     18  C   UNL     1      35.922 -23.445 -15.809  0.00  0.00    +0.127 C 
ATOM     19  C   UNL     1      36.186 -22.633 -14.717  0.00  0.00    +0.086 C 
ATOM     20  C   UNL     1      36.671 -25.318 -14.710  0.00  0.00    +0.109 C 
ATOM     21  C   UNL     1      36.720 -23.228 -13.579  0.00  0.00    -0.016 C 
ATOM     22  C   UNL     1      36.971 -24.594 -13.567  0.00  0.00    +0.023 C 
ATOM     23  C   UNL     1      36.926 -26.789 -14.733  0.00  0.00    +0.066 C 
ENDBRANCH   4  18
BRANCH   5  24
ATOM     24  C   UNL     1      35.835 -21.361 -20.258  0.00  0.00    +0.128 C 
BRANCH  24  25
ATOM     25  N   UNL     1      35.592 -19.928 -20.289  0.00  0.00    -0.328 N 
ATOM     26  H   UNL     1      35.586 -19.437 -19.436  0.00  0.00    +0.147 HD
BRANCH  25  28
ATOM     27  F   UNL     1      35.718 -17.164 -20.321  0.00  0.00    -0.203 F 
ATOM     28  C   UNL     1      35.368 -19.221 -21.453  0.00  0.00    +0.073 C 
ATOM     29  C   UNL     1      35.436 -17.828 -21.451  0.00  0.00    +0.153 C 
ATOM     30  C   UNL     1      35.072 -19.902 -22.635  0.00  0.00    +0.017 C 
ATOM     31  C   UNL     1      35.209 -17.115 -22.628  0.00  0.00    +0.031 C 
ATOM     32  C   UNL     1      34.845 -19.189 -23.813  0.00  0.00    +0.001 C 
ATOM     33  C   UNL     1      34.914 -17.796 -23.809  0.00  0.00    +0.002 C 
ENDBRANCH  25  28
ENDBRANCH  24  25
ENDBRANCH   5  24
TORSDOF 5
ENDMDL
MODEL 5
REMARK VINA RESULT:     -10.8      1.720      4.649
REMARK  Name = 54766013
REMARK  5 active torsions:
REMARK  status: ('A' for Active; 'I' for Inactive)
REMARK    1  A    between atoms: C_3  and  C_11
REMARK    2  A    between atoms: C_4  and  C_18
REMARK    3  A    between atoms: C_5  and  C_24
REMARK    4  A    between atoms: C_24  and  N_25
REMARK    5  A    between atoms: N_25  and  C_28
REMARK                            x       y       z     vdW  Elec       q    Type
REMARK                         _______ _______ _______ _____ _____    ______ ____
ROOT
ATOM      1  N   UNL     1      35.859 -22.293 -18.365  0.00  0.00    -0.315 N 
ATOM      2  N   UNL     1      33.675 -22.279 -18.764  0.00  0.00    -0.317 N 
ATOM      3  C   UNL     1      33.923 -22.783 -17.512  0.00  0.00    +0.063 C 
ATOM      4  C   UNL     1      35.271 -22.801 -17.242  0.00  0.00    +0.085 C 
ATOM      5  C   UNL     1      34.862 -21.994 -19.252  0.00  0.00    +0.164 C 
ATOM      6  H   UNL     1      36.825 -22.164 -18.511  0.00  0.00    +0.148 HD
ATOM      7  H   UNL     1      32.801 -22.159 -19.202  0.00  0.00    +0.148 HD
ENDROOT
BRANCH   3  11
ATOM      8  N   UNL     1      32.075 -24.312 -14.653  0.00  0.00    -0.170 N 
ATOM      9  N   UNL     1      32.167 -24.978 -13.474  0.00  0.00    -0.150 NA
ATOM     10  N   UNL     1      29.973 -24.607 -13.995  0.00  0.00    -0.206 NA
ATOM     11  C   UNL     1      32.819 -23.224 -16.637  0.00  0.00    +0.031 C 
ATOM     12  C   UNL     1      33.105 -23.878 -15.492  0.00  0.00    +0.092 C 
ATOM     13  C   UNL     1      31.407 -22.998 -16.957  0.00  0.00    +0.006 C 
ATOM     14  C   UNL     1      30.726 -24.101 -14.947  0.00  0.00    +0.157 C 
ATOM     15  C   UNL     1      30.414 -23.416 -16.151  0.00  0.00    +0.036 C 
ATOM     16  C   UNL     1      30.888 -25.124 -13.132  0.00  0.00    +0.219 C 
ENDBRANCH   3  11
BRANCH   4  18
ATOM     17  N   UNL     1      36.142 -24.567 -15.957  0.00  0.00    -0.409 NA
ATOM     18  C   UNL     1      36.025 -23.227 -16.090  0.00  0.00    +0.127 C 
ATOM     19  C   UNL     1      36.577 -22.309 -15.210  0.00  0.00    +0.086 C 
ATOM     20  C   UNL     1      36.846 -25.005 -14.889  0.00  0.00    +0.109 C 
ATOM     21  C   UNL     1      37.294 -22.799 -14.124  0.00  0.00    -0.016 C 
ATOM     22  C   UNL     1      37.436 -24.171 -13.953  0.00  0.00    +0.023 C 
ATOM     23  C   UNL     1      36.977 -26.484 -14.736  0.00  0.00    +0.066 C 
ENDBRANCH   4  18
BRANCH   5  24
ATOM     24  C   UNL     1      35.159 -21.421 -20.577  0.00  0.00    +0.128 C 
BRANCH  24  25
ATOM     25  N   UNL     1      35.329 -19.979 -20.511  0.00  0.00    -0.328 N 
ATOM     26  H   UNL     1      35.512 -19.571 -19.634  0.00  0.00    +0.147 HD
BRANCH  25  28
ATOM     27  F   UNL     1      35.723 -17.250 -20.276  0.00  0.00    -0.203 F 
ATOM     28  C   UNL     1      35.245 -19.153 -21.613  0.00  0.00    +0.073 C 
ATOM     29  C   UNL     1      35.446 -17.780 -21.476  0.00  0.00    +0.153 C 
ATOM     30  C   UNL     1      34.956 -19.694 -22.867  0.00  0.00    +0.017 C 
ATOM     31  C   UNL     1      35.360 -16.947 -22.591  0.00  0.00    +0.031 C 
ATOM     32  C   UNL     1      34.870 -18.860 -23.983  0.00  0.00    +0.001 C 
ATOM     33  C   UNL     1      35.073 -17.487 -23.845  0.00  0.00    +0.002 C 
ENDBRANCH  25  28
ENDBRANCH  24  25
ENDBRANCH   5  24
TORSDOF 5
ENDMDL
MODEL 6
REMARK VINA RESULT:     -10.5      3.123      6.545
REMARK  Name = 54766013
REMARK  5 active torsions:
REMARK  status: ('A' for Active; 'I' for Inactive)
REMARK    1  A    between atoms: C_3  and  C_11
REMARK    2  A    between atoms: C_4  and  C_18
REMARK    3  A    between atoms: C_5  and  C_24
REMARK    4  A    between atoms: C_24  and  N_25
REMARK    5  A    between atoms: N_25  and  C_28
REMARK                            x       y       z     vdW  Elec       q    Type
REMARK                         _______ _______ _______ _____ _____    ______ ____
ROOT
ATOM      1  N   UNL     1      32.436 -24.221 -15.352  0.00  0.00    -0.315 N 
ATOM      2  N   UNL     1      33.459 -25.138 -13.607  0.00  0.00    -0.317 N 
ATOM      3  C   UNL     1      34.384 -24.617 -14.476  0.00  0.00    +0.063 C 
ATOM      4  C   UNL     1      33.773 -24.043 -15.566  0.00  0.00    +0.085 C 
ATOM      5  C   UNL     1      32.295 -24.883 -14.164  0.00  0.00    +0.164 C 
ATOM      6  H   UNL     1      31.707 -23.926 -15.944  0.00  0.00    +0.148 HD
ATOM      7  H   UNL     1      33.628 -25.602 -12.755  0.00  0.00    +0.148 HD
ENDROOT
BRANCH   3  11
ATOM      8  N   UNL     1      37.926 -25.792 -14.520  0.00  0.00    -0.170 N 
ATOM      9  N   UNL     1      38.811 -26.695 -15.012  0.00  0.00    -0.150 NA
ATOM     10  N   UNL     1      39.872 -25.250 -13.594  0.00  0.00    -0.206 NA
ATOM     11  C   UNL     1      35.830 -24.709 -14.193  0.00  0.00    +0.031 C 
ATOM     12  C   UNL     1      36.558 -25.682 -14.781  0.00  0.00    +0.092 C 
ATOM     13  C   UNL     1      36.526 -23.794 -13.284  0.00  0.00    +0.006 C 
ATOM     14  C   UNL     1      38.600 -24.924 -13.657  0.00  0.00    +0.157 C 
ATOM     15  C   UNL     1      37.843 -23.899 -13.032  0.00  0.00    +0.036 C 
ATOM     16  C   UNL     1      39.949 -26.323 -14.427  0.00  0.00    +0.219 C 
ENDBRANCH   3  11
BRANCH   4  18
ATOM     17  N   UNL     1      35.528 -22.844 -16.573  0.00  0.00    -0.409 NA
ATOM     18  C   UNL     1      34.296 -23.376 -16.732  0.00  0.00    +0.127 C 
ATOM     19  C   UNL     1      33.567 -23.307 -17.909  0.00  0.00    +0.086 C 
ATOM     20  C   UNL     1      36.052 -22.213 -17.647  0.00  0.00    +0.109 C 
ATOM     21  C   UNL     1      34.141 -22.650 -18.992  0.00  0.00    -0.016 C 
ATOM     22  C   UNL     1      35.407 -22.090 -18.867  0.00  0.00    +0.023 C 
ATOM     23  C   UNL     1      37.413 -21.622 -17.477  0.00  0.00    +0.066 C 
ENDBRANCH   4  18
BRANCH   5  24
ATOM     24  C   UNL     1      30.965 -25.235 -13.634  0.00  0.00    +0.128 C 
BRANCH  24  25
ATOM     25  N   UNL     1      30.014 -24.150 -13.814  0.00  0.00    -0.328 N 
ATOM     26  H   UNL     1      29.877 -23.521 -13.070  0.00  0.00    +0.147 HD
BRANCH  25  28
ATOM     27  F   UNL     1      28.953 -21.671 -14.437  0.00  0.00    -0.203 F 
ATOM     28  C   UNL     1      29.294 -23.958 -14.976  0.00  0.00    +0.073 C 
ATOM     29  C   UNL     1      28.766 -22.702 -15.273  0.00  0.00    +0.153 C 
ATOM     30  C   UNL     1      29.092 -25.024 -15.854  0.00  0.00    +0.017 C 
ATOM     31  C   UNL     1      28.038 -22.510 -16.447  0.00  0.00    +0.031 C 
ATOM     32  C   UNL     1      28.363 -24.832 -17.028  0.00  0.00    +0.001 C 
ATOM     33  C   UNL     1      27.837 -23.575 -17.325  0.00  0.00    +0.002 C 
ENDBRANCH  25  28
ENDBRANCH  24  25
ENDBRANCH   5  24
TORSDOF 5
ENDMDL
MODEL 7
REMARK VINA RESULT:     -10.3      1.570      5.229
REMARK  Name = 54766013
REMARK  5 active torsions:
REMARK  status: ('A' for Active; 'I' for Inactive)
REMARK    1  A    between atoms: C_3  and  C_11
REMARK    2  A    between atoms: C_4  and  C_18
REMARK    3  A    between atoms: C_5  and  C_24
REMARK    4  A    between atoms: C_24  and  N_25
REMARK    5  A    between atoms: N_25  and  C_28
REMARK                            x       y       z     vdW  Elec       q    Type
REMARK                         _______ _______ _______ _____ _____    ______ ____
ROOT
ATOM      1  N   UNL     1      37.349 -22.511 -16.376  0.00  0.00    -0.315 N 
ATOM      2  N   UNL     1      35.255 -22.558 -17.113  0.00  0.00    -0.317 N 
ATOM      3  C   UNL     1      35.341 -23.185 -15.896  0.00  0.00    +0.063 C 
ATOM      4  C   UNL     1      36.630 -23.168 -15.418  0.00  0.00    +0.085 C 
ATOM      5  C   UNL     1      36.481 -22.163 -17.374  0.00  0.00    +0.164 C 
ATOM      6  H   UNL     1      38.315 -22.321 -16.353  0.00  0.00    +0.148 HD
ATOM      7  H   UNL     1      34.452 -22.431 -17.669  0.00  0.00    +0.148 HD
ENDROOT
BRANCH   3  11
ATOM      8  N   UNL     1      31.800 -24.177 -15.258  0.00  0.00    -0.170 N 
ATOM      9  N   UNL     1      30.518 -24.140 -15.703  0.00  0.00    -0.150 NA
ATOM     10  N   UNL     1      30.628 -25.272 -13.720  0.00  0.00    -0.206 NA
ATOM     11  C   UNL     1      34.147 -23.773 -15.256  0.00  0.00    +0.031 C 
ATOM     12  C   UNL     1      32.944 -23.635 -15.851  0.00  0.00    +0.092 C 
ATOM     13  C   UNL     1      34.198 -24.498 -13.983  0.00  0.00    +0.006 C 
ATOM     14  C   UNL     1      31.837 -24.872 -14.047  0.00  0.00    +0.157 C 
ATOM     15  C   UNL     1      33.099 -25.020 -13.412  0.00  0.00    +0.036 C 
ATOM     16  C   UNL     1      29.870 -24.806 -14.749  0.00  0.00    +0.219 C 
ENDBRANCH   3  11
BRANCH   4  18
ATOM     17  N   UNL     1      38.155 -24.644 -14.406  0.00  0.00    -0.409 NA
ATOM     18  C   UNL     1      37.226 -23.683 -14.211  0.00  0.00    +0.127 C 
ATOM     19  C   UNL     1      36.854 -23.205 -12.964  0.00  0.00    +0.086 C 
ATOM     20  C   UNL     1      38.739 -25.150 -13.296  0.00  0.00    +0.109 C 
ATOM     21  C   UNL     1      37.478 -23.750 -11.847  0.00  0.00    -0.016 C 
ATOM     22  C   UNL     1      38.439 -24.741 -12.007  0.00  0.00    +0.023 C 
ATOM     23  C   UNL     1      39.765 -26.213 -13.506  0.00  0.00    +0.066 C 
ENDBRANCH   4  18
BRANCH   5  24
ATOM     24  C   UNL     1      36.940 -21.434 -18.571  0.00  0.00    +0.128 C 
BRANCH  24  25
ATOM     25  N   UNL     1      36.225 -21.860 -19.763  0.00  0.00    -0.328 N 
ATOM     26  H   UNL     1      36.576 -22.628 -20.268  0.00  0.00    +0.147 HD
BRANCH  25  28
ATOM     27  F   UNL     1      36.370 -19.670 -21.450  0.00  0.00    -0.203 F 
ATOM     28  C   UNL     1      35.080 -21.241 -20.223  0.00  0.00    +0.073 C 
ATOM     29  C   UNL     1      35.172 -20.139 -21.072  0.00  0.00    +0.153 C 
ATOM     30  C   UNL     1      33.827 -21.720 -19.835  0.00  0.00    +0.017 C 
ATOM     31  C   UNL     1      34.014 -19.515 -21.536  0.00  0.00    +0.031 C 
ATOM     32  C   UNL     1      32.669 -21.096 -20.299  0.00  0.00    +0.001 C 
ATOM     33  C   UNL     1      32.762 -19.994 -21.149  0.00  0.00    +0.002 C 
ENDBRANCH  25  28
ENDBRANCH  24  25
ENDBRANCH   5  24
TORSDOF 5
ENDMDL
MODEL 8
REMARK VINA RESULT:      -9.0      8.109     12.952
REMARK  Name = 54766013
REMARK  5 active torsions:
REMARK  status: ('A' for Active; 'I' for Inactive)
REMARK    1  A    between atoms: C_3  and  C_11
REMARK    2  A    between atoms: C_4  and  C_18
REMARK    3  A    between atoms: C_5  and  C_24
REMARK    4  A    between atoms: C_24  and  N_25
REMARK    5  A    between atoms: N_25  and  C_28
REMARK                            x       y       z     vdW  Elec       q    Type
REMARK                         _______ _______ _______ _____ _____    ______ ____
ROOT
ATOM      1  N   UNL     1      32.492 -12.001 -22.399  0.00  0.00    -0.315 N 
ATOM      2  N   UNL     1      32.955 -13.612 -20.942  0.00  0.00    -0.317 N 
ATOM      3  C   UNL     1      33.476 -13.925 -22.172  0.00  0.00    +0.063 C 
ATOM      4  C   UNL     1      33.202 -12.940 -23.092  0.00  0.00    +0.085 C 
ATOM      5  C   UNL     1      32.368 -12.448 -21.112  0.00  0.00    +0.164 C 
ATOM      6  H   UNL     1      32.135 -11.157 -22.759  0.00  0.00    +0.148 HD
ATOM      7  H   UNL     1      33.007 -14.143 -20.114  0.00  0.00    +0.148 HD
ENDROOT
BRANCH   3  11
ATOM      8  N   UNL     1      35.411 -17.044 -21.500  0.00  0.00    -0.170 N 
ATOM      9  N   UNL     1      35.960 -17.853 -20.560  0.00  0.00    -0.150 NA
ATOM     10  N   UNL     1      36.358 -18.696 -22.646  0.00  0.00    -0.206 NA
ATOM     11  C   UNL     1      34.221 -15.180 -22.386  0.00  0.00    +0.031 C 
ATOM     12  C   UNL     1      34.696 -15.857 -21.320  0.00  0.00    +0.092 C 
ATOM     13  C   UNL     1      34.489 -15.734 -23.717  0.00  0.00    +0.006 C 
ATOM     14  C   UNL     1      35.670 -17.582 -22.763  0.00  0.00    +0.157 C 
ATOM     15  C   UNL     1      35.177 -16.876 -23.893  0.00  0.00    +0.036 C 
ATOM     16  C   UNL     1      36.507 -18.816 -21.299  0.00  0.00    +0.219 C 
ENDBRANCH   3  11
BRANCH   4  18
ATOM     17  N   UNL     1      34.381 -11.794 -24.774  0.00  0.00    -0.409 NA
ATOM     18  C   UNL     1      33.524 -12.800 -24.490  0.00  0.00    +0.127 C 
ATOM     19  C   UNL     1      32.984 -13.651 -25.442  0.00  0.00    +0.086 C 
ATOM     20  C   UNL     1      34.709 -11.634 -26.075  0.00  0.00    +0.109 C 
ATOM     21  C   UNL     1      33.347 -13.454 -26.770  0.00  0.00    -0.016 C 
ATOM     22  C   UNL     1      34.225 -12.429 -27.101  0.00  0.00    +0.023 C 
ATOM     23  C   UNL     1      35.653 -10.522 -26.394  0.00  0.00    +0.066 C 
ENDBRANCH   4  18
BRANCH   5  24
ATOM     24  C   UNL     1      31.650 -11.662 -20.093  0.00  0.00    +0.128 C 
BRANCH  24  25
ATOM     25  N   UNL     1      30.989 -10.506 -20.676  0.00  0.00    -0.328 N 
ATOM     26  H   UNL     1      30.035 -10.580 -20.905  0.00  0.00    +0.147 HD
BRANCH  25  28
ATOM     27  F   UNL     1      30.863  -9.318 -23.173  0.00  0.00    -0.203 F 
ATOM     28  C   UNL     1      31.632  -9.310 -20.926  0.00  0.00    +0.073 C 
ATOM     29  C   UNL     1      31.558  -8.726 -22.191  0.00  0.00    +0.153 C 
ATOM     30  C   UNL     1      32.360  -8.686 -19.912  0.00  0.00    +0.017 C 
ATOM     31  C   UNL     1      32.209  -7.519 -22.442  0.00  0.00    +0.031 C 
ATOM     32  C   UNL     1      33.011  -7.478 -20.163  0.00  0.00    +0.001 C 
ATOM     33  C   UNL     1      32.935  -6.894 -21.427  0.00  0.00    +0.002 C 
ENDBRANCH  25  28
ENDBRANCH  24  25
ENDBRANCH   5  24
TORSDOF 5
ENDMDL
MODEL 9
REMARK VINA RESULT:      -9.0     10.701     15.782
REMARK  Name = 54766013
REMARK  5 active torsions:
REMARK  status: ('A' for Active; 'I' for Inactive)
REMARK    1  A    between atoms: C_3  and  C_11
REMARK    2  A    between atoms: C_4  and  C_18
REMARK    3  A    between atoms: C_5  and  C_24
REMARK    4  A    between atoms: C_24  and  N_25
REMARK    5  A    between atoms: N_25  and  C_28
REMARK                            x       y       z     vdW  Elec       q    Type
REMARK                         _______ _______ _______ _____ _____    ______ ____
ROOT
ATOM      1  N   UNL     1      33.037 -11.612 -23.253  0.00  0.00    -0.315 N 
ATOM      2  N   UNL     1      33.606 -10.374 -25.006  0.00  0.00    -0.317 N 
ATOM      3  C   UNL     1      33.189  -9.570 -23.976  0.00  0.00    +0.063 C 
ATOM      4  C   UNL     1      32.832 -10.316 -22.877  0.00  0.00    +0.085 C 
ATOM      5  C   UNL     1      33.502 -11.598 -24.539  0.00  0.00    +0.164 C 
ATOM      6  H   UNL     1      32.881 -12.412 -22.700  0.00  0.00    +0.148 HD
ATOM      7  H   UNL     1      33.914 -10.095 -25.899  0.00  0.00    +0.148 HD
ENDROOT
BRANCH   3  11
ATOM      8  N   UNL     1      31.942  -6.055 -24.116  0.00  0.00    -0.170 N 
ATOM      9  N   UNL     1      30.869  -5.231 -24.007  0.00  0.00    -0.150 NA
ATOM     10  N   UNL     1      32.745  -4.016 -24.483  0.00  0.00    -0.206 NA
ATOM     11  C   UNL     1      33.162  -8.101 -24.119  0.00  0.00    +0.031 C 
ATOM     12  C   UNL     1      31.992  -7.444 -23.975  0.00  0.00    +0.092 C 
ATOM     13  C   UNL     1      34.354  -7.306 -24.428  0.00  0.00    +0.006 C 
ATOM     14  C   UNL     1      33.072  -5.287 -24.407  0.00  0.00    +0.157 C 
ATOM     15  C   UNL     1      34.308  -5.968 -24.563  0.00  0.00    +0.036 C 
ATOM     16  C   UNL     1      31.408  -4.034 -24.235  0.00  0.00    +0.219 C 
ENDBRANCH   3  11
BRANCH   4  18
ATOM     17  N   UNL     1      32.642  -8.689 -21.189  0.00  0.00    -0.409 NA
ATOM     18  C   UNL     1      32.339  -9.949 -21.573  0.00  0.00    +0.127 C 
ATOM     19  C   UNL     1      31.612 -10.842 -20.801  0.00  0.00    +0.086 C 
ATOM     20  C   UNL     1      32.194  -8.308 -19.972  0.00  0.00    +0.109 C 
ATOM     21  C   UNL     1      31.169 -10.412 -19.555  0.00  0.00    -0.016 C 
ATOM     22  C   UNL     1      31.460  -9.124 -19.125  0.00  0.00    +0.023 C 
ATOM     23  C   UNL     1      32.526  -6.918 -19.542  0.00  0.00    +0.066 C 
ENDBRANCH   4  18
BRANCH   5  24
ATOM     24  C   UNL     1      33.828 -12.847 -25.252  0.00  0.00    +0.128 C 
BRANCH  24  25
ATOM     25  N   UNL     1      33.181 -13.996 -24.639  0.00  0.00    -0.328 N 
ATOM     26  H   UNL     1      32.232 -13.919 -24.391  0.00  0.00    +0.147 HD
BRANCH  25  28
ATOM     27  F   UNL     1      34.698 -14.334 -22.349  0.00  0.00    -0.203 F 
ATOM     28  C   UNL     1      33.831 -15.188 -24.388  0.00  0.00    +0.073 C 
ATOM     29  C   UNL     1      34.591 -15.340 -23.229  0.00  0.00    +0.153 C 
ATOM     30  C   UNL     1      33.727 -16.242 -25.298  0.00  0.00    +0.017 C 
ATOM     31  C   UNL     1      35.246 -16.545 -22.977  0.00  0.00    +0.031 C 
ATOM     32  C   UNL     1      34.383 -17.447 -25.046  0.00  0.00    +0.001 C 
ATOM     33  C   UNL     1      35.142 -17.599 -23.886  0.00  0.00    +0.002 C 
ENDBRANCH  25  28
ENDBRANCH  24  25
ENDBRANCH   5  24
TORSDOF 5
ENDMDL
