MODEL 1
REMARK VINA RESULT:     -12.4      0.000      0.000
REMARK  Name = 11633167
REMARK  7 active torsions:
REMARK  status: ('A' for Active; 'I' for Inactive)
REMARK    1  A    between atoms: C_1  and  C_8
REMARK    2  A    between atoms: C_2  and  C_25
REMARK    3  A    between atoms: C_4  and  O_17
REMARK    4  A    between atoms: O_17  and  C_18
REMARK    5  A    between atoms: C_18  and  C_20
REMARK    6  A    between atoms: C_25  and  N_26
REMARK    7  A    between atoms: N_26  and  C_29
REMARK                            x       y       z     vdW  Elec       q    Type
REMARK                         _______ _______ _______ _____ _____    ______ ____
ROOT
ATOM      1  C   UNL     1      35.353 -20.430 -20.468  0.00  0.00    -0.000 C 
ATOM      2  C   UNL     1      34.345 -22.013 -18.948  0.00  0.00    +0.031 C 
ATOM      3  C   UNL     1      34.223 -21.094 -19.990  0.00  0.00    +0.000 C 
ATOM      4  C   UNL     1      35.595 -22.267 -18.385  0.00  0.00    +0.137 C 
ATOM      5  C   UNL     1      36.603 -20.684 -19.906  0.00  0.00    +0.003 C 
ATOM      6  C   UNL     1      36.725 -21.604 -18.864  0.00  0.00    +0.037 C 
ENDROOT
BRANCH   1   8
ATOM      7  N   UNL     1      33.846 -18.973 -24.970  0.00  0.00    -0.312 N 
ATOM      8  C   UNL     1      35.227 -19.476 -21.550  0.00  0.00    +0.001 C 
ATOM      9  C   UNL     1      34.448 -18.892 -23.735  0.00  0.00    +0.048 C 
ATOM     10  C   UNL     1      34.997 -17.612 -23.627  0.00  0.00    +0.015 C 
ATOM     11  C   UNL     1      34.547 -19.845 -22.714  0.00  0.00    +0.015 C 
ATOM     12  C   UNL     1      35.784 -18.207 -21.415  0.00  0.00    +0.000 C 
ATOM     13  C   UNL     1      35.678 -17.264 -22.444  0.00  0.00    +0.001 C 
ATOM     14  C   UNL     1      34.702 -16.928 -24.839  0.00  0.00    +0.017 C 
ATOM     15  C   UNL     1      33.995 -17.791 -25.646  0.00  0.00    +0.062 C 
ATOM     16  H   UNL     1      33.377 -19.765 -25.319  0.00  0.00    +0.152 HD
ENDBRANCH   1   8
BRANCH   4  17
ATOM     17  O   UNL     1      35.732 -23.162 -17.366  0.00  0.00    -0.469 OA
BRANCH  17  18
ATOM     18  C   UNL     1      36.602 -22.798 -16.296  0.00  0.00    +0.251 C 
BRANCH  18  20
ATOM     19  N   UNL     1      36.083 -25.071 -15.644  0.00  0.00    -0.244 NA
ATOM     20  C   UNL     1      36.907 -24.017 -15.477  0.00  0.00    +0.103 C 
ATOM     21  C   UNL     1      37.989 -23.996 -14.619  0.00  0.00    +0.018 C 
ATOM     22  C   UNL     1      38.245 -25.142 -13.874  0.00  0.00    +0.003 C 
ATOM     23  C   UNL     1      36.362 -26.167 -14.904  0.00  0.00    +0.099 C 
ATOM     24  C   UNL     1      37.420 -26.253 -14.014  0.00  0.00    +0.021 C 
ENDBRANCH  18  20
ENDBRANCH  17  18
ENDBRANCH   4  17
BRANCH   2  25
ATOM     25  C   UNL     1      33.127 -22.716 -18.447  0.00  0.00    +0.117 C 
BRANCH  25  26
ATOM     26  N   UNL     1      33.262 -23.139 -17.053  0.00  0.00    -0.327 N 
ATOM     27  H   UNL     1      34.162 -23.341 -16.708  0.00  0.00    +0.147 HD
BRANCH  26  29
ATOM     28  N   UNL     1      31.295 -23.592 -13.947  0.00  0.00    -0.228 NA
ATOM     29  C   UNL     1      32.191 -23.268 -16.200  0.00  0.00    +0.077 C 
ATOM     30  C   UNL     1      32.323 -23.460 -14.817  0.00  0.00    +0.139 C 
ATOM     31  C   UNL     1      30.871 -23.213 -16.685  0.00  0.00    +0.019 C 
ATOM     32  C   UNL     1      29.788 -23.344 -15.821  0.00  0.00    +0.022 C 
ATOM     33  C   UNL     1      30.052 -23.530 -14.474  0.00  0.00    +0.100 C 
ATOM     34  N   UNL     1      33.639 -23.521 -14.294  0.00  0.00    -0.342 N 
ATOM     35  H   UNL     1      33.780 -23.654 -13.329  0.00  0.00    +0.144 HD
ATOM     36  H   UNL     1      34.413 -23.430 -14.897  0.00  0.00    +0.144 HD
ENDBRANCH  26  29
ENDBRANCH  25  26
ENDBRANCH   2  25
TORSDOF 7
ENDMDL
MODEL 2
REMARK VINA RESULT:     -12.0      1.436      4.855
REMARK  Name = 11633167
REMARK  7 active torsions:
REMARK  status: ('A' for Active; 'I' for Inactive)
REMARK    1  A    between atoms: C_1  and  C_8
REMARK    2  A    between atoms: C_2  and  C_25
REMARK    3  A    between atoms: C_4  and  O_17
REMARK    4  A    between atoms: O_17  and  C_18
REMARK    5  A    between atoms: C_18  and  C_20
REMARK    6  A    between atoms: C_25  and  N_26
REMARK    7  A    between atoms: N_26  and  C_29
REMARK                            x       y       z     vdW  Elec       q    Type
REMARK                         _______ _______ _______ _____ _____    ______ ____
ROOT
ATOM      1  C   UNL     1      35.180 -21.782 -18.918  0.00  0.00    -0.000 C 
ATOM      2  C   UNL     1      35.881 -22.807 -16.847  0.00  0.00    +0.031 C 
ATOM      3  C   UNL     1      36.128 -21.934 -17.907  0.00  0.00    +0.000 C 
ATOM      4  C   UNL     1      34.688 -23.526 -16.799  0.00  0.00    +0.137 C 
ATOM      5  C   UNL     1      33.986 -22.500 -18.871  0.00  0.00    +0.003 C 
ATOM      6  C   UNL     1      33.739 -23.373 -17.810  0.00  0.00    +0.037 C 
ENDROOT
BRANCH   1   8
ATOM      7  N   UNL     1      33.919 -19.303 -23.032  0.00  0.00    -0.312 N 
ATOM      8  C   UNL     1      35.435 -20.876 -20.018  0.00  0.00    +0.001 C 
ATOM      9  C   UNL     1      34.709 -19.737 -21.992  0.00  0.00    +0.048 C 
ATOM     10  C   UNL     1      35.954 -19.120 -22.138  0.00  0.00    +0.015 C 
ATOM     11  C   UNL     1      34.420 -20.618 -20.944  0.00  0.00    +0.015 C 
ATOM     12  C   UNL     1      36.686 -20.276 -20.138  0.00  0.00    +0.000 C 
ATOM     13  C   UNL     1      36.961 -19.396 -21.192  0.00  0.00    +0.001 C 
ATOM     14  C   UNL     1      35.882 -18.302 -23.299  0.00  0.00    +0.017 C 
ATOM     15  C   UNL     1      34.619 -18.436 -23.828  0.00  0.00    +0.062 C 
ATOM     16  H   UNL     1      32.985 -19.577 -23.184  0.00  0.00    +0.152 HD
ENDBRANCH   1   8
BRANCH   4  17
ATOM     17  O   UNL     1      34.430 -24.383 -15.772  0.00  0.00    -0.469 OA
BRANCH  17  18
ATOM     18  C   UNL     1      33.849 -23.827 -14.594  0.00  0.00    +0.251 C 
BRANCH  18  20
ATOM     19  N   UNL     1      31.974 -25.316 -14.235  0.00  0.00    -0.244 NA
ATOM     20  C   UNL     1      32.371 -24.083 -14.610  0.00  0.00    +0.103 C 
ATOM     21  C   UNL     1      31.518 -23.068 -14.997  0.00  0.00    +0.018 C 
ATOM     22  C   UNL     1      30.154 -23.337 -15.001  0.00  0.00    +0.003 C 
ATOM     23  C   UNL     1      30.641 -25.541 -14.251  0.00  0.00    +0.099 C 
ATOM     24  C   UNL     1      29.698 -24.595 -14.621  0.00  0.00    +0.021 C 
ENDBRANCH  18  20
ENDBRANCH  17  18
ENDBRANCH   4  17
BRANCH   2  25
ATOM     25  C   UNL     1      36.906 -22.959 -15.772  0.00  0.00    +0.117 C 
BRANCH  25  26
ATOM     26  N   UNL     1      37.355 -24.344 -15.625  0.00  0.00    -0.327 N 
ATOM     27  H   UNL     1      37.598 -24.849 -16.434  0.00  0.00    +0.147 HD
BRANCH  26  29
ATOM     28  N   UNL     1      37.020 -26.911 -12.975  0.00  0.00    -0.228 NA
ATOM     29  C   UNL     1      37.454 -24.975 -14.406  0.00  0.00    +0.077 C 
ATOM     30  C   UNL     1      36.944 -26.258 -14.157  0.00  0.00    +0.139 C 
ATOM     31  C   UNL     1      38.089 -24.350 -13.318  0.00  0.00    +0.019 C 
ATOM     32  C   UNL     1      38.188 -24.989 -12.086  0.00  0.00    +0.022 C 
ATOM     33  C   UNL     1      37.642 -26.257 -11.968  0.00  0.00    +0.100 C 
ATOM     34  N   UNL     1      36.296 -26.918 -15.232  0.00  0.00    -0.342 N 
ATOM     35  H   UNL     1      35.923 -27.819 -15.103  0.00  0.00    +0.144 HD
ATOM     36  H   UNL     1      36.220 -26.474 -16.108  0.00  0.00    +0.144 HD
ENDBRANCH  26  29
ENDBRANCH  25  26
ENDBRANCH   2  25
TORSDOF 7
ENDMDL
MODEL 3
REMARK VINA RESULT:     -12.0      1.235      1.667
REMARK  Name = 11633167
REMARK  7 active torsions:
REMARK  status: ('A' for Active; 'I' for Inactive)
REMARK    1  A    between atoms: C_1  and  C_8
REMARK    2  A    between atoms: C_2  and  C_25
REMARK    3  A    between atoms: C_4  and  O_17
REMARK    4  A    between atoms: O_17  and  C_18
REMARK    5  A    between atoms: C_18  and  C_20
REMARK    6  A    between atoms: C_25  and  N_26
REMARK    7  A    between atoms: N_26  and  C_29
REMARK                            x       y       z     vdW  Elec       q    Type
REMARK                         _______ _______ _______ _____ _____    ______ ____
ROOT
ATOM      1  C   UNL     1      35.489 -20.944 -19.888  0.00  0.00    -0.000 C 
ATOM      2  C   UNL     1      34.364 -22.513 -18.436  0.00  0.00    +0.031 C 
ATOM      3  C   UNL     1      34.335 -21.635 -19.520  0.00  0.00    +0.000 C 
ATOM      4  C   UNL     1      35.547 -22.698 -17.721  0.00  0.00    +0.137 C 
ATOM      5  C   UNL     1      36.672 -21.130 -19.174  0.00  0.00    +0.003 C 
ATOM      6  C   UNL     1      36.701 -22.008 -18.090  0.00  0.00    +0.037 C 
ENDROOT
BRANCH   1   8
ATOM      7  N   UNL     1      33.606 -19.151 -24.119  0.00  0.00    -0.312 N 
ATOM      8  C   UNL     1      35.459 -20.033 -21.013  0.00  0.00    +0.001 C 
ATOM      9  C   UNL     1      34.458 -19.261 -23.044  0.00  0.00    +0.048 C 
ATOM     10  C   UNL     1      35.421 -18.258 -23.179  0.00  0.00    +0.015 C 
ATOM     11  C   UNL     1      34.451 -20.162 -21.973  0.00  0.00    +0.015 C 
ATOM     12  C   UNL     1      36.431 -19.042 -21.121  0.00  0.00    +0.000 C 
ATOM     13  C   UNL     1      36.427 -18.148 -22.198  0.00  0.00    +0.001 C 
ATOM     14  C   UNL     1      35.115 -17.542 -24.369  0.00  0.00    +0.017 C 
ATOM     15  C   UNL     1      33.995 -18.115 -24.927  0.00  0.00    +0.062 C 
ATOM     16  H   UNL     1      32.829 -19.732 -24.285  0.00  0.00    +0.152 HD
ENDBRANCH   1   8
BRANCH   4  17
ATOM     17  O   UNL     1      35.594 -23.552 -16.660  0.00  0.00    -0.469 OA
BRANCH  17  18
ATOM     18  C   UNL     1      36.051 -23.019 -15.419  0.00  0.00    +0.251 C 
BRANCH  18  20
ATOM     19  N   UNL     1      38.151 -24.162 -15.037  0.00  0.00    -0.244 NA
ATOM     20  C   UNL     1      36.849 -24.066 -14.700  0.00  0.00    +0.103 C 
ATOM     21  C   UNL     1      36.223 -24.856 -13.755  0.00  0.00    +0.018 C 
ATOM     22  C   UNL     1      36.990 -25.817 -13.108  0.00  0.00    +0.003 C 
ATOM     23  C   UNL     1      38.865 -25.107 -14.387  0.00  0.00    +0.099 C 
ATOM     24  C   UNL     1      38.338 -25.952 -13.423  0.00  0.00    +0.021 C 
ENDBRANCH  18  20
ENDBRANCH  17  18
ENDBRANCH   4  17
BRANCH   2  25
ATOM     25  C   UNL     1      33.120 -23.245 -18.055  0.00  0.00    +0.117 C 
BRANCH  25  26
ATOM     26  N   UNL     1      32.544 -22.747 -16.806  0.00  0.00    -0.327 N 
ATOM     27  H   UNL     1      32.640 -21.791 -16.591  0.00  0.00    +0.147 HD
BRANCH  26  29
ATOM     28  N   UNL     1      29.786 -24.517 -15.079  0.00  0.00    -0.228 NA
ATOM     29  C   UNL     1      31.872 -23.552 -15.915  0.00  0.00    +0.077 C 
ATOM     30  C   UNL     1      30.481 -23.736 -15.936  0.00  0.00    +0.139 C 
ATOM     31  C   UNL     1      32.564 -24.253 -14.911  0.00  0.00    +0.019 C 
ATOM     32  C   UNL     1      31.884 -25.067 -14.011  0.00  0.00    +0.022 C 
ATOM     33  C   UNL     1      30.508 -25.164 -14.137  0.00  0.00    +0.100 C 
ATOM     34  N   UNL     1      29.752 -23.043 -16.935  0.00  0.00    -0.342 N 
ATOM     35  H   UNL     1      28.774 -23.142 -16.987  0.00  0.00    +0.144 HD
ATOM     36  H   UNL     1      30.223 -22.464 -17.577  0.00  0.00    +0.144 HD
ENDBRANCH  26  29
ENDBRANCH  25  26
ENDBRANCH   2  25
TORSDOF 7
ENDMDL
MODEL 4
REMARK VINA RESULT:     -11.7      1.749      5.117
REMARK  Name = 11633167
REMARK  7 active torsions:
REMARK  status: ('A' for Active; 'I' for Inactive)
REMARK    1  A    between atoms: C_1  and  C_8
REMARK    2  A    between atoms: C_2  and  C_25
REMARK    3  A    between atoms: C_4  and  O_17
REMARK    4  A    between atoms: O_17  and  C_18
REMARK    5  A    between atoms: C_18  and  C_20
REMARK    6  A    between atoms: C_25  and  N_26
REMARK    7  A    between atoms: N_26  and  C_29
REMARK                            x       y       z     vdW  Elec       q    Type
REMARK                         _______ _______ _______ _____ _____    ______ ____
ROOT
ATOM      1  C   UNL     1      34.558 -22.105 -18.590  0.00  0.00    -0.000 C 
ATOM      2  C   UNL     1      35.618 -23.006 -16.616  0.00  0.00    +0.031 C 
ATOM      3  C   UNL     1      35.645 -22.150 -17.717  0.00  0.00    +0.000 C 
ATOM      4  C   UNL     1      34.505 -23.816 -16.390  0.00  0.00    +0.137 C 
ATOM      5  C   UNL     1      33.446 -22.913 -18.364  0.00  0.00    +0.003 C 
ATOM      6  C   UNL     1      33.418 -23.769 -17.262  0.00  0.00    +0.037 C 
ENDROOT
BRANCH   1   8
ATOM      7  N   UNL     1      36.798 -19.071 -21.822  0.00  0.00    -0.312 N 
ATOM      8  C   UNL     1      34.586 -21.216 -19.733  0.00  0.00    +0.001 C 
ATOM      9  C   UNL     1      35.777 -19.777 -21.227  0.00  0.00    +0.048 C 
ATOM     10  C   UNL     1      34.613 -19.502 -21.949  0.00  0.00    +0.015 C 
ATOM     11  C   UNL     1      35.795 -20.629 -20.116  0.00  0.00    +0.015 C 
ATOM     12  C   UNL     1      33.409 -20.961 -20.434  0.00  0.00    +0.000 C 
ATOM     13  C   UNL     1      33.406 -20.107 -21.543  0.00  0.00    +0.001 C 
ATOM     14  C   UNL     1      34.972 -18.610 -22.997  0.00  0.00    +0.017 C 
ATOM     15  C   UNL     1      36.321 -18.362 -22.893  0.00  0.00    +0.062 C 
ATOM     16  H   UNL     1      37.736 -19.075 -21.522  0.00  0.00    +0.152 HD
ENDBRANCH   1   8
BRANCH   4  17
ATOM     17  O   UNL     1      34.462 -24.658 -15.320  0.00  0.00    -0.469 OA
BRANCH  17  18
ATOM     18  C   UNL     1      33.812 -24.180 -14.144  0.00  0.00    +0.251 C 
BRANCH  18  20
ATOM     19  N   UNL     1      31.805 -25.519 -14.338  0.00  0.00    -0.244 NA
ATOM     20  C   UNL     1      32.327 -24.276 -14.331  0.00  0.00    +0.103 C 
ATOM     21  C   UNL     1      31.592 -23.116 -14.482  0.00  0.00    +0.018 C 
ATOM     22  C   UNL     1      30.219 -23.240 -14.654  0.00  0.00    +0.003 C 
ATOM     23  C   UNL     1      30.467 -25.601 -14.507  0.00  0.00    +0.099 C 
ATOM     24  C   UNL     1      29.636 -24.503 -14.667  0.00  0.00    +0.021 C 
ENDBRANCH  18  20
ENDBRANCH  17  18
ENDBRANCH   4  17
BRANCH   2  25
ATOM     25  C   UNL     1      36.789 -23.043 -15.691  0.00  0.00    +0.117 C 
BRANCH  25  26
ATOM     26  N   UNL     1      37.339 -24.391 -15.545  0.00  0.00    -0.327 N 
ATOM     27  H   UNL     1      37.638 -24.867 -16.354  0.00  0.00    +0.147 HD
BRANCH  26  29
ATOM     28  N   UNL     1      37.131 -27.000 -12.924  0.00  0.00    -0.228 NA
ATOM     29  C   UNL     1      37.459 -25.026 -14.331  0.00  0.00    +0.077 C 
ATOM     30  C   UNL     1      37.032 -26.343 -14.102  0.00  0.00    +0.139 C 
ATOM     31  C   UNL     1      38.031 -24.370 -13.226  0.00  0.00    +0.019 C 
ATOM     32  C   UNL     1      38.151 -25.013 -11.998  0.00  0.00    +0.022 C 
ATOM     33  C   UNL     1      37.690 -26.316 -11.901  0.00  0.00    +0.100 C 
ATOM     34  N   UNL     1      36.449 -27.034 -15.194  0.00  0.00    -0.342 N 
ATOM     35  H   UNL     1      36.136 -27.960 -15.080  0.00  0.00    +0.144 HD
ATOM     36  H   UNL     1      36.359 -26.588 -16.068  0.00  0.00    +0.144 HD
ENDBRANCH  26  29
ENDBRANCH  25  26
ENDBRANCH   2  25
TORSDOF 7
ENDMDL
MODEL 5
REMARK VINA RESULT:     -11.6      2.649      9.261
REMARK  Name = 11633167
REMARK  7 active torsions:
REMARK  status: ('A' for Active; 'I' for Inactive)
REMARK    1  A    between atoms: C_1  and  C_8
REMARK    2  A    between atoms: C_2  and  C_25
REMARK    3  A    between atoms: C_4  and  O_17
REMARK    4  A    between atoms: O_17  and  C_18
REMARK    5  A    between atoms: C_18  and  C_20
REMARK    6  A    between atoms: C_25  and  N_26
REMARK    7  A    between atoms: N_26  and  C_29
REMARK                            x       y       z     vdW  Elec       q    Type
REMARK                         _______ _______ _______ _____ _____    ______ ____
ROOT
ATOM      1  C   UNL     1      33.954 -24.089 -15.082  0.00  0.00    -0.000 C 
ATOM      2  C   UNL     1      32.759 -23.148 -16.957  0.00  0.00    +0.031 C 
ATOM      3  C   UNL     1      33.963 -23.500 -16.345  0.00  0.00    +0.000 C 
ATOM      4  C   UNL     1      31.550 -23.384 -16.304  0.00  0.00    +0.137 C 
ATOM      5  C   UNL     1      32.746 -24.326 -14.428  0.00  0.00    +0.003 C 
ATOM      6  C   UNL     1      31.542 -23.974 -15.041  0.00  0.00    +0.037 C 
ENDROOT
BRANCH   1   8
ATOM      7  N   UNL     1      38.690 -25.585 -15.097  0.00  0.00    -0.312 N 
ATOM      8  C   UNL     1      35.203 -24.455 -14.446  0.00  0.00    +0.001 C 
ATOM      9  C   UNL     1      37.478 -25.180 -14.584  0.00  0.00    +0.048 C 
ATOM     10  C   UNL     1      37.608 -25.157 -13.193  0.00  0.00    +0.015 C 
ATOM     11  C   UNL     1      36.290 -24.834 -15.238  0.00  0.00    +0.015 C 
ATOM     12  C   UNL     1      35.303 -24.423 -13.057  0.00  0.00    +0.000 C 
ATOM     13  C   UNL     1      36.497 -24.772 -12.416  0.00  0.00    +0.001 C 
ATOM     14  C   UNL     1      38.937 -25.561 -12.891  0.00  0.00    +0.017 C 
ATOM     15  C   UNL     1      39.578 -25.819 -14.081  0.00  0.00    +0.062 C 
ATOM     16  H   UNL     1      38.890 -25.693 -16.055  0.00  0.00    +0.152 HD
ENDBRANCH   1   8
BRANCH   4  17
ATOM     17  O   UNL     1      30.366 -23.046 -16.887  0.00  0.00    -0.469 OA
BRANCH  17  18
ATOM     18  C   UNL     1      29.244 -23.881 -16.607  0.00  0.00    +0.251 C 
BRANCH  18  20
ATOM     19  N   UNL     1      27.630 -22.800 -18.052  0.00  0.00    -0.244 NA
ATOM     20  C   UNL     1      27.985 -23.084 -16.783  0.00  0.00    +0.103 C 
ATOM     21  C   UNL     1      27.274 -22.695 -15.664  0.00  0.00    +0.018 C 
ATOM     22  C   UNL     1      26.113 -21.958 -15.862  0.00  0.00    +0.003 C 
ATOM     23  C   UNL     1      26.495 -22.083 -18.205  0.00  0.00    +0.099 C 
ATOM     24  C   UNL     1      25.707 -21.642 -17.154  0.00  0.00    +0.021 C 
ENDBRANCH  18  20
ENDBRANCH  17  18
ENDBRANCH   4  17
BRANCH   2  25
ATOM     25  C   UNL     1      32.785 -22.518 -18.310  0.00  0.00    +0.117 C 
BRANCH  25  26
ATOM     26  N   UNL     1      34.100 -22.616 -18.944  0.00  0.00    -0.327 N 
ATOM     27  H   UNL     1      34.605 -23.457 -18.852  0.00  0.00    +0.147 HD
BRANCH  26  29
ATOM     28  N   UNL     1      36.609 -20.219 -20.241  0.00  0.00    -0.228 NA
ATOM     29  C   UNL     1      34.666 -21.588 -19.661  0.00  0.00    +0.077 C 
ATOM     30  C   UNL     1      36.017 -21.222 -19.554  0.00  0.00    +0.139 C 
ATOM     31  C   UNL     1      33.900 -20.830 -20.565  0.00  0.00    +0.019 C 
ATOM     32  C   UNL     1      34.473 -19.790 -21.290  0.00  0.00    +0.022 C 
ATOM     33  C   UNL     1      35.820 -19.528 -21.093  0.00  0.00    +0.100 C 
ATOM     34  N   UNL     1      36.819 -21.965 -18.651  0.00  0.00    -0.342 N 
ATOM     35  H   UNL     1      37.772 -21.744 -18.543  0.00  0.00    +0.144 HD
ATOM     36  H   UNL     1      36.422 -22.703 -18.133  0.00  0.00    +0.144 HD
ENDBRANCH  26  29
ENDBRANCH  25  26
ENDBRANCH   2  25
TORSDOF 7
ENDMDL
MODEL 6
REMARK VINA RESULT:     -10.8      2.268      7.163
REMARK  Name = 11633167
REMARK  7 active torsions:
REMARK  status: ('A' for Active; 'I' for Inactive)
REMARK    1  A    between atoms: C_1  and  C_8
REMARK    2  A    between atoms: C_2  and  C_25
REMARK    3  A    between atoms: C_4  and  O_17
REMARK    4  A    between atoms: O_17  and  C_18
REMARK    5  A    between atoms: C_18  and  C_20
REMARK    6  A    between atoms: C_25  and  N_26
REMARK    7  A    between atoms: N_26  and  C_29
REMARK                            x       y       z     vdW  Elec       q    Type
REMARK                         _______ _______ _______ _____ _____    ______ ____
ROOT
ATOM      1  C   UNL     1      33.645 -23.468 -15.478  0.00  0.00    -0.000 C 
ATOM      2  C   UNL     1      35.668 -22.779 -16.603  0.00  0.00    +0.031 C 
ATOM      3  C   UNL     1      34.293 -23.018 -16.628  0.00  0.00    +0.000 C 
ATOM      4  C   UNL     1      36.391 -22.990 -15.430  0.00  0.00    +0.137 C 
ATOM      5  C   UNL     1      34.367 -23.679 -14.305  0.00  0.00    +0.003 C 
ATOM      6  C   UNL     1      35.742 -23.439 -14.280  0.00  0.00    +0.037 C 
ENDROOT
BRANCH   1   8
ATOM      7  N   UNL     1      29.052 -22.889 -17.278  0.00  0.00    -0.312 N 
ATOM      8  C   UNL     1      32.219 -23.716 -15.503  0.00  0.00    +0.001 C 
ATOM      9  C   UNL     1      30.056 -23.356 -16.460  0.00  0.00    +0.048 C 
ATOM     10  C   UNL     1      29.462 -24.214 -15.531  0.00  0.00    +0.015 C 
ATOM     11  C   UNL     1      31.430 -23.088 -16.471  0.00  0.00    +0.015 C 
ATOM     12  C   UNL     1      31.655 -24.577 -14.565  0.00  0.00    +0.000 C 
ATOM     13  C   UNL     1      30.279 -24.836 -14.565  0.00  0.00    +0.001 C 
ATOM     14  C   UNL     1      28.070 -24.246 -15.822  0.00  0.00    +0.017 C 
ATOM     15  C   UNL     1      27.848 -23.420 -16.900  0.00  0.00    +0.062 C 
ATOM     16  H   UNL     1      29.181 -22.262 -18.027  0.00  0.00    +0.152 HD
ENDBRANCH   1   8
BRANCH   4  17
ATOM     17  O   UNL     1      37.734 -22.761 -15.388  0.00  0.00    -0.469 OA
BRANCH  17  18
ATOM     18  C   UNL     1      38.589 -23.894 -15.525  0.00  0.00    +0.251 C 
BRANCH  18  20
ATOM     19  N   UNL     1      38.570 -24.511 -13.184  0.00  0.00    -0.244 NA
ATOM     20  C   UNL     1      38.268 -24.884 -14.445  0.00  0.00    +0.103 C 
ATOM     21  C   UNL     1      37.695 -26.093 -14.789  0.00  0.00    +0.018 C 
ATOM     22  C   UNL     1      37.411 -26.987 -13.764  0.00  0.00    +0.003 C 
ATOM     23  C   UNL     1      38.279 -25.406 -12.215  0.00  0.00    +0.099 C 
ATOM     24  C   UNL     1      37.705 -26.645 -12.449  0.00  0.00    +0.021 C 
ENDBRANCH  18  20
ENDBRANCH  17  18
ENDBRANCH   4  17
BRANCH   2  25
ATOM     25  C   UNL     1      36.347 -22.298 -17.842  0.00  0.00    +0.117 C 
BRANCH  25  26
ATOM     26  N   UNL     1      35.489 -22.402 -19.023  0.00  0.00    -0.327 N 
ATOM     27  H   UNL     1      35.055 -23.265 -19.213  0.00  0.00    +0.147 HD
BRANCH  26  29
ATOM     28  N   UNL     1      33.725 -19.984 -21.204  0.00  0.00    -0.228 NA
ATOM     29  C   UNL     1      35.261 -21.351 -19.881  0.00  0.00    +0.077 C 
ATOM     30  C   UNL     1      33.989 -21.007 -20.361  0.00  0.00    +0.139 C 
ATOM     31  C   UNL     1      36.322 -20.545 -20.333  0.00  0.00    +0.019 C 
ATOM     32  C   UNL     1      36.091 -19.483 -21.201  0.00  0.00    +0.022 C 
ATOM     33  C   UNL     1      34.785 -19.247 -21.603  0.00  0.00    +0.100 C 
ATOM     34  N   UNL     1      32.897 -21.800 -19.925  0.00  0.00    -0.342 N 
ATOM     35  H   UNL     1      31.986 -21.595 -20.236  0.00  0.00    +0.144 HD
ATOM     36  H   UNL     1      33.050 -22.555 -19.311  0.00  0.00    +0.144 HD
ENDBRANCH  26  29
ENDBRANCH  25  26
ENDBRANCH   2  25
TORSDOF 7
ENDMDL
MODEL 7
REMARK VINA RESULT:     -10.7      2.169      3.156
REMARK  Name = 11633167
REMARK  7 active torsions:
REMARK  status: ('A' for Active; 'I' for Inactive)
REMARK    1  A    between atoms: C_1  and  C_8
REMARK    2  A    between atoms: C_2  and  C_25
REMARK    3  A    between atoms: C_4  and  O_17
REMARK    4  A    between atoms: O_17  and  C_18
REMARK    5  A    between atoms: C_18  and  C_20
REMARK    6  A    between atoms: C_25  and  N_26
REMARK    7  A    between atoms: N_26  and  C_29
REMARK                            x       y       z     vdW  Elec       q    Type
REMARK                         _______ _______ _______ _____ _____    ______ ____
ROOT
ATOM      1  C   UNL     1      35.564 -21.955 -18.353  0.00  0.00    -0.000 C 
ATOM      2  C   UNL     1      35.052 -23.438 -16.517  0.00  0.00    +0.031 C 
ATOM      3  C   UNL     1      34.646 -22.738 -17.654  0.00  0.00    +0.000 C 
ATOM      4  C   UNL     1      36.373 -23.354 -16.081  0.00  0.00    +0.137 C 
ATOM      5  C   UNL     1      36.886 -21.871 -17.918  0.00  0.00    +0.003 C 
ATOM      6  C   UNL     1      37.291 -22.571 -16.781  0.00  0.00    +0.037 C 
ENDROOT
BRANCH   1   8
ATOM      7  N   UNL     1      36.346 -19.088 -22.332  0.00  0.00    -0.312 N 
ATOM      8  C   UNL     1      35.144 -21.228 -19.533  0.00  0.00    +0.001 C 
ATOM      9  C   UNL     1      35.648 -19.845 -21.418  0.00  0.00    +0.048 C 
ATOM     10  C   UNL     1      34.307 -19.830 -21.811  0.00  0.00    +0.015 C 
ATOM     11  C   UNL     1      36.096 -20.534 -20.285  0.00  0.00    +0.015 C 
ATOM     12  C   UNL     1      33.801 -21.232 -19.900  0.00  0.00    +0.000 C 
ATOM     13  C   UNL     1      33.367 -20.538 -21.036  0.00  0.00    +0.001 C 
ATOM     14  C   UNL     1      34.226 -19.042 -22.992  0.00  0.00    +0.017 C 
ATOM     15  C   UNL     1      35.495 -18.598 -23.287  0.00  0.00    +0.062 C 
ATOM     16  H   UNL     1      37.316 -18.923 -22.304  0.00  0.00    +0.152 HD
ENDBRANCH   1   8
BRANCH   4  17
ATOM     17  O   UNL     1      36.786 -24.030 -14.973  0.00  0.00    -0.469 OA
BRANCH  17  18
ATOM     18  C   UNL     1      37.436 -23.273 -13.954  0.00  0.00    +0.251 C 
BRANCH  18  20
ATOM     19  N   UNL     1      37.295 -22.951 -11.559  0.00  0.00    -0.244 NA
ATOM     20  C   UNL     1      36.894 -23.684 -12.617  0.00  0.00    +0.103 C 
ATOM     21  C   UNL     1      36.036 -24.764 -12.543  0.00  0.00    +0.018 C 
ATOM     22  C   UNL     1      35.553 -25.119 -11.289  0.00  0.00    +0.003 C 
ATOM     23  C   UNL     1      36.805 -23.325 -10.357  0.00  0.00    +0.099 C 
ATOM     24  C   UNL     1      35.939 -24.391 -10.169  0.00  0.00    +0.021 C 
ENDBRANCH  18  20
ENDBRANCH  17  18
ENDBRANCH   4  17
BRANCH   2  25
ATOM     25  C   UNL     1      34.057 -24.272 -15.780  0.00  0.00    +0.117 C 
BRANCH  25  26
ATOM     26  N   UNL     1      32.911 -23.489 -15.315  0.00  0.00    -0.327 N 
ATOM     27  H   UNL     1      33.066 -22.565 -15.010  0.00  0.00    +0.147 HD
BRANCH  26  29
ATOM     28  N   UNL     1      29.365 -24.076 -16.207  0.00  0.00    -0.228 NA
ATOM     29  C   UNL     1      31.628 -23.982 -15.284  0.00  0.00    +0.077 C 
ATOM     30  C   UNL     1      30.635 -23.615 -16.205  0.00  0.00    +0.139 C 
ATOM     31  C   UNL     1      31.233 -24.906 -14.299  0.00  0.00    +0.019 C 
ATOM     32  C   UNL     1      29.934 -25.404 -14.268  0.00  0.00    +0.022 C 
ATOM     33  C   UNL     1      29.047 -24.961 -15.236  0.00  0.00    +0.100 C 
ATOM     34  N   UNL     1      30.999 -22.684 -17.211  0.00  0.00    -0.342 N 
ATOM     35  H   UNL     1      30.336 -22.398 -17.879  0.00  0.00    +0.144 HD
ATOM     36  H   UNL     1      31.916 -22.325 -17.242  0.00  0.00    +0.144 HD
ENDBRANCH  26  29
ENDBRANCH  25  26
ENDBRANCH   2  25
TORSDOF 7
ENDMDL
MODEL 8
REMARK VINA RESULT:     -10.7      2.252      5.110
REMARK  Name = 11633167
REMARK  7 active torsions:
REMARK  status: ('A' for Active; 'I' for Inactive)
REMARK    1  A    between atoms: C_1  and  C_8
REMARK    2  A    between atoms: C_2  and  C_25
REMARK    3  A    between atoms: C_4  and  O_17
REMARK    4  A    between atoms: O_17  and  C_18
REMARK    5  A    between atoms: C_18  and  C_20
REMARK    6  A    between atoms: C_25  and  N_26
REMARK    7  A    between atoms: N_26  and  C_29
REMARK                            x       y       z     vdW  Elec       q    Type
REMARK                         _______ _______ _______ _____ _____    ______ ____
ROOT
ATOM      1  C   UNL     1      34.293 -22.248 -18.356  0.00  0.00    -0.000 C 
ATOM      2  C   UNL     1      35.524 -23.267 -16.545  0.00  0.00    +0.031 C 
ATOM      3  C   UNL     1      35.494 -22.450 -17.676  0.00  0.00    +0.000 C 
ATOM      4  C   UNL     1      34.355 -23.880 -16.095  0.00  0.00    +0.137 C 
ATOM      5  C   UNL     1      33.124 -22.860 -17.907  0.00  0.00    +0.003 C 
ATOM      6  C   UNL     1      33.154 -23.676 -16.775  0.00  0.00    +0.037 C 
ENDROOT
BRANCH   1   8
ATOM      7  N   UNL     1      36.373 -19.413 -21.863  0.00  0.00    -0.312 N 
ATOM      8  C   UNL     1      34.260 -21.401 -19.529  0.00  0.00    +0.001 C 
ATOM      9  C   UNL     1      35.379 -20.059 -21.164  0.00  0.00    +0.048 C 
ATOM     10  C   UNL     1      34.171 -19.766 -21.802  0.00  0.00    +0.015 C 
ATOM     11  C   UNL     1      35.455 -20.873 -20.027  0.00  0.00    +0.015 C 
ATOM     12  C   UNL     1      33.042 -21.126 -20.145  0.00  0.00    +0.000 C 
ATOM     13  C   UNL     1      32.980 -20.311 -21.281  0.00  0.00    +0.001 C 
ATOM     14  C   UNL     1      34.476 -18.925 -22.907  0.00  0.00    +0.017 C 
ATOM     15  C   UNL     1      35.838 -18.724 -22.918  0.00  0.00    +0.062 C 
ATOM     16  H   UNL     1      37.331 -19.442 -21.637  0.00  0.00    +0.152 HD
ENDBRANCH   1   8
BRANCH   4  17
ATOM     17  O   UNL     1      34.367 -24.680 -14.993  0.00  0.00    -0.469 OA
BRANCH  17  18
ATOM     18  C   UNL     1      33.848 -24.128 -13.785  0.00  0.00    +0.251 C 
BRANCH  18  20
ATOM     19  N   UNL     1      34.780 -24.958 -11.710  0.00  0.00    -0.244 NA
ATOM     20  C   UNL     1      34.933 -24.111 -12.748  0.00  0.00    +0.103 C 
ATOM     21  C   UNL     1      36.003 -23.252 -12.909  0.00  0.00    +0.018 C 
ATOM     22  C   UNL     1      36.990 -23.261 -11.931  0.00  0.00    +0.003 C 
ATOM     23  C   UNL     1      35.759 -24.939 -10.779  0.00  0.00    +0.099 C 
ATOM     24  C   UNL     1      36.874 -24.118 -10.842  0.00  0.00    +0.021 C 
ENDBRANCH  18  20
ENDBRANCH  17  18
ENDBRANCH   4  17
BRANCH   2  25
ATOM     25  C   UNL     1      36.818 -23.474 -15.829  0.00  0.00    +0.117 C 
BRANCH  25  26
ATOM     26  N   UNL     1      37.088 -24.888 -15.568  0.00  0.00    -0.327 N 
ATOM     27  H   UNL     1      36.406 -25.552 -15.820  0.00  0.00    +0.147 HD
BRANCH  26  29
ATOM     28  N   UNL     1      39.402 -26.709 -13.321  0.00  0.00    -0.228 NA
ATOM     29  C   UNL     1      38.251 -25.335 -14.985  0.00  0.00    +0.077 C 
ATOM     30  C   UNL     1      38.281 -26.248 -13.920  0.00  0.00    +0.139 C 
ATOM     31  C   UNL     1      39.505 -24.886 -15.438  0.00  0.00    +0.019 C 
ATOM     32  C   UNL     1      40.681 -25.338 -14.848  0.00  0.00    +0.022 C 
ATOM     33  C   UNL     1      40.575 -26.241 -13.802  0.00  0.00    +0.100 C 
ATOM     34  N   UNL     1      37.035 -26.720 -13.437  0.00  0.00    -0.342 N 
ATOM     35  H   UNL     1      37.008 -27.362 -12.692  0.00  0.00    +0.144 HD
ATOM     36  H   UNL     1      36.196 -26.406 -13.848  0.00  0.00    +0.144 HD
ENDBRANCH  26  29
ENDBRANCH  25  26
ENDBRANCH   2  25
TORSDOF 7
ENDMDL
MODEL 9
REMARK VINA RESULT:     -10.5      1.414      4.172
REMARK  Name = 11633167
REMARK  7 active torsions:
REMARK  status: ('A' for Active; 'I' for Inactive)
REMARK    1  A    between atoms: C_1  and  C_8
REMARK    2  A    between atoms: C_2  and  C_25
REMARK    3  A    between atoms: C_4  and  O_17
REMARK    4  A    between atoms: O_17  and  C_18
REMARK    5  A    between atoms: C_18  and  C_20
REMARK    6  A    between atoms: C_25  and  N_26
REMARK    7  A    between atoms: N_26  and  C_29
REMARK                            x       y       z     vdW  Elec       q    Type
REMARK                         _______ _______ _______ _____ _____    ______ ____
ROOT
ATOM      1  C   UNL     1      34.091 -20.467 -20.579  0.00  0.00    -0.000 C 
ATOM      2  C   UNL     1      34.748 -22.017 -18.848  0.00  0.00    +0.031 C 
ATOM      3  C   UNL     1      35.091 -21.091 -19.834  0.00  0.00    +0.000 C 
ATOM      4  C   UNL     1      33.408 -22.318 -18.609  0.00  0.00    +0.137 C 
ATOM      5  C   UNL     1      32.751 -20.766 -20.340  0.00  0.00    +0.003 C 
ATOM      6  C   UNL     1      32.409 -21.692 -19.353  0.00  0.00    +0.037 C 
ENDROOT
BRANCH   1   8
ATOM      7  N   UNL     1      33.834 -18.517 -25.139  0.00  0.00    -0.312 N 
ATOM      8  C   UNL     1      34.445 -19.506 -21.602  0.00  0.00    +0.001 C 
ATOM      9  C   UNL     1      34.235 -18.660 -23.830  0.00  0.00    +0.048 C 
ATOM     10  C   UNL     1      35.146 -17.634 -23.565  0.00  0.00    +0.015 C 
ATOM     11  C   UNL     1      33.866 -19.609 -22.870  0.00  0.00    +0.015 C 
ATOM     12  C   UNL     1      35.356 -18.493 -21.309  0.00  0.00    +0.000 C 
ATOM     13  C   UNL     1      35.717 -17.551 -22.279  0.00  0.00    +0.001 C 
ATOM     14  C   UNL     1      35.275 -16.871 -24.758  0.00  0.00    +0.017 C 
ATOM     15  C   UNL     1      34.457 -17.439 -25.709  0.00  0.00    +0.062 C 
ATOM     16  H   UNL     1      33.192 -19.104 -25.600  0.00  0.00    +0.152 HD
ENDBRANCH   1   8
BRANCH   4  17
ATOM     17  O   UNL     1      33.056 -23.219 -17.650  0.00  0.00    -0.469 OA
BRANCH  17  18
ATOM     18  C   UNL     1      31.743 -23.107 -17.105  0.00  0.00    +0.251 C 
BRANCH  18  20
ATOM     19  N   UNL     1      32.696 -23.651 -14.946  0.00  0.00    -0.244 NA
ATOM     20  C   UNL     1      31.684 -23.865 -15.811  0.00  0.00    +0.103 C 
ATOM     21  C   UNL     1      30.623 -24.719 -15.581  0.00  0.00    +0.018 C 
ATOM     22  C   UNL     1      30.597 -25.406 -14.373  0.00  0.00    +0.003 C 
ATOM     23  C   UNL     1      32.637 -24.336 -13.783  0.00  0.00    +0.099 C 
ATOM     24  C   UNL     1      31.620 -25.216 -13.451  0.00  0.00    +0.021 C 
ENDBRANCH  18  20
ENDBRANCH  17  18
ENDBRANCH   4  17
BRANCH   2  25
ATOM     25  C   UNL     1      35.830 -22.677 -18.059  0.00  0.00    +0.117 C 
BRANCH  25  26
ATOM     26  N   UNL     1      35.415 -22.978 -16.689  0.00  0.00    -0.327 N 
ATOM     27  H   UNL     1      34.527 -22.674 -16.389  0.00  0.00    +0.147 HD
BRANCH  26  29
ATOM     28  N   UNL     1      38.242 -23.828 -14.452  0.00  0.00    -0.228 NA
ATOM     29  C   UNL     1      36.206 -23.665 -15.798  0.00  0.00    +0.077 C 
ATOM     30  C   UNL     1      37.437 -23.183 -15.325  0.00  0.00    +0.139 C 
ATOM     31  C   UNL     1      35.812 -24.920 -15.301  0.00  0.00    +0.019 C 
ATOM     32  C   UNL     1      36.613 -25.615 -14.400  0.00  0.00    +0.022 C 
ATOM     33  C   UNL     1      37.808 -25.030 -14.010  0.00  0.00    +0.100 C 
ATOM     34  N   UNL     1      37.865 -21.920 -15.807  0.00  0.00    -0.342 N 
ATOM     35  H   UNL     1      38.722 -21.543 -15.503  0.00  0.00    +0.144 HD
ATOM     36  H   UNL     1      37.305 -21.421 -16.445  0.00  0.00    +0.144 HD
ENDBRANCH  26  29
ENDBRANCH  25  26
ENDBRANCH   2  25
TORSDOF 7
ENDMDL
