MODEL 1
REMARK VINA RESULT:     -11.8      0.000      0.000
REMARK  Name = 42611257
REMARK  7 active torsions:
REMARK  status: ('A' for Active; 'I' for Inactive)
REMARK    1  A    between atoms: C_2  and  C_6
REMARK    2  A    between atoms: C_2  and  C_22
REMARK    3  A    between atoms: C_10  and  C_14
REMARK    4  A    between atoms: C_23  and  N_28
REMARK    5  A    between atoms: N_28  and  S_30
REMARK    6  A    between atoms: S_30  and  C_33
REMARK    7  A    between atoms: C_33  and  C_34
REMARK                            x       y       z     vdW  Elec       q    Type
REMARK                         _______ _______ _______ _____ _____    ______ ____
ROOT
ATOM      1  O   UNL     1      34.161 -12.747 -24.843  0.00  0.00    -0.286 OA
ATOM      2  C   UNL     1      33.712 -13.546 -23.993  0.00  0.00    +0.201 C 
ENDROOT
BRANCH   2   6
ATOM      3  N   UNL     1      31.829 -13.110 -20.947  0.00  0.00    -0.297 N 
ATOM      4  N   UNL     1      31.295 -10.774 -20.703  0.00  0.00    -0.229 NA
ATOM      5  C   UNL     1      32.562 -11.751 -22.561  0.00  0.00    +0.036 C 
ATOM      6  C   UNL     1      32.962 -13.080 -22.862  0.00  0.00    +0.056 C 
ATOM      7  C   UNL     1      31.858 -11.805 -21.362  0.00  0.00    +0.132 C 
ATOM      8  C   UNL     1      32.711 -10.493 -23.168  0.00  0.00    +0.004 C 
ATOM      9  C   UNL     1      32.497 -13.894 -21.852  0.00  0.00    +0.066 C 
ATOM     10  C   UNL     1      32.147  -9.392 -22.527  0.00  0.00    +0.019 C 
ATOM     11  C   UNL     1      31.469  -9.588 -21.331  0.00  0.00    +0.100 C 
ATOM     12  H   UNL     1      31.396 -13.435 -20.125  0.00  0.00    +0.154 HD
BRANCH  10  14
ATOM     13 CL   UNL     1      32.637  -3.945 -24.888  0.00  0.00    -0.082 Cl
ATOM     14  C   UNL     1      32.266  -8.070 -23.099  0.00  0.00    +0.002 C 
ATOM     15  C   UNL     1      33.527  -7.531 -23.356  0.00  0.00    +0.001 C 
ATOM     16  C   UNL     1      31.120  -7.332 -23.394  0.00  0.00    +0.001 C 
ATOM     17  C   UNL     1      33.642  -6.256 -23.910  0.00  0.00    +0.011 C 
ATOM     18  C   UNL     1      31.234  -6.057 -23.947  0.00  0.00    +0.011 C 
ATOM     19  C   UNL     1      32.495  -5.519 -24.205  0.00  0.00    +0.058 C 
ENDBRANCH  10  14
ENDBRANCH   2   6
BRANCH   2  22
ATOM     20  F   UNL     1      35.548 -15.017 -22.434  0.00  0.00    -0.203 F 
ATOM     21  F   UNL     1      32.481 -15.049 -26.055  0.00  0.00    -0.204 F 
ATOM     22  C   UNL     1      34.009 -15.001 -24.238  0.00  0.00    +0.095 C 
ATOM     23  C   UNL     1      35.205 -17.018 -23.655  0.00  0.00    +0.092 C 
ATOM     24  C   UNL     1      34.928 -15.669 -23.429  0.00  0.00    +0.160 C 
ATOM     25  C   UNL     1      33.366 -15.681 -25.272  0.00  0.00    +0.145 C 
ATOM     26  C   UNL     1      34.561 -17.698 -24.690  0.00  0.00    +0.020 C 
ATOM     27  C   UNL     1      33.642 -17.029 -25.498  0.00  0.00    +0.031 C 
BRANCH  23  28
ATOM     28  N   UNL     1      36.145 -17.705 -22.829  0.00  0.00    -0.217 N 
ATOM     29  H   UNL     1      37.059 -17.889 -23.148  0.00  0.00    +0.173 HD
BRANCH  28  30
ATOM     30  S   UNL     1      35.638 -18.202 -21.261  0.00  0.00    +0.054 S 
ATOM     31  O   UNL     1      36.752 -18.866 -20.607  0.00  0.00    -0.154 OA
ATOM     32  O   UNL     1      34.916 -17.140 -20.589  0.00  0.00    -0.154 OA
BRANCH  30  33
ATOM     33  C   UNL     1      34.467 -19.468 -21.696  0.00  0.00    +0.172 C 
BRANCH  33  34
ATOM     34  C   UNL     1      34.429 -20.570 -20.651  0.00  0.00    +0.027 C 
ATOM     35  C   UNL     1      33.002 -20.947 -20.290  0.00  0.00    +0.002 C 
ENDBRANCH  33  34
ENDBRANCH  30  33
ENDBRANCH  28  30
ENDBRANCH  23  28
ENDBRANCH   2  22
TORSDOF 7
ENDMDL
MODEL 2
REMARK VINA RESULT:     -11.8      3.663      6.314
REMARK  Name = 42611257
REMARK  7 active torsions:
REMARK  status: ('A' for Active; 'I' for Inactive)
REMARK    1  A    between atoms: C_2  and  C_6
REMARK    2  A    between atoms: C_2  and  C_22
REMARK    3  A    between atoms: C_10  and  C_14
REMARK    4  A    between atoms: C_23  and  N_28
REMARK    5  A    between atoms: N_28  and  S_30
REMARK    6  A    between atoms: S_30  and  C_33
REMARK    7  A    between atoms: C_33  and  C_34
REMARK                            x       y       z     vdW  Elec       q    Type
REMARK                         _______ _______ _______ _____ _____    ______ ____
ROOT
ATOM      1  O   UNL     1      35.620 -17.185 -21.142  0.00  0.00    -0.286 OA
ATOM      2  C   UNL     1      35.341 -18.226 -21.776  0.00  0.00    +0.201 C 
ENDROOT
BRANCH   2   6
ATOM      3  N   UNL     1      34.273 -18.817 -25.171  0.00  0.00    -0.297 N 
ATOM      4  N   UNL     1      33.570 -16.723 -26.130  0.00  0.00    -0.229 NA
ATOM      5  C   UNL     1      34.412 -17.024 -23.847  0.00  0.00    +0.036 C 
ATOM      6  C   UNL     1      34.862 -18.162 -23.128  0.00  0.00    +0.056 C 
ATOM      7  C   UNL     1      34.052 -17.467 -25.117  0.00  0.00    +0.132 C 
ATOM      8  C   UNL     1      34.263 -15.654 -23.574  0.00  0.00    +0.004 C 
ATOM      9  C   UNL     1      34.766 -19.251 -23.968  0.00  0.00    +0.066 C 
ATOM     10  C   UNL     1      33.768 -14.839 -24.589  0.00  0.00    +0.019 C 
ATOM     11  C   UNL     1      33.447 -15.414 -25.812  0.00  0.00    +0.100 C 
ATOM     12  H   UNL     1      34.104 -19.389 -25.955  0.00  0.00    +0.154 HD
BRANCH  10  14
ATOM     13 CL   UNL     1      33.043  -8.995 -23.692  0.00  0.00    -0.082 Cl
ATOM     14  C   UNL     1      33.590 -13.421 -24.371  0.00  0.00    +0.002 C 
ATOM     15  C   UNL     1      33.122 -12.957 -23.142  0.00  0.00    +0.001 C 
ATOM     16  C   UNL     1      33.889 -12.517 -25.391  0.00  0.00    +0.001 C 
ATOM     17  C   UNL     1      32.954 -11.588 -22.932  0.00  0.00    +0.011 C 
ATOM     18  C   UNL     1      33.719 -11.149 -25.181  0.00  0.00    +0.011 C 
ATOM     19  C   UNL     1      33.252 -10.684 -23.952  0.00  0.00    +0.058 C 
ENDBRANCH  10  14
ENDBRANCH   2   6
BRANCH   2  22
ATOM     20  F   UNL     1      33.190 -19.785 -20.823  0.00  0.00    -0.203 F 
ATOM     21  F   UNL     1      37.895 -19.313 -21.214  0.00  0.00    -0.204 F 
ATOM     22  C   UNL     1      35.536 -19.520 -21.035  0.00  0.00    +0.095 C 
ATOM     23  C   UNL     1      34.609 -21.443 -19.903  0.00  0.00    +0.092 C 
ATOM     24  C   UNL     1      34.429 -20.243 -20.591  0.00  0.00    +0.160 C 
ATOM     25  C   UNL     1      36.824 -19.998 -20.792  0.00  0.00    +0.145 C 
ATOM     26  C   UNL     1      35.898 -21.921 -19.660  0.00  0.00    +0.020 C 
ATOM     27  C   UNL     1      37.005 -21.198 -20.105  0.00  0.00    +0.031 C 
BRANCH  23  28
ATOM     28  N   UNL     1      33.478 -22.185 -19.447  0.00  0.00    -0.217 N 
ATOM     29  H   UNL     1      32.588 -22.046 -19.845  0.00  0.00    +0.173 HD
BRANCH  28  30
ATOM     30  S   UNL     1      33.713 -23.329 -18.181  0.00  0.00    +0.054 S 
ATOM     31  O   UNL     1      33.693 -24.661 -18.758  0.00  0.00    -0.154 OA
ATOM     32  O   UNL     1      34.794 -22.921 -17.307  0.00  0.00    -0.154 OA
BRANCH  30  33
ATOM     33  C   UNL     1      32.186 -23.130 -17.291  0.00  0.00    +0.172 C 
BRANCH  33  34
ATOM     34  C   UNL     1      32.334 -23.550 -15.838  0.00  0.00    +0.027 C 
ATOM     35  C   UNL     1      31.114 -23.160 -15.020  0.00  0.00    +0.002 C 
ENDBRANCH  33  34
ENDBRANCH  30  33
ENDBRANCH  28  30
ENDBRANCH  23  28
ENDBRANCH   2  22
TORSDOF 7
ENDMDL
MODEL 3
REMARK VINA RESULT:     -11.5      5.687     11.622
REMARK  Name = 42611257
REMARK  7 active torsions:
REMARK  status: ('A' for Active; 'I' for Inactive)
REMARK    1  A    between atoms: C_2  and  C_6
REMARK    2  A    between atoms: C_2  and  C_22
REMARK    3  A    between atoms: C_10  and  C_14
REMARK    4  A    between atoms: C_23  and  N_28
REMARK    5  A    between atoms: N_28  and  S_30
REMARK    6  A    between atoms: S_30  and  C_33
REMARK    7  A    between atoms: C_33  and  C_34
REMARK                            x       y       z     vdW  Elec       q    Type
REMARK                         _______ _______ _______ _____ _____    ______ ____
ROOT
ATOM      1  O   UNL     1      36.616 -19.688 -20.612  0.00  0.00    -0.286 OA
ATOM      2  C   UNL     1      35.456 -19.546 -21.055  0.00  0.00    +0.201 C 
ENDROOT
BRANCH   2   6
ATOM      3  N   UNL     1      32.347 -21.261 -20.416  0.00  0.00    -0.297 N 
ATOM      4  N   UNL     1      32.666 -22.760 -18.558  0.00  0.00    -0.229 NA
ATOM      5  C   UNL     1      34.387 -21.293 -19.506  0.00  0.00    +0.036 C 
ATOM      6  C   UNL     1      34.377 -20.363 -20.579  0.00  0.00    +0.056 C 
ATOM      7  C   UNL     1      33.107 -21.835 -19.431  0.00  0.00    +0.132 C 
ATOM      8  C   UNL     1      35.337 -21.747 -18.577  0.00  0.00    +0.004 C 
ATOM      9  C   UNL     1      33.109 -20.364 -21.119  0.00  0.00    +0.066 C 
ATOM     10  C   UNL     1      34.932 -22.705 -17.649  0.00  0.00    +0.019 C 
ATOM     11  C   UNL     1      33.621 -23.161 -17.688  0.00  0.00    +0.100 C 
ATOM     12  H   UNL     1      31.399 -21.461 -20.591  0.00  0.00    +0.154 HD
BRANCH  10  14
ATOM     13 CL   UNL     1      38.761 -24.803 -13.597  0.00  0.00    -0.082 Cl
ATOM     14  C   UNL     1      35.862 -23.215 -16.667  0.00  0.00    +0.002 C 
ATOM     15  C   UNL     1      37.158 -22.704 -16.602  0.00  0.00    +0.001 C 
ATOM     16  C   UNL     1      35.462 -24.217 -15.784  0.00  0.00    +0.001 C 
ATOM     17  C   UNL     1      38.055 -23.195 -15.652  0.00  0.00    +0.011 C 
ATOM     18  C   UNL     1      36.358 -24.709 -14.835  0.00  0.00    +0.011 C 
ATOM     19  C   UNL     1      37.655 -24.197 -14.769  0.00  0.00    +0.058 C 
ENDBRANCH  10  14
ENDBRANCH   2   6
BRANCH   2  22
ATOM     20  F   UNL     1      35.251 -16.802 -20.427  0.00  0.00    -0.203 F 
ATOM     21  F   UNL     1      35.296 -20.112 -23.826  0.00  0.00    -0.204 F 
ATOM     22  C   UNL     1      35.277 -18.479 -22.102  0.00  0.00    +0.095 C 
ATOM     23  C   UNL     1      35.016 -16.151 -22.692  0.00  0.00    +0.092 C 
ATOM     24  C   UNL     1      35.183 -17.140 -21.723  0.00  0.00    +0.160 C 
ATOM     25  C   UNL     1      35.206 -18.829 -23.450  0.00  0.00    +0.145 C 
ATOM     26  C   UNL     1      34.946 -16.501 -24.041  0.00  0.00    +0.020 C 
ATOM     27  C   UNL     1      35.040 -17.840 -24.419  0.00  0.00    +0.031 C 
BRANCH  23  28
ATOM     28  N   UNL     1      34.919 -14.779 -22.307  0.00  0.00    -0.217 N 
ATOM     29  H   UNL     1      35.537 -14.396 -21.643  0.00  0.00    +0.173 HD
BRANCH  28  30
ATOM     30  S   UNL     1      33.694 -13.815 -23.038  0.00  0.00    +0.054 S 
ATOM     31  O   UNL     1      34.258 -12.511 -23.342  0.00  0.00    -0.154 OA
ATOM     32  O   UNL     1      32.981 -14.564 -24.053  0.00  0.00    -0.154 OA
BRANCH  30  33
ATOM     33  C   UNL     1      32.601 -13.594 -21.654  0.00  0.00    +0.172 C 
BRANCH  33  34
ATOM     34  C   UNL     1      31.839 -12.283 -21.753  0.00  0.00    +0.027 C 
ATOM     35  C   UNL     1      31.869 -11.520 -20.439  0.00  0.00    +0.002 C 
ENDBRANCH  33  34
ENDBRANCH  30  33
ENDBRANCH  28  30
ENDBRANCH  23  28
ENDBRANCH   2  22
TORSDOF 7
ENDMDL
MODEL 4
REMARK VINA RESULT:     -11.5      4.594     10.138
REMARK  Name = 42611257
REMARK  7 active torsions:
REMARK  status: ('A' for Active; 'I' for Inactive)
REMARK    1  A    between atoms: C_2  and  C_6
REMARK    2  A    between atoms: C_2  and  C_22
REMARK    3  A    between atoms: C_10  and  C_14
REMARK    4  A    between atoms: C_23  and  N_28
REMARK    5  A    between atoms: N_28  and  S_30
REMARK    6  A    between atoms: S_30  and  C_33
REMARK    7  A    between atoms: C_33  and  C_34
REMARK                            x       y       z     vdW  Elec       q    Type
REMARK                         _______ _______ _______ _____ _____    ______ ____
ROOT
ATOM      1  O   UNL     1      35.008 -13.419 -21.943  0.00  0.00    -0.286 OA
ATOM      2  C   UNL     1      34.049 -13.403 -22.745  0.00  0.00    +0.201 C 
ENDROOT
BRANCH   2   6
ATOM      3  N   UNL     1      33.469 -15.346 -25.728  0.00  0.00    -0.297 N 
ATOM      4  N   UNL     1      34.048 -17.640 -25.274  0.00  0.00    -0.229 NA
ATOM      5  C   UNL     1      34.209 -15.794 -23.669  0.00  0.00    +0.036 C 
ATOM      6  C   UNL     1      33.917 -14.407 -23.761  0.00  0.00    +0.056 C 
ATOM      7  C   UNL     1      33.919 -16.349 -24.912  0.00  0.00    +0.132 C 
ATOM      8  C   UNL     1      34.689 -16.657 -22.670  0.00  0.00    +0.004 C 
ATOM      9  C   UNL     1      33.464 -14.161 -25.039  0.00  0.00    +0.066 C 
ATOM     10  C   UNL     1      34.841 -18.004 -22.994  0.00  0.00    +0.019 C 
ATOM     11  C   UNL     1      34.514 -18.425 -24.276  0.00  0.00    +0.100 C 
ATOM     12  H   UNL     1      33.193 -15.459 -26.666  0.00  0.00    +0.154 HD
BRANCH  10  14
ATOM     13 CL   UNL     1      36.860 -21.873 -18.940  0.00  0.00    -0.082 Cl
ATOM     14  C   UNL     1      35.332 -18.943 -22.011  0.00  0.00    +0.002 C 
ATOM     15  C   UNL     1      36.662 -18.886 -21.594  0.00  0.00    +0.001 C 
ATOM     16  C   UNL     1      34.475 -19.907 -21.480  0.00  0.00    +0.001 C 
ATOM     17  C   UNL     1      37.134 -19.792 -20.644  0.00  0.00    +0.011 C 
ATOM     18  C   UNL     1      34.947 -20.813 -20.531  0.00  0.00    +0.011 C 
ATOM     19  C   UNL     1      36.277 -20.756 -20.112  0.00  0.00    +0.058 C 
ENDBRANCH  10  14
ENDBRANCH   2   6
BRANCH   2  22
ATOM     20  F   UNL     1      34.357 -10.893 -24.000  0.00  0.00    -0.203 F 
ATOM     21  F   UNL     1      31.730 -13.612 -21.132  0.00  0.00    -0.204 F 
ATOM     22  C   UNL     1      33.066 -12.277 -22.571  0.00  0.00    +0.095 C 
ATOM     23  C   UNL     1      32.368 -10.016 -23.059  0.00  0.00    +0.092 C 
ATOM     24  C   UNL     1      33.278 -11.060 -23.220  0.00  0.00    +0.160 C 
ATOM     25  C   UNL     1      31.944 -12.448 -21.761  0.00  0.00    +0.145 C 
ATOM     26  C   UNL     1      31.245 -10.188 -22.249  0.00  0.00    +0.020 C 
ATOM     27  C   UNL     1      31.033 -11.404 -21.600  0.00  0.00    +0.031 C 
BRANCH  23  28
ATOM     28  N   UNL     1      32.582  -8.770 -23.722  0.00  0.00    -0.217 N 
ATOM     29  H   UNL     1      32.160  -8.581 -24.592  0.00  0.00    +0.173 HD
BRANCH  28  30
ATOM     30  S   UNL     1      33.597  -7.606 -22.960  0.00  0.00    +0.054 S 
ATOM     31  O   UNL     1      33.031  -7.284 -21.662  0.00  0.00    -0.154 OA
ATOM     32  O   UNL     1      34.993  -7.976 -23.082  0.00  0.00    -0.154 OA
BRANCH  30  33
ATOM     33  C   UNL     1      33.310  -6.202 -24.011  0.00  0.00    +0.172 C 
BRANCH  33  34
ATOM     34  C   UNL     1      34.546  -5.858 -24.827  0.00  0.00    +0.027 C 
ATOM     35  C   UNL     1      34.209  -4.934 -25.984  0.00  0.00    +0.002 C 
ENDBRANCH  33  34
ENDBRANCH  30  33
ENDBRANCH  28  30
ENDBRANCH  23  28
ENDBRANCH   2  22
TORSDOF 7
ENDMDL
MODEL 5
REMARK VINA RESULT:     -11.0      3.908      6.686
REMARK  Name = 42611257
REMARK  7 active torsions:
REMARK  status: ('A' for Active; 'I' for Inactive)
REMARK    1  A    between atoms: C_2  and  C_6
REMARK    2  A    between atoms: C_2  and  C_22
REMARK    3  A    between atoms: C_10  and  C_14
REMARK    4  A    between atoms: C_23  and  N_28
REMARK    5  A    between atoms: N_28  and  S_30
REMARK    6  A    between atoms: S_30  and  C_33
REMARK    7  A    between atoms: C_33  and  C_34
REMARK                            x       y       z     vdW  Elec       q    Type
REMARK                         _______ _______ _______ _____ _____    ______ ____
ROOT
ATOM      1  O   UNL     1      36.407 -18.099 -21.584  0.00  0.00    -0.286 OA
ATOM      2  C   UNL     1      35.561 -18.922 -21.994  0.00  0.00    +0.201 C 
ENDROOT
BRANCH   2   6
ATOM      3  N   UNL     1      34.305 -19.407 -25.341  0.00  0.00    -0.297 N 
ATOM      4  N   UNL     1      33.534 -17.287 -26.185  0.00  0.00    -0.229 NA
ATOM      5  C   UNL     1      34.507 -17.659 -23.966  0.00  0.00    +0.036 C 
ATOM      6  C   UNL     1      35.005 -18.817 -23.313  0.00  0.00    +0.056 C 
ATOM      7  C   UNL     1      34.078 -18.061 -25.228  0.00  0.00    +0.132 C 
ATOM      8  C   UNL     1      34.365 -16.300 -23.637  0.00  0.00    +0.004 C 
ATOM      9  C   UNL     1      34.868 -19.877 -24.183  0.00  0.00    +0.066 C 
ATOM     10  C   UNL     1      33.808 -15.455 -24.594  0.00  0.00    +0.019 C 
ATOM     11  C   UNL     1      33.421 -15.991 -25.816  0.00  0.00    +0.100 C 
ATOM     12  H   UNL     1      34.094 -19.953 -26.133  0.00  0.00    +0.154 HD
BRANCH  10  14
ATOM     13 CL   UNL     1      33.098  -9.652 -23.456  0.00  0.00    -0.082 Cl
ATOM     14  C   UNL     1      33.634 -14.047 -24.318  0.00  0.00    +0.002 C 
ATOM     15  C   UNL     1      33.238 -13.629 -23.047  0.00  0.00    +0.001 C 
ATOM     16  C   UNL     1      33.863 -13.107 -25.322  0.00  0.00    +0.001 C 
ATOM     17  C   UNL     1      33.073 -12.269 -22.781  0.00  0.00    +0.011 C 
ATOM     18  C   UNL     1      33.697 -11.748 -25.056  0.00  0.00    +0.011 C 
ATOM     19  C   UNL     1      33.302 -11.329 -23.785  0.00  0.00    +0.058 C 
ENDBRANCH  10  14
ENDBRANCH   2   6
BRANCH   2  22
ATOM     20  F   UNL     1      37.442 -20.285 -20.391  0.00  0.00    -0.203 F 
ATOM     21  F   UNL     1      32.887 -19.777 -21.619  0.00  0.00    -0.204 F 
ATOM     22  C   UNL     1      35.175 -20.007 -21.026  0.00  0.00    +0.095 C 
ATOM     23  C   UNL     1      35.799 -21.648 -19.365  0.00  0.00    +0.092 C 
ATOM     24  C   UNL     1      36.155 -20.641 -20.263  0.00  0.00    +0.160 C 
ATOM     25  C   UNL     1      33.837 -20.380 -20.891  0.00  0.00    +0.145 C 
ATOM     26  C   UNL     1      34.460 -22.019 -19.230  0.00  0.00    +0.020 C 
ATOM     27  C   UNL     1      33.480 -21.385 -19.993  0.00  0.00    +0.031 C 
BRANCH  23  28
ATOM     28  N   UNL     1      36.800 -22.298 -18.582  0.00  0.00    -0.217 N 
ATOM     29  H   UNL     1      37.442 -22.919 -18.997  0.00  0.00    +0.173 HD
BRANCH  28  30
ATOM     30  S   UNL     1      36.854 -21.966 -16.893  0.00  0.00    +0.054 S 
ATOM     31  O   UNL     1      37.452 -20.657 -16.702  0.00  0.00    -0.154 OA
ATOM     32  O   UNL     1      35.596 -22.301 -16.258  0.00  0.00    -0.154 OA
BRANCH  30  33
ATOM     33  C   UNL     1      38.062 -23.164 -16.377  0.00  0.00    +0.172 C 
BRANCH  33  34
ATOM     34  C   UNL     1      37.660 -23.828 -15.070  0.00  0.00    +0.027 C 
ATOM     35  C   UNL     1      38.596 -24.972 -14.716  0.00  0.00    +0.002 C 
ENDBRANCH  33  34
ENDBRANCH  30  33
ENDBRANCH  28  30
ENDBRANCH  23  28
ENDBRANCH   2  22
TORSDOF 7
ENDMDL
MODEL 6
REMARK VINA RESULT:     -10.6      4.799     10.165
REMARK  Name = 42611257
REMARK  7 active torsions:
REMARK  status: ('A' for Active; 'I' for Inactive)
REMARK    1  A    between atoms: C_2  and  C_6
REMARK    2  A    between atoms: C_2  and  C_22
REMARK    3  A    between atoms: C_10  and  C_14
REMARK    4  A    between atoms: C_23  and  N_28
REMARK    5  A    between atoms: N_28  and  S_30
REMARK    6  A    between atoms: S_30  and  C_33
REMARK    7  A    between atoms: C_33  and  C_34
REMARK                            x       y       z     vdW  Elec       q    Type
REMARK                         _______ _______ _______ _____ _____    ______ ____
ROOT
ATOM      1  O   UNL     1      32.786 -13.154 -22.178  0.00  0.00    -0.286 OA
ATOM      2  C   UNL     1      33.119 -12.737 -23.308  0.00  0.00    +0.201 C 
ENDROOT
BRANCH   2   6
ATOM      3  N   UNL     1      33.221 -14.418 -26.498  0.00  0.00    -0.297 N 
ATOM      4  N   UNL     1      34.070 -16.647 -26.164  0.00  0.00    -0.229 NA
ATOM      5  C   UNL     1      33.748 -14.974 -24.401  0.00  0.00    +0.036 C 
ATOM      6  C   UNL     1      33.268 -13.638 -24.415  0.00  0.00    +0.056 C 
ATOM      7  C   UNL     1      33.705 -15.431 -25.715  0.00  0.00    +0.132 C 
ATOM      8  C   UNL     1      34.219 -15.864 -23.421  0.00  0.00    +0.004 C 
ATOM      9  C   UNL     1      32.951 -13.323 -25.719  0.00  0.00    +0.066 C 
ATOM     10  C   UNL     1      34.609 -17.137 -23.833  0.00  0.00    +0.019 C 
ATOM     11  C   UNL     1      34.515 -17.462 -25.180  0.00  0.00    +0.100 C 
ATOM     12  H   UNL     1      33.087 -14.468 -27.472  0.00  0.00    +0.154 HD
BRANCH  10  14
ATOM     13 CL   UNL     1      36.653 -21.104 -19.888  0.00  0.00    -0.082 Cl
ATOM     14  C   UNL     1      35.103 -18.099 -22.875  0.00  0.00    +0.002 C 
ATOM     15  C   UNL     1      34.296 -19.163 -22.473  0.00  0.00    +0.001 C 
ATOM     16  C   UNL     1      36.390 -17.963 -22.352  0.00  0.00    +0.001 C 
ATOM     17  C   UNL     1      34.775 -20.093 -21.550  0.00  0.00    +0.011 C 
ATOM     18  C   UNL     1      36.868 -18.892 -21.428  0.00  0.00    +0.011 C 
ATOM     19  C   UNL     1      36.062 -19.957 -21.027  0.00  0.00    +0.058 C 
ENDBRANCH  10  14
ENDBRANCH   2   6
BRANCH   2  22
ATOM     20  F   UNL     1      31.470 -10.831 -22.038  0.00  0.00    -0.203 F 
ATOM     21  F   UNL     1      35.240 -11.612 -24.812  0.00  0.00    -0.204 F 
ATOM     22  C   UNL     1      33.349 -11.254 -23.421  0.00  0.00    +0.095 C 
ATOM     23  C   UNL     1      32.706  -8.990 -22.872  0.00  0.00    +0.092 C 
ATOM     24  C   UNL     1      32.495 -10.365 -22.767  0.00  0.00    +0.160 C 
ATOM     25  C   UNL     1      34.414 -10.767 -24.179  0.00  0.00    +0.145 C 
ATOM     26  C   UNL     1      33.772  -8.504 -23.630  0.00  0.00    +0.020 C 
ATOM     27  C   UNL     1      34.625  -9.393 -24.283  0.00  0.00    +0.031 C 
BRANCH  23  28
ATOM     28  N   UNL     1      31.834  -8.078 -22.204  0.00  0.00    -0.217 N 
ATOM     29  H   UNL     1      31.568  -8.227 -21.267  0.00  0.00    +0.173 HD
BRANCH  28  30
ATOM     30  S   UNL     1      31.262  -6.711 -23.080  0.00  0.00    +0.054 S 
ATOM     31  O   UNL     1      30.836  -7.155 -24.395  0.00  0.00    -0.154 OA
ATOM     32  O   UNL     1      30.389  -5.897 -22.259  0.00  0.00    -0.154 OA
BRANCH  30  33
ATOM     33  C   UNL     1      32.786  -5.822 -23.305  0.00  0.00    +0.172 C 
BRANCH  33  34
ATOM     34  C   UNL     1      32.690  -4.843 -24.463  0.00  0.00    +0.027 C 
ATOM     35  C   UNL     1      33.575  -5.265 -25.624  0.00  0.00    +0.002 C 
ENDBRANCH  33  34
ENDBRANCH  30  33
ENDBRANCH  28  30
ENDBRANCH  23  28
ENDBRANCH   2  22
TORSDOF 7
ENDMDL
MODEL 7
REMARK VINA RESULT:     -10.4      7.396     10.792
REMARK  Name = 42611257
REMARK  7 active torsions:
REMARK  status: ('A' for Active; 'I' for Inactive)
REMARK    1  A    between atoms: C_2  and  C_6
REMARK    2  A    between atoms: C_2  and  C_22
REMARK    3  A    between atoms: C_10  and  C_14
REMARK    4  A    between atoms: C_23  and  N_28
REMARK    5  A    between atoms: N_28  and  S_30
REMARK    6  A    between atoms: S_30  and  C_33
REMARK    7  A    between atoms: C_33  and  C_34
REMARK                            x       y       z     vdW  Elec       q    Type
REMARK                         _______ _______ _______ _____ _____    ______ ____
ROOT
ATOM      1  O   UNL     1      33.227 -22.998 -19.770  0.00  0.00    -0.286 OA
ATOM      2  C   UNL     1      33.872 -22.715 -18.738  0.00  0.00    +0.201 C 
ENDROOT
BRANCH   2   6
ATOM      3  N   UNL     1      37.222 -21.439 -18.334  0.00  0.00    -0.297 N 
ATOM      4  N   UNL     1      37.619 -19.775 -20.029  0.00  0.00    -0.229 NA
ATOM      5  C   UNL     1      35.536 -21.036 -19.742  0.00  0.00    +0.036 C 
ATOM      6  C   UNL     1      35.133 -22.035 -18.816  0.00  0.00    +0.056 C 
ATOM      7  C   UNL     1      36.843 -20.686 -19.413  0.00  0.00    +0.132 C 
ATOM      8  C   UNL     1      34.945 -20.377 -20.832  0.00  0.00    +0.004 C 
ATOM      9  C   UNL     1      36.191 -22.262 -17.962  0.00  0.00    +0.066 C 
ATOM     10  C   UNL     1      35.706 -19.422 -21.505  0.00  0.00    +0.019 C 
ATOM     11  C   UNL     1      37.000 -19.172 -21.070  0.00  0.00    +0.100 C 
ATOM     12  H   UNL     1      38.101 -21.395 -17.892  0.00  0.00    +0.154 HD
BRANCH  10  14
ATOM     13 CL   UNL     1      33.435 -16.481 -26.160  0.00  0.00    -0.082 Cl
ATOM     14  C   UNL     1      35.156 -18.710 -22.635  0.00  0.00    +0.002 C 
ATOM     15  C   UNL     1      34.442 -19.399 -23.616  0.00  0.00    +0.001 C 
ATOM     16  C   UNL     1      35.337 -17.331 -22.745  0.00  0.00    +0.001 C 
ATOM     17  C   UNL     1      33.910 -18.710 -24.706  0.00  0.00    +0.011 C 
ATOM     18  C   UNL     1      34.806 -16.642 -23.835  0.00  0.00    +0.011 C 
ATOM     19  C   UNL     1      34.092 -17.331 -24.815  0.00  0.00    +0.058 C 
ENDBRANCH  10  14
ENDBRANCH   2   6
BRANCH   2  22
ATOM     20  F   UNL     1      35.232 -24.263 -16.809  0.00  0.00    -0.203 F 
ATOM     21  F   UNL     1      31.226 -22.018 -18.005  0.00  0.00    -0.204 F 
ATOM     22  C   UNL     1      33.245 -23.132 -17.435  0.00  0.00    +0.095 C 
ATOM     23  C   UNL     1      33.392 -24.286 -15.317  0.00  0.00    +0.092 C 
ATOM     24  C   UNL     1      33.973 -23.898 -16.525  0.00  0.00    +0.160 C 
ATOM     25  C   UNL     1      31.935 -22.754 -17.138  0.00  0.00    +0.145 C 
ATOM     26  C   UNL     1      32.082 -23.907 -15.020  0.00  0.00    +0.020 C 
ATOM     27  C   UNL     1      31.355 -23.141 -15.931  0.00  0.00    +0.031 C 
BRANCH  23  28
ATOM     28  N   UNL     1      34.135 -25.069 -14.383  0.00  0.00    -0.217 N 
ATOM     29  H   UNL     1      34.028 -26.048 -14.346  0.00  0.00    +0.173 HD
BRANCH  28  30
ATOM     30  S   UNL     1      35.223 -24.256 -13.324  0.00  0.00    +0.054 S 
ATOM     31  O   UNL     1      35.756 -23.096 -14.017  0.00  0.00    -0.154 OA
ATOM     32  O   UNL     1      34.655 -24.126 -11.998  0.00  0.00    -0.154 OA
BRANCH  30  33
ATOM     33  C   UNL     1      36.534 -25.454 -13.242  0.00  0.00    +0.172 C 
BRANCH  33  34
ATOM     34  C   UNL     1      37.286 -25.545 -14.560  0.00  0.00    +0.027 C 
ATOM     35  C   UNL     1      37.181 -26.934 -15.166  0.00  0.00    +0.002 C 
ENDBRANCH  33  34
ENDBRANCH  30  33
ENDBRANCH  28  30
ENDBRANCH  23  28
ENDBRANCH   2  22
TORSDOF 7
ENDMDL
MODEL 8
REMARK VINA RESULT:     -10.4      7.514     13.665
REMARK  Name = 42611257
REMARK  7 active torsions:
REMARK  status: ('A' for Active; 'I' for Inactive)
REMARK    1  A    between atoms: C_2  and  C_6
REMARK    2  A    between atoms: C_2  and  C_22
REMARK    3  A    between atoms: C_10  and  C_14
REMARK    4  A    between atoms: C_23  and  N_28
REMARK    5  A    between atoms: N_28  and  S_30
REMARK    6  A    between atoms: S_30  and  C_33
REMARK    7  A    between atoms: C_33  and  C_34
REMARK                            x       y       z     vdW  Elec       q    Type
REMARK                         _______ _______ _______ _____ _____    ______ ____
ROOT
ATOM      1  O   UNL     1      33.829 -24.073 -19.835  0.00  0.00    -0.286 OA
ATOM      2  C   UNL     1      33.984 -23.106 -19.057  0.00  0.00    +0.201 C 
ENDROOT
BRANCH   2   6
ATOM      3  N   UNL     1      32.105 -22.941 -15.982  0.00  0.00    -0.297 N 
ATOM      4  N   UNL     1      33.497 -23.744 -14.188  0.00  0.00    -0.229 NA
ATOM      5  C   UNL     1      34.166 -23.593 -16.542  0.00  0.00    +0.036 C 
ATOM      6  C   UNL     1      33.490 -23.153 -17.711  0.00  0.00    +0.056 C 
ATOM      7  C   UNL     1      33.275 -23.448 -15.483  0.00  0.00    +0.132 C 
ATOM      8  C   UNL     1      35.442 -24.102 -16.249  0.00  0.00    +0.004 C 
ATOM      9  C   UNL     1      32.224 -22.758 -17.336  0.00  0.00    +0.066 C 
ATOM     10  C   UNL     1      35.724 -24.425 -14.923  0.00  0.00    +0.019 C 
ATOM     11  C   UNL     1      34.739 -24.230 -13.964  0.00  0.00    +0.100 C 
ATOM     12  H   UNL     1      31.301 -22.740 -15.451  0.00  0.00    +0.154 HD
BRANCH  10  14
ATOM     13 CL   UNL     1      41.056 -26.610 -13.417  0.00  0.00    -0.082 Cl
ATOM     14  C   UNL     1      37.017 -24.954 -14.556  0.00  0.00    +0.002 C 
ATOM     15  C   UNL     1      37.137 -25.811 -13.462  0.00  0.00    +0.001 C 
ATOM     16  C   UNL     1      38.147 -24.609 -15.298  0.00  0.00    +0.001 C 
ATOM     17  C   UNL     1      38.386 -26.323 -13.110  0.00  0.00    +0.011 C 
ATOM     18  C   UNL     1      39.396 -25.120 -14.946  0.00  0.00    +0.011 C 
ATOM     19  C   UNL     1      39.515 -25.978 -13.852  0.00  0.00    +0.058 C 
ENDBRANCH  10  14
ENDBRANCH   2   6
BRANCH   2  22
ATOM     20  F   UNL     1      32.756 -21.251 -20.795  0.00  0.00    -0.203 F 
ATOM     21  F   UNL     1      36.696 -22.529 -18.478  0.00  0.00    -0.204 F 
ATOM     22  C   UNL     1      34.708 -21.916 -19.624  0.00  0.00    +0.095 C 
ATOM     23  C   UNL     1      34.713 -19.933 -21.006  0.00  0.00    +0.092 C 
ATOM     24  C   UNL     1      34.042 -21.037 -20.479  0.00  0.00    +0.160 C 
ATOM     25  C   UNL     1      36.046 -21.691 -19.297  0.00  0.00    +0.145 C 
ATOM     26  C   UNL     1      36.051 -19.708 -20.677  0.00  0.00    +0.020 C 
ATOM     27  C   UNL     1      36.716 -20.587 -19.823  0.00  0.00    +0.031 C 
BRANCH  23  28
ATOM     28  N   UNL     1      34.034 -19.031 -21.880  0.00  0.00    -0.217 N 
ATOM     29  H   UNL     1      33.309 -18.454 -21.547  0.00  0.00    +0.173 HD
BRANCH  28  30
ATOM     30  S   UNL     1      34.519 -18.981 -23.531  0.00  0.00    +0.054 S 
ATOM     31  O   UNL     1      35.311 -20.164 -23.813  0.00  0.00    -0.154 OA
ATOM     32  O   UNL     1      33.407 -18.618 -24.387  0.00  0.00    -0.154 OA
BRANCH  30  33
ATOM     33  C   UNL     1      35.644 -17.605 -23.486  0.00  0.00    +0.172 C 
BRANCH  33  34
ATOM     34  C   UNL     1      35.180 -16.541 -22.505  0.00  0.00    +0.027 C 
ATOM     35  C   UNL     1      34.559 -15.355 -23.223  0.00  0.00    +0.002 C 
ENDBRANCH  33  34
ENDBRANCH  30  33
ENDBRANCH  28  30
ENDBRANCH  23  28
ENDBRANCH   2  22
TORSDOF 7
ENDMDL
MODEL 9
REMARK VINA RESULT:     -10.3      8.050     13.666
REMARK  Name = 42611257
REMARK  7 active torsions:
REMARK  status: ('A' for Active; 'I' for Inactive)
REMARK    1  A    between atoms: C_2  and  C_6
REMARK    2  A    between atoms: C_2  and  C_22
REMARK    3  A    between atoms: C_10  and  C_14
REMARK    4  A    between atoms: C_23  and  N_28
REMARK    5  A    between atoms: N_28  and  S_30
REMARK    6  A    between atoms: S_30  and  C_33
REMARK    7  A    between atoms: C_33  and  C_34
REMARK                            x       y       z     vdW  Elec       q    Type
REMARK                         _______ _______ _______ _____ _____    ______ ____
ROOT
ATOM      1  O   UNL     1      33.807 -24.000 -19.836  0.00  0.00    -0.286 OA
ATOM      2  C   UNL     1      34.027 -23.082 -19.017  0.00  0.00    +0.201 C 
ENDROOT
BRANCH   2   6
ATOM      3  N   UNL     1      32.120 -22.971 -15.956  0.00  0.00    -0.297 N 
ATOM      4  N   UNL     1      33.499 -23.796 -14.163  0.00  0.00    -0.229 NA
ATOM      5  C   UNL     1      34.189 -23.607 -16.508  0.00  0.00    +0.036 C 
ATOM      6  C   UNL     1      33.521 -23.152 -17.675  0.00  0.00    +0.056 C 
ATOM      7  C   UNL     1      33.288 -23.481 -15.454  0.00  0.00    +0.132 C 
ATOM      8  C   UNL     1      35.464 -24.116 -16.211  0.00  0.00    +0.004 C 
ATOM      9  C   UNL     1      32.250 -22.767 -17.306  0.00  0.00    +0.066 C 
ATOM     10  C   UNL     1      35.735 -24.458 -14.888  0.00  0.00    +0.019 C 
ATOM     11  C   UNL     1      34.741 -24.281 -13.934  0.00  0.00    +0.100 C 
ATOM     12  H   UNL     1      31.310 -22.781 -15.429  0.00  0.00    +0.154 HD
BRANCH  10  14
ATOM     13 CL   UNL     1      41.061 -26.640 -13.355  0.00  0.00    -0.082 Cl
ATOM     14  C   UNL     1      37.027 -24.988 -14.518  0.00  0.00    +0.002 C 
ATOM     15  C   UNL     1      38.156 -24.671 -15.274  0.00  0.00    +0.001 C 
ATOM     16  C   UNL     1      37.146 -25.817 -13.401  0.00  0.00    +0.001 C 
ATOM     17  C   UNL     1      39.403 -25.182 -14.915  0.00  0.00    +0.011 C 
ATOM     18  C   UNL     1      38.393 -26.328 -13.042  0.00  0.00    +0.011 C 
ATOM     19  C   UNL     1      39.522 -26.010 -13.799  0.00  0.00    +0.058 C 
ENDBRANCH  10  14
ENDBRANCH   2   6
BRANCH   2  22
ATOM     20  F   UNL     1      32.998 -21.162 -20.812  0.00  0.00    -0.203 F 
ATOM     21  F   UNL     1      36.721 -22.636 -18.265  0.00  0.00    -0.204 F 
ATOM     22  C   UNL     1      34.840 -21.924 -19.528  0.00  0.00    +0.095 C 
ATOM     23  C   UNL     1      35.024 -19.937 -20.890  0.00  0.00    +0.092 C 
ATOM     24  C   UNL     1      34.270 -21.010 -20.415  0.00  0.00    +0.160 C 
ATOM     25  C   UNL     1      36.163 -21.764 -19.117  0.00  0.00    +0.145 C 
ATOM     26  C   UNL     1      36.347 -19.777 -20.477  0.00  0.00    +0.020 C 
ATOM     27  C   UNL     1      36.916 -20.691 -19.591  0.00  0.00    +0.031 C 
BRANCH  23  28
ATOM     28  N   UNL     1      34.443 -19.000 -21.797  0.00  0.00    -0.217 N 
ATOM     29  H   UNL     1      33.480 -19.023 -22.001  0.00  0.00    +0.173 HD
BRANCH  28  30
ATOM     30  S   UNL     1      35.474 -17.828 -22.525  0.00  0.00    +0.054 S 
ATOM     31  O   UNL     1      35.318 -16.573 -21.811  0.00  0.00    -0.154 OA
ATOM     32  O   UNL     1      36.792 -18.377 -22.769  0.00  0.00    -0.154 OA
BRANCH  30  33
ATOM     33  C   UNL     1      34.665 -17.631 -24.096  0.00  0.00    +0.172 C 
BRANCH  33  34
ATOM     34  C   UNL     1      34.235 -18.971 -24.670  0.00  0.00    +0.027 C 
ATOM     35  C   UNL     1      33.090 -18.812 -25.656  0.00  0.00    +0.002 C 
ENDBRANCH  33  34
ENDBRANCH  30  33
ENDBRANCH  28  30
ENDBRANCH  23  28
ENDBRANCH   2  22
TORSDOF 7
ENDMDL
