MODEL 1
REMARK VINA RESULT:     -12.2      0.000      0.000
REMARK  Name = 5326868
REMARK  6 active torsions:
REMARK  status: ('A' for Active; 'I' for Inactive)
REMARK    1  A    between atoms: C_2  and  C_28
REMARK    2  A    between atoms: C_7  and  N_12
REMARK    3  A    between atoms: C_13  and  C_18
REMARK    4  A    between atoms: C_16  and  N_23
REMARK    5  A    between atoms: C_28  and  C_29
REMARK    6  A    between atoms: C_29  and  C_31
REMARK                            x       y       z     vdW  Elec       q    Type
REMARK                         _______ _______ _______ _____ _____    ______ ____
ROOT
ATOM      1  N   UNL     1      34.415 -17.525 -25.426  0.00  0.00    -0.312 N 
ATOM      2  C   UNL     1      35.048 -17.255 -23.316  0.00  0.00    -0.006 C 
ATOM      3  C   UNL     1      34.429 -16.050 -23.753  0.00  0.00    +0.012 C 
ATOM      4  C   UNL     1      34.042 -16.246 -25.080  0.00  0.00    +0.048 C 
ATOM      5  C   UNL     1      35.023 -18.142 -24.367  0.00  0.00    +0.058 C 
ATOM      6  C   UNL     1      34.163 -14.806 -23.145  0.00  0.00    +0.016 C 
ATOM      7  C   UNL     1      33.519 -13.809 -23.885  0.00  0.00    +0.051 C 
ATOM      8  C   UNL     1      33.398 -15.257 -25.833  0.00  0.00    +0.016 C 
ATOM      9  C   UNL     1      33.142 -14.032 -25.208  0.00  0.00    +0.016 C 
ATOM     10  H   UNL     1      34.265 -17.936 -26.308  0.00  0.00    +0.152 HD
ENDROOT
BRANCH   7  12
ATOM     11  O   UNL     1      31.585 -13.085 -21.711  0.00  0.00    -0.270 OA
ATOM     12  N   UNL     1      33.251 -12.574 -23.290  0.00  0.00    -0.280 N 
ATOM     13  C   UNL     1      32.332 -12.290 -22.272  0.00  0.00    +0.250 C 
ATOM     14  H   UNL     1      33.771 -11.810 -23.628  0.00  0.00    +0.155 HD
BRANCH  13  18
ATOM     15  F   UNL     1      31.399  -8.897 -18.955  0.00  0.00    -0.204 F 
ATOM     16  C   UNL     1      32.517  -8.550 -22.400  0.00  0.00    +0.050 C 
ATOM     17  C   UNL     1      32.588  -9.889 -22.784  0.00  0.00    +0.019 C 
ATOM     18  C   UNL     1      32.255 -10.862 -21.865  0.00  0.00    +0.057 C 
ATOM     19  C   UNL     1      32.115  -8.215 -21.107  0.00  0.00    +0.044 C 
ATOM     20  C   UNL     1      31.855 -10.558 -20.580  0.00  0.00    +0.034 C 
ATOM     21  C   UNL     1      31.784  -9.219 -20.197  0.00  0.00    +0.142 C 
BRANCH  16  23
ATOM     22  O   UNL     1      33.530  -5.716 -25.337  0.00  0.00    -0.350 OA
ATOM     23  N   UNL     1      32.850  -7.542 -23.311  0.00  0.00    -0.303 N 
ATOM     24  C   UNL     1      31.803  -6.924 -24.133  0.00  0.00    +0.123 C 
ATOM     25  C   UNL     1      34.187  -7.572 -23.920  0.00  0.00    +0.123 C 
ATOM     26  C   UNL     1      32.286  -5.574 -24.652  0.00  0.00    +0.164 C 
ATOM     27  C   UNL     1      34.543  -6.187 -24.447  0.00  0.00    +0.164 C 
ENDBRANCH  16  23
ENDBRANCH  13  18
ENDBRANCH   7  12
BRANCH   2  28
ATOM     28  C   UNL     1      35.616 -17.516 -21.978  0.00  0.00    +0.032 C 
BRANCH  28  29
ATOM     29  C   UNL     1      36.357 -18.865 -21.849  0.00  0.00    +0.031 C 
BRANCH  29  31
ATOM     30  N   UNL     1      34.179 -21.780 -19.583  0.00  0.00    -0.242 NA
ATOM     31  C   UNL     1      35.590 -19.891 -21.051  0.00  0.00    -0.019 C 
ATOM     32  C   UNL     1      34.212 -19.927 -21.137  0.00  0.00    +0.016 C 
ATOM     33  C   UNL     1      36.277 -20.778 -20.246  0.00  0.00    +0.016 C 
ATOM     34  C   UNL     1      33.555 -20.888 -20.386  0.00  0.00    +0.099 C 
ATOM     35  C   UNL     1      35.528 -21.702 -19.534  0.00  0.00    +0.099 C 
ENDBRANCH  29  31
ENDBRANCH  28  29
ENDBRANCH   2  28
TORSDOF 6
ENDMDL
MODEL 2
REMARK VINA RESULT:     -11.7      4.537      8.732
REMARK  Name = 5326868
REMARK  6 active torsions:
REMARK  status: ('A' for Active; 'I' for Inactive)
REMARK    1  A    between atoms: C_2  and  C_28
REMARK    2  A    between atoms: C_7  and  N_12
REMARK    3  A    between atoms: C_13  and  C_18
REMARK    4  A    between atoms: C_16  and  N_23
REMARK    5  A    between atoms: C_28  and  C_29
REMARK    6  A    between atoms: C_29  and  C_31
REMARK                            x       y       z     vdW  Elec       q    Type
REMARK                         _______ _______ _______ _____ _____    ______ ____
ROOT
ATOM      1  N   UNL     1      35.792 -23.145 -16.687  0.00  0.00    -0.312 N 
ATOM      2  C   UNL     1      33.718 -23.198 -17.480  0.00  0.00    -0.006 C 
ATOM      3  C   UNL     1      34.508 -22.396 -18.351  0.00  0.00    +0.012 C 
ATOM      4  C   UNL     1      35.803 -22.379 -17.831  0.00  0.00    +0.048 C 
ATOM      5  C   UNL     1      34.536 -23.644 -16.467  0.00  0.00    +0.058 C 
ATOM      6  C   UNL     1      34.242 -21.679 -19.535  0.00  0.00    +0.016 C 
ATOM      7  C   UNL     1      35.281 -20.976 -20.154  0.00  0.00    +0.051 C 
ATOM      8  C   UNL     1      36.852 -21.679 -18.439  0.00  0.00    +0.016 C 
ATOM      9  C   UNL     1      36.566 -20.977 -19.614  0.00  0.00    +0.016 C 
ATOM     10  H   UNL     1      36.572 -23.310 -16.112  0.00  0.00    +0.152 HD
ENDROOT
BRANCH   7  12
ATOM     11  O   UNL     1      35.837 -18.110 -20.839  0.00  0.00    -0.270 OA
ATOM     12  N   UNL     1      35.027 -20.263 -21.328  0.00  0.00    -0.280 N 
ATOM     13  C   UNL     1      35.308 -18.917 -21.596  0.00  0.00    +0.250 C 
ATOM     14  H   UNL     1      34.596 -20.767 -22.055  0.00  0.00    +0.155 HD
BRANCH  13  18
ATOM     15  F   UNL     1      34.244 -19.764 -26.237  0.00  0.00    -0.204 F 
ATOM     16  C   UNL     1      34.239 -16.639 -24.372  0.00  0.00    +0.050 C 
ATOM     17  C   UNL     1      34.633 -17.091 -23.112  0.00  0.00    +0.019 C 
ATOM     18  C   UNL     1      34.889 -18.435 -22.938  0.00  0.00    +0.057 C 
ATOM     19  C   UNL     1      34.107 -17.542 -25.427  0.00  0.00    +0.044 C 
ATOM     20  C   UNL     1      34.766 -19.348 -23.964  0.00  0.00    +0.034 C 
ATOM     21  C   UNL     1      34.372 -18.897 -25.223  0.00  0.00    +0.142 C 
BRANCH  16  23
ATOM     22  O   UNL     1      33.170 -12.614 -24.955  0.00  0.00    -0.350 OA
ATOM     23  N   UNL     1      33.973 -15.281 -24.577  0.00  0.00    -0.303 N 
ATOM     24  C   UNL     1      33.818 -14.385 -23.426  0.00  0.00    +0.123 C 
ATOM     25  C   UNL     1      33.216 -14.896 -25.776  0.00  0.00    +0.123 C 
ATOM     26  C   UNL     1      34.033 -12.941 -23.866  0.00  0.00    +0.164 C 
ATOM     27  C   UNL     1      33.466 -13.426 -26.092  0.00  0.00    +0.164 C 
ENDBRANCH  16  23
ENDBRANCH  13  18
ENDBRANCH   7  12
BRANCH   2  28
ATOM     28  C   UNL     1      32.281 -23.502 -17.626  0.00  0.00    +0.032 C 
BRANCH  28  29
ATOM     29  C   UNL     1      31.364 -22.762 -16.628  0.00  0.00    +0.031 C 
BRANCH  29  31
ATOM     30  N   UNL     1      30.739 -24.926 -12.981  0.00  0.00    -0.242 NA
ATOM     31  C   UNL     1      31.144 -23.524 -15.344  0.00  0.00    -0.019 C 
ATOM     32  C   UNL     1      31.700 -23.053 -14.171  0.00  0.00    +0.016 C 
ATOM     33  C   UNL     1      30.390 -24.681 -15.361  0.00  0.00    +0.016 C 
ATOM     34  C   UNL     1      31.469 -23.788 -13.019  0.00  0.00    +0.099 C 
ATOM     35  C   UNL     1      30.217 -25.344 -14.156  0.00  0.00    +0.099 C 
ENDBRANCH  29  31
ENDBRANCH  28  29
ENDBRANCH   2  28
TORSDOF 6
ENDMDL
MODEL 3
REMARK VINA RESULT:     -11.3      4.877     12.075
REMARK  Name = 5326868
REMARK  6 active torsions:
REMARK  status: ('A' for Active; 'I' for Inactive)
REMARK    1  A    between atoms: C_2  and  C_28
REMARK    2  A    between atoms: C_7  and  N_12
REMARK    3  A    between atoms: C_13  and  C_18
REMARK    4  A    between atoms: C_16  and  N_23
REMARK    5  A    between atoms: C_28  and  C_29
REMARK    6  A    between atoms: C_29  and  C_31
REMARK                            x       y       z     vdW  Elec       q    Type
REMARK                         _______ _______ _______ _____ _____    ______ ____
ROOT
ATOM      1  N   UNL     1      35.019 -17.004 -24.608  0.00  0.00    -0.312 N 
ATOM      2  C   UNL     1      34.917 -16.030 -22.616  0.00  0.00    -0.006 C 
ATOM      3  C   UNL     1      34.916 -17.440 -22.423  0.00  0.00    +0.012 C 
ATOM      4  C   UNL     1      34.980 -18.027 -23.688  0.00  0.00    +0.048 C 
ATOM      5  C   UNL     1      34.981 -15.793 -23.970  0.00  0.00    +0.058 C 
ATOM      6  C   UNL     1      34.865 -18.276 -21.289  0.00  0.00    +0.016 C 
ATOM      7  C   UNL     1      34.881 -19.664 -21.463  0.00  0.00    +0.051 C 
ATOM      8  C   UNL     1      34.996 -19.414 -23.877  0.00  0.00    +0.016 C 
ATOM      9  C   UNL     1      34.946 -20.223 -22.738  0.00  0.00    +0.016 C 
ATOM     10  H   UNL     1      35.067 -17.125 -25.583  0.00  0.00    +0.152 HD
ENDROOT
BRANCH   7  12
ATOM     11  O   UNL     1      32.665 -21.410 -20.448  0.00  0.00    -0.270 OA
ATOM     12  N   UNL     1      34.830 -20.499 -20.344  0.00  0.00    -0.280 N 
ATOM     13  C   UNL     1      33.763 -21.297 -19.914  0.00  0.00    +0.250 C 
ATOM     14  H   UNL     1      35.643 -20.529 -19.791  0.00  0.00    +0.155 HD
BRANCH  13  18
ATOM     15  F   UNL     1      36.779 -23.117 -16.601  0.00  0.00    -0.204 F 
ATOM     16  C   UNL     1      33.150 -23.284 -16.797  0.00  0.00    +0.050 C 
ATOM     17  C   UNL     1      32.923 -22.570 -17.974  0.00  0.00    +0.019 C 
ATOM     18  C   UNL     1      34.004 -22.059 -18.660  0.00  0.00    +0.057 C 
ATOM     19  C   UNL     1      34.452 -23.469 -16.333  0.00  0.00    +0.044 C 
ATOM     20  C   UNL     1      35.301 -22.227 -18.223  0.00  0.00    +0.034 C 
ATOM     21  C   UNL     1      35.529 -22.940 -17.047  0.00  0.00    +0.142 C 
BRANCH  16  23
ATOM     22  O   UNL     1      29.921 -24.654 -14.477  0.00  0.00    -0.350 OA
ATOM     23  N   UNL     1      32.071 -23.813 -16.081  0.00  0.00    -0.303 N 
ATOM     24  C   UNL     1      30.705 -23.373 -16.384  0.00  0.00    +0.123 C 
ATOM     25  C   UNL     1      32.300 -24.230 -14.690  0.00  0.00    +0.123 C 
ATOM     26  C   UNL     1      29.706 -24.402 -15.865  0.00  0.00    +0.164 C 
ATOM     27  C   UNL     1      31.217 -25.215 -14.263  0.00  0.00    +0.164 C 
ENDBRANCH  16  23
ENDBRANCH  13  18
ENDBRANCH   7  12
BRANCH   2  28
ATOM     28  C   UNL     1      34.861 -14.998 -21.561  0.00  0.00    +0.032 C 
BRANCH  28  29
ATOM     29  C   UNL     1      33.436 -14.672 -21.059  0.00  0.00    +0.031 C 
BRANCH  29  31
ATOM     30  N   UNL     1      31.986 -10.881 -22.438  0.00  0.00    -0.242 NA
ATOM     31  C   UNL     1      32.926 -13.338 -21.544  0.00  0.00    -0.019 C 
ATOM     32  C   UNL     1      33.402 -12.820 -22.733  0.00  0.00    +0.016 C 
ATOM     33  C   UNL     1      31.991 -12.653 -20.792  0.00  0.00    +0.016 C 
ATOM     34  C   UNL     1      32.902 -11.592 -23.135  0.00  0.00    +0.099 C 
ATOM     35  C   UNL     1      31.554 -11.432 -21.281  0.00  0.00    +0.099 C 
ENDBRANCH  29  31
ENDBRANCH  28  29
ENDBRANCH   2  28
TORSDOF 6
ENDMDL
MODEL 4
REMARK VINA RESULT:     -11.1      3.083      5.769
REMARK  Name = 5326868
REMARK  6 active torsions:
REMARK  status: ('A' for Active; 'I' for Inactive)
REMARK    1  A    between atoms: C_2  and  C_28
REMARK    2  A    between atoms: C_7  and  N_12
REMARK    3  A    between atoms: C_13  and  C_18
REMARK    4  A    between atoms: C_16  and  N_23
REMARK    5  A    between atoms: C_28  and  C_29
REMARK    6  A    between atoms: C_29  and  C_31
REMARK                            x       y       z     vdW  Elec       q    Type
REMARK                         _______ _______ _______ _____ _____    ______ ____
ROOT
ATOM      1  N   UNL     1      37.158 -21.498 -19.764  0.00  0.00    -0.312 N 
ATOM      2  C   UNL     1      34.947 -21.299 -19.731  0.00  0.00    -0.006 C 
ATOM      3  C   UNL     1      35.477 -20.246 -20.529  0.00  0.00    +0.012 C 
ATOM      4  C   UNL     1      36.865 -20.394 -20.532  0.00  0.00    +0.048 C 
ATOM      5  C   UNL     1      36.005 -22.052 -19.276  0.00  0.00    +0.058 C 
ATOM      6  C   UNL     1      34.906 -19.177 -21.248  0.00  0.00    +0.016 C 
ATOM      7  C   UNL     1      35.744 -18.299 -21.945  0.00  0.00    +0.051 C 
ATOM      8  C   UNL     1      37.716 -19.523 -21.224  0.00  0.00    +0.016 C 
ATOM      9  C   UNL     1      37.127 -18.471 -21.932  0.00  0.00    +0.016 C 
ATOM     10  H   UNL     1      38.064 -21.839 -19.591  0.00  0.00    +0.152 HD
ENDROOT
BRANCH   7  12
ATOM     11  O   UNL     1      35.054 -15.518 -21.060  0.00  0.00    -0.270 OA
ATOM     12  N   UNL     1      35.186 -17.237 -22.660  0.00  0.00    -0.280 N 
ATOM     13  C   UNL     1      34.882 -15.951 -22.195  0.00  0.00    +0.250 C 
ATOM     14  H   UNL     1      34.981 -17.414 -23.606  0.00  0.00    +0.155 HD
BRANCH  13  18
ATOM     15  F   UNL     1      33.065 -15.148 -26.604  0.00  0.00    -0.204 F 
ATOM     16  C   UNL     1      33.437 -12.880 -23.783  0.00  0.00    +0.050 C 
ATOM     17  C   UNL     1      34.018 -13.732 -22.843  0.00  0.00    +0.019 C 
ATOM     18  C   UNL     1      34.265 -15.042 -23.197  0.00  0.00    +0.057 C 
ATOM     19  C   UNL     1      33.115 -13.359 -25.053  0.00  0.00    +0.044 C 
ATOM     20  C   UNL     1      33.956 -15.540 -24.445  0.00  0.00    +0.034 C 
ATOM     21  C   UNL     1      33.375 -14.689 -25.385  0.00  0.00    +0.142 C 
BRANCH  16  23
ATOM     22  O   UNL     1      32.800  -8.910 -22.554  0.00  0.00    -0.350 OA
ATOM     23  N   UNL     1      33.176 -11.547 -23.451  0.00  0.00    -0.303 N 
ATOM     24  C   UNL     1      34.152 -10.504 -23.787  0.00  0.00    +0.123 C 
ATOM     25  C   UNL     1      32.356 -11.276 -22.262  0.00  0.00    +0.123 C 
ATOM     26  C   UNL     1      33.467  -9.142 -23.794  0.00  0.00    +0.164 C 
ATOM     27  C   UNL     1      31.765  -9.873 -22.353  0.00  0.00    +0.164 C 
ENDBRANCH  16  23
ENDBRANCH  13  18
ENDBRANCH   7  12
BRANCH   2  28
ATOM     28  C   UNL     1      33.521 -21.549 -19.440  0.00  0.00    +0.032 C 
BRANCH  28  29
ATOM     29  C   UNL     1      33.199 -22.997 -19.009  0.00  0.00    +0.031 C 
BRANCH  29  31
ATOM     30  N   UNL     1      32.552 -23.401 -14.791  0.00  0.00    -0.242 NA
ATOM     31  C   UNL     1      32.971 -23.140 -17.525  0.00  0.00    -0.019 C 
ATOM     32  C   UNL     1      34.052 -23.335 -16.687  0.00  0.00    +0.016 C 
ATOM     33  C   UNL     1      31.685 -23.072 -17.024  0.00  0.00    +0.016 C 
ATOM     34  C   UNL     1      33.790 -23.460 -15.332  0.00  0.00    +0.099 C 
ATOM     35  C   UNL     1      31.529 -23.208 -15.654  0.00  0.00    +0.099 C 
ENDBRANCH  29  31
ENDBRANCH  28  29
ENDBRANCH   2  28
TORSDOF 6
ENDMDL
MODEL 5
REMARK VINA RESULT:     -10.9      6.336     10.707
REMARK  Name = 5326868
REMARK  6 active torsions:
REMARK  status: ('A' for Active; 'I' for Inactive)
REMARK    1  A    between atoms: C_2  and  C_28
REMARK    2  A    between atoms: C_7  and  N_12
REMARK    3  A    between atoms: C_13  and  C_18
REMARK    4  A    between atoms: C_16  and  N_23
REMARK    5  A    between atoms: C_28  and  C_29
REMARK    6  A    between atoms: C_29  and  C_31
REMARK                            x       y       z     vdW  Elec       q    Type
REMARK                         _______ _______ _______ _____ _____    ______ ____
ROOT
ATOM      1  N   UNL     1      33.574 -24.823 -14.722  0.00  0.00    -0.312 N 
ATOM      2  C   UNL     1      35.538 -23.819 -14.466  0.00  0.00    -0.006 C 
ATOM      3  C   UNL     1      34.994 -23.421 -15.720  0.00  0.00    +0.012 C 
ATOM      4  C   UNL     1      33.763 -24.066 -15.856  0.00  0.00    +0.048 C 
ATOM      5  C   UNL     1      34.642 -24.680 -13.876  0.00  0.00    +0.058 C 
ATOM      6  C   UNL     1      35.434 -22.574 -16.757  0.00  0.00    +0.016 C 
ATOM      7  C   UNL     1      34.627 -22.402 -17.886  0.00  0.00    +0.051 C 
ATOM      8  C   UNL     1      32.946 -23.904 -16.981  0.00  0.00    +0.016 C 
ATOM      9  C   UNL     1      33.402 -23.057 -17.995  0.00  0.00    +0.016 C 
ATOM     10  H   UNL     1      32.787 -25.386 -14.545  0.00  0.00    +0.152 HD
ENDROOT
BRANCH   7  12
ATOM     11  O   UNL     1      33.109 -21.241 -20.196  0.00  0.00    -0.270 OA
ATOM     12  N   UNL     1      35.056 -21.564 -18.918  0.00  0.00    -0.280 N 
ATOM     13  C   UNL     1      34.301 -21.048 -19.979  0.00  0.00    +0.250 C 
ATOM     14  H   UNL     1      36.005 -21.305 -18.898  0.00  0.00    +0.155 HD
BRANCH  13  18
ATOM     15  F   UNL     1      38.415 -18.981 -21.458  0.00  0.00    -0.204 F 
ATOM     16  C   UNL     1      35.085 -18.860 -22.917  0.00  0.00    +0.050 C 
ATOM     17  C   UNL     1      34.378 -19.654 -22.013  0.00  0.00    +0.019 C 
ATOM     18  C   UNL     1      35.052 -20.200 -20.942  0.00  0.00    +0.057 C 
ATOM     19  C   UNL     1      36.448 -18.633 -22.730  0.00  0.00    +0.044 C 
ATOM     20  C   UNL     1      36.400 -19.992 -20.734  0.00  0.00    +0.034 C 
ATOM     21  C   UNL     1      37.106 -19.199 -21.637  0.00  0.00    +0.142 C 
BRANCH  16  23
ATOM     22  O   UNL     1      33.347 -17.156 -26.347  0.00  0.00    -0.350 OA
ATOM     23  N   UNL     1      34.426 -18.293 -24.014  0.00  0.00    -0.303 N 
ATOM     24  C   UNL     1      33.937 -19.152 -25.098  0.00  0.00    +0.123 C 
ATOM     25  C   UNL     1      34.795 -16.928 -24.415  0.00  0.00    +0.123 C 
ATOM     26  C   UNL     1      32.861 -18.418 -25.891  0.00  0.00    +0.164 C 
ATOM     27  C   UNL     1      33.672 -16.313 -25.241  0.00  0.00    +0.164 C 
ENDBRANCH  16  23
ENDBRANCH  13  18
ENDBRANCH   7  12
BRANCH   2  28
ATOM     28  C   UNL     1      36.829 -23.389 -13.892  0.00  0.00    +0.032 C 
BRANCH  28  29
ATOM     29  C   UNL     1      37.572 -24.484 -13.096  0.00  0.00    +0.031 C 
BRANCH  29  31
ATOM     30  N   UNL     1      40.861 -26.199 -15.244  0.00  0.00    -0.242 NA
ATOM     31  C   UNL     1      38.729 -25.088 -13.852  0.00  0.00    -0.019 C 
ATOM     32  C   UNL     1      39.029 -24.625 -15.118  0.00  0.00    +0.016 C 
ATOM     33  C   UNL     1      39.472 -26.096 -13.267  0.00  0.00    +0.016 C 
ATOM     34  C   UNL     1      40.102 -25.211 -15.770  0.00  0.00    +0.099 C 
ATOM     35  C   UNL     1      40.525 -26.617 -14.002  0.00  0.00    +0.099 C 
ENDBRANCH  29  31
ENDBRANCH  28  29
ENDBRANCH   2  28
TORSDOF 6
ENDMDL
MODEL 6
REMARK VINA RESULT:     -10.9      4.968     12.259
REMARK  Name = 5326868
REMARK  6 active torsions:
REMARK  status: ('A' for Active; 'I' for Inactive)
REMARK    1  A    between atoms: C_2  and  C_28
REMARK    2  A    between atoms: C_7  and  N_12
REMARK    3  A    between atoms: C_13  and  C_18
REMARK    4  A    between atoms: C_16  and  N_23
REMARK    5  A    between atoms: C_28  and  C_29
REMARK    6  A    between atoms: C_29  and  C_31
REMARK                            x       y       z     vdW  Elec       q    Type
REMARK                         _______ _______ _______ _____ _____    ______ ____
ROOT
ATOM      1  N   UNL     1      35.271 -16.899 -24.447  0.00  0.00    -0.312 N 
ATOM      2  C   UNL     1      34.950 -15.957 -22.462  0.00  0.00    -0.006 C 
ATOM      3  C   UNL     1      34.948 -17.370 -22.290  0.00  0.00    +0.012 C 
ATOM      4  C   UNL     1      35.150 -17.936 -23.551  0.00  0.00    +0.048 C 
ATOM      5  C   UNL     1      35.151 -15.699 -23.799  0.00  0.00    +0.058 C 
ATOM      6  C   UNL     1      34.791 -18.224 -21.180  0.00  0.00    +0.016 C 
ATOM      7  C   UNL     1      34.844 -19.609 -21.371  0.00  0.00    +0.051 C 
ATOM      8  C   UNL     1      35.205 -19.320 -23.757  0.00  0.00    +0.016 C 
ATOM      9  C   UNL     1      35.048 -20.147 -22.640  0.00  0.00    +0.016 C 
ATOM     10  H   UNL     1      35.421 -17.004 -25.414  0.00  0.00    +0.152 HD
ENDROOT
BRANCH   7  12
ATOM     11  O   UNL     1      36.828 -21.403 -20.018  0.00  0.00    -0.270 OA
ATOM     12  N   UNL     1      34.689 -20.462 -20.276  0.00  0.00    -0.280 N 
ATOM     13  C   UNL     1      35.655 -21.283 -19.681  0.00  0.00    +0.250 C 
ATOM     14  H   UNL     1      33.791 -20.489 -19.874  0.00  0.00    +0.155 HD
BRANCH  13  18
ATOM     15  F   UNL     1      32.127 -23.675 -17.396  0.00  0.00    -0.204 F 
ATOM     16  C   UNL     1      35.615 -23.214 -16.470  0.00  0.00    +0.050 C 
ATOM     17  C   UNL     1      36.066 -22.442 -17.542  0.00  0.00    +0.019 C 
ATOM     18  C   UNL     1      35.175 -22.104 -18.538  0.00  0.00    +0.057 C 
ATOM     19  C   UNL     1      34.285 -23.630 -16.421  0.00  0.00    +0.044 C 
ATOM     20  C   UNL     1      33.855 -22.503 -18.514  0.00  0.00    +0.034 C 
ATOM     21  C   UNL     1      33.404 -23.274 -17.443  0.00  0.00    +0.142 C 
BRANCH  16  23
ATOM     22  O   UNL     1      38.374 -24.034 -13.404  0.00  0.00    -0.350 OA
ATOM     23  N   UNL     1      36.498 -23.572 -15.446  0.00  0.00    -0.303 N 
ATOM     24  C   UNL     1      36.168 -23.254 -14.052  0.00  0.00    +0.123 C 
ATOM     25  C   UNL     1      37.934 -23.621 -15.753  0.00  0.00    +0.123 C 
ATOM     26  C   UNL     1      36.980 -24.143 -13.116  0.00  0.00    +0.164 C 
ATOM     27  C   UNL     1      38.650 -24.492 -14.728  0.00  0.00    +0.164 C 
ENDBRANCH  16  23
ENDBRANCH  13  18
ENDBRANCH   7  12
BRANCH   2  28
ATOM     28  C   UNL     1      34.771 -14.943 -21.404  0.00  0.00    +0.032 C 
BRANCH  28  29
ATOM     29  C   UNL     1      33.298 -14.631 -21.058  0.00  0.00    +0.031 C 
BRANCH  29  31
ATOM     30  N   UNL     1      32.019 -10.776 -22.425  0.00  0.00    -0.242 NA
ATOM     31  C   UNL     1      32.848 -13.274 -21.539  0.00  0.00    -0.019 C 
ATOM     32  C   UNL     1      33.334 -12.782 -22.735  0.00  0.00    +0.016 C 
ATOM     33  C   UNL     1      31.958 -12.543 -20.777  0.00  0.00    +0.016 C 
ATOM     34  C   UNL     1      32.890 -11.531 -23.133  0.00  0.00    +0.099 C 
ATOM     35  C   UNL     1      31.575 -11.303 -21.262  0.00  0.00    +0.099 C 
ENDBRANCH  29  31
ENDBRANCH  28  29
ENDBRANCH   2  28
TORSDOF 6
ENDMDL
MODEL 7
REMARK VINA RESULT:     -10.8      2.192      2.969
REMARK  Name = 5326868
REMARK  6 active torsions:
REMARK  status: ('A' for Active; 'I' for Inactive)
REMARK    1  A    between atoms: C_2  and  C_28
REMARK    2  A    between atoms: C_7  and  N_12
REMARK    3  A    between atoms: C_13  and  C_18
REMARK    4  A    between atoms: C_16  and  N_23
REMARK    5  A    between atoms: C_28  and  C_29
REMARK    6  A    between atoms: C_29  and  C_31
REMARK                            x       y       z     vdW  Elec       q    Type
REMARK                         _______ _______ _______ _____ _____    ______ ____
ROOT
ATOM      1  N   UNL     1      34.099 -19.464 -24.709  0.00  0.00    -0.312 N 
ATOM      2  C   UNL     1      35.129 -18.603 -22.941  0.00  0.00    -0.006 C 
ATOM      3  C   UNL     1      34.660 -17.530 -23.749  0.00  0.00    +0.012 C 
ATOM      4  C   UNL     1      34.018 -18.097 -24.852  0.00  0.00    +0.048 C 
ATOM      5  C   UNL     1      34.769 -19.780 -23.557  0.00  0.00    +0.058 C 
ATOM      6  C   UNL     1      34.722 -16.125 -23.648  0.00  0.00    +0.016 C 
ATOM      7  C   UNL     1      34.139 -15.343 -24.651  0.00  0.00    +0.051 C 
ATOM      8  C   UNL     1      33.431 -17.327 -25.863  0.00  0.00    +0.016 C 
ATOM      9  C   UNL     1      33.504 -15.936 -25.740  0.00  0.00    +0.016 C 
ATOM     10  H   UNL     1      33.729 -20.119 -25.343  0.00  0.00    +0.152 HD
ENDROOT
BRANCH   7  12
ATOM     11  O   UNL     1      32.551 -13.448 -22.954  0.00  0.00    -0.270 OA
ATOM     12  N   UNL     1      34.196 -13.951 -24.558  0.00  0.00    -0.280 N 
ATOM     13  C   UNL     1      33.427 -13.109 -23.745  0.00  0.00    +0.250 C 
ATOM     14  H   UNL     1      34.857 -13.506 -25.136  0.00  0.00    +0.155 HD
BRANCH  13  18
ATOM     15  F   UNL     1      35.632  -9.444 -26.000  0.00  0.00    -0.204 F 
ATOM     16  C   UNL     1      33.353  -9.409 -23.164  0.00  0.00    +0.050 C 
ATOM     17  C   UNL     1      33.095 -10.773 -23.024  0.00  0.00    +0.019 C 
ATOM     18  C   UNL     1      33.702 -11.656 -23.892  0.00  0.00    +0.057 C 
ATOM     19  C   UNL     1      34.210  -8.960 -24.169  0.00  0.00    +0.044 C 
ATOM     20  C   UNL     1      34.552 -11.239 -24.894  0.00  0.00    +0.034 C 
ATOM     21  C   UNL     1      34.810  -9.876 -25.034  0.00  0.00    +0.142 C 
BRANCH  16  23
ATOM     22  O   UNL     1      31.298  -6.759 -20.627  0.00  0.00    -0.350 OA
ATOM     23  N   UNL     1      32.751  -8.490 -22.297  0.00  0.00    -0.303 N 
ATOM     24  C   UNL     1      32.433  -8.884 -20.920  0.00  0.00    +0.123 C 
ATOM     25  C   UNL     1      31.869  -7.467 -22.875  0.00  0.00    +0.123 C 
ATOM     26  C   UNL     1      32.265  -7.640 -20.055  0.00  0.00    +0.164 C 
ATOM     27  C   UNL     1      31.733  -6.298 -21.906  0.00  0.00    +0.164 C 
ENDBRANCH  16  23
ENDBRANCH  13  18
ENDBRANCH   7  12
BRANCH   2  28
ATOM     28  C   UNL     1      35.870 -18.487 -21.668  0.00  0.00    +0.032 C 
BRANCH  28  29
ATOM     29  C   UNL     1      36.487 -19.810 -21.163  0.00  0.00    +0.031 C 
BRANCH  29  31
ATOM     30  N   UNL     1      33.716 -22.242 -18.977  0.00  0.00    -0.242 NA
ATOM     31  C   UNL     1      35.512 -20.666 -20.393  0.00  0.00    -0.019 C 
ATOM     32  C   UNL     1      34.155 -20.469 -20.562  0.00  0.00    +0.016 C 
ATOM     33  C   UNL     1      35.989 -21.633 -19.531  0.00  0.00    +0.016 C 
ATOM     34  C   UNL     1      33.300 -21.281 -19.834  0.00  0.00    +0.099 C 
ATOM     35  C   UNL     1      35.053 -22.393 -18.848  0.00  0.00    +0.099 C 
ENDBRANCH  29  31
ENDBRANCH  28  29
ENDBRANCH   2  28
TORSDOF 6
ENDMDL
MODEL 8
REMARK VINA RESULT:     -10.4      3.192      6.168
REMARK  Name = 5326868
REMARK  6 active torsions:
REMARK  status: ('A' for Active; 'I' for Inactive)
REMARK    1  A    between atoms: C_2  and  C_28
REMARK    2  A    between atoms: C_7  and  N_12
REMARK    3  A    between atoms: C_13  and  C_18
REMARK    4  A    between atoms: C_16  and  N_23
REMARK    5  A    between atoms: C_28  and  C_29
REMARK    6  A    between atoms: C_29  and  C_31
REMARK                            x       y       z     vdW  Elec       q    Type
REMARK                         _______ _______ _______ _____ _____    ______ ____
ROOT
ATOM      1  N   UNL     1      31.883 -12.415 -20.255  0.00  0.00    -0.312 N 
ATOM      2  C   UNL     1      32.620 -12.795 -22.314  0.00  0.00    -0.006 C 
ATOM      3  C   UNL     1      32.456 -11.391 -22.152  0.00  0.00    +0.012 C 
ATOM      4  C   UNL     1      31.993 -11.180 -20.852  0.00  0.00    +0.048 C 
ATOM      5  C   UNL     1      32.260 -13.398 -21.131  0.00  0.00    +0.058 C 
ATOM      6  C   UNL     1      32.657 -10.276 -22.990  0.00  0.00    +0.016 C 
ATOM      7  C   UNL     1      32.388  -8.994 -22.497  0.00  0.00    +0.051 C 
ATOM      8  C   UNL     1      31.719  -9.904 -20.345  0.00  0.00    +0.016 C 
ATOM      9  C   UNL     1      31.927  -8.813 -21.194  0.00  0.00    +0.016 C 
ATOM     10  H   UNL     1      31.578 -12.570 -19.332  0.00  0.00    +0.152 HD
ENDROOT
BRANCH   7  12
ATOM     11  O   UNL     1      34.871  -7.406 -23.049  0.00  0.00    -0.270 OA
ATOM     12  N   UNL     1      32.584  -7.884 -23.321  0.00  0.00    -0.280 N 
ATOM     13  C   UNL     1      33.772  -7.176 -23.544  0.00  0.00    +0.250 C 
ATOM     14  H   UNL     1      31.791  -7.559 -23.804  0.00  0.00    +0.155 HD
BRANCH  13  18
ATOM     15  F   UNL     1      31.572  -3.096 -24.919  0.00  0.00    -0.204 F 
ATOM     16  C   UNL     1      34.453  -4.792 -26.354  0.00  0.00    +0.050 C 
ATOM     17  C   UNL     1      34.561  -5.886 -25.494  0.00  0.00    +0.019 C 
ATOM     18  C   UNL     1      33.656  -6.012 -24.461  0.00  0.00    +0.057 C 
ATOM     19  C   UNL     1      33.443  -3.850 -26.159  0.00  0.00    +0.044 C 
ATOM     20  C   UNL     1      32.649  -5.094 -24.247  0.00  0.00    +0.034 C 
ATOM     21  C   UNL     1      32.540  -4.001 -25.106  0.00  0.00    +0.142 C 
BRANCH  16  23
ATOM     22  O   UNL     1      37.150  -4.059 -29.495  0.00  0.00    -0.350 OA
ATOM     23  N   UNL     1      35.358  -4.640 -27.409  0.00  0.00    -0.303 N 
ATOM     24  C   UNL     1      36.785  -4.450 -27.128  0.00  0.00    +0.123 C 
ATOM     25  C   UNL     1      34.877  -4.018 -28.650  0.00  0.00    +0.123 C 
ATOM     26  C   UNL     1      37.605  -4.802 -28.364  0.00  0.00    +0.164 C 
ATOM     27  C   UNL     1      35.798  -4.395 -29.806  0.00  0.00    +0.164 C 
ENDBRANCH  16  23
ENDBRANCH  13  18
ENDBRANCH   7  12
BRANCH   2  28
ATOM     28  C   UNL     1      33.091 -13.490 -23.529  0.00  0.00    +0.032 C 
BRANCH  28  29
ATOM     29  C   UNL     1      34.306 -14.418 -23.306  0.00  0.00    +0.031 C 
BRANCH  29  31
ATOM     30  N   UNL     1      34.101 -18.049 -25.574  0.00  0.00    -0.242 NA
ATOM     31  C   UNL     1      34.234 -15.696 -24.104  0.00  0.00    -0.019 C 
ATOM     32  C   UNL     1      33.485 -15.731 -25.264  0.00  0.00    +0.016 C 
ATOM     33  C   UNL     1      34.917 -16.813 -23.663  0.00  0.00    +0.016 C 
ATOM     34  C   UNL     1      33.451 -16.928 -25.961  0.00  0.00    +0.099 C 
ATOM     35  C   UNL     1      34.819 -17.962 -24.432  0.00  0.00    +0.099 C 
ENDBRANCH  29  31
ENDBRANCH  28  29
ENDBRANCH   2  28
TORSDOF 6
ENDMDL
MODEL 9
REMARK VINA RESULT:     -10.1      3.239     11.662
REMARK  Name = 5326868
REMARK  6 active torsions:
REMARK  status: ('A' for Active; 'I' for Inactive)
REMARK    1  A    between atoms: C_2  and  C_28
REMARK    2  A    between atoms: C_7  and  N_12
REMARK    3  A    between atoms: C_13  and  C_18
REMARK    4  A    between atoms: C_16  and  N_23
REMARK    5  A    between atoms: C_28  and  C_29
REMARK    6  A    between atoms: C_29  and  C_31
REMARK                            x       y       z     vdW  Elec       q    Type
REMARK                         _______ _______ _______ _____ _____    ______ ____
ROOT
ATOM      1  N   UNL     1      31.826  -5.365 -21.479  0.00  0.00    -0.312 N 
ATOM      2  C   UNL     1      32.244  -5.641 -23.641  0.00  0.00    -0.006 C 
ATOM      3  C   UNL     1      32.286  -6.918 -23.013  0.00  0.00    +0.012 C 
ATOM      4  C   UNL     1      32.021  -6.716 -21.657  0.00  0.00    +0.048 C 
ATOM      5  C   UNL     1      31.959  -4.707 -22.672  0.00  0.00    +0.058 C 
ATOM      6  C   UNL     1      32.526  -8.229 -23.470  0.00  0.00    +0.016 C 
ATOM      7  C   UNL     1      32.491  -9.287 -22.555  0.00  0.00    +0.051 C 
ATOM      8  C   UNL     1      31.983  -7.764 -20.731  0.00  0.00    +0.016 C 
ATOM      9  C   UNL     1      32.223  -9.057 -21.207  0.00  0.00    +0.016 C 
ATOM     10  H   UNL     1      31.622  -4.934 -20.618  0.00  0.00    +0.152 HD
ENDROOT
BRANCH   7  12
ATOM     11  O   UNL     1      34.673 -10.370 -24.304  0.00  0.00    -0.270 OA
ATOM     12  N   UNL     1      32.728 -10.590 -22.999  0.00  0.00    -0.280 N 
ATOM     13  C   UNL     1      33.769 -11.044 -23.820  0.00  0.00    +0.250 C 
ATOM     14  H   UNL     1      32.086 -11.272 -22.699  0.00  0.00    +0.155 HD
BRANCH  13  18
ATOM     15  F   UNL     1      32.803 -14.657 -26.885  0.00  0.00    -0.204 F 
ATOM     16  C   UNL     1      34.144 -14.758 -23.504  0.00  0.00    +0.050 C 
ATOM     17  C   UNL     1      34.173 -13.397 -23.198  0.00  0.00    +0.019 C 
ATOM     18  C   UNL     1      33.737 -12.494 -24.144  0.00  0.00    +0.057 C 
ATOM     19  C   UNL     1      33.681 -15.184 -24.749  0.00  0.00    +0.044 C 
ATOM     20  C   UNL     1      33.276 -12.888 -25.383  0.00  0.00    +0.034 C 
ATOM     21  C   UNL     1      33.247 -14.248 -25.689  0.00  0.00    +0.142 C 
BRANCH  16  23
ATOM     22  O   UNL     1      35.717 -17.509 -20.739  0.00  0.00    -0.350 OA
ATOM     23  N   UNL     1      34.581 -15.696 -22.563  0.00  0.00    -0.303 N 
ATOM     24  C   UNL     1      34.913 -15.265 -21.200  0.00  0.00    +0.123 C 
ATOM     25  C   UNL     1      35.321 -16.870 -23.046  0.00  0.00    +0.123 C 
ATOM     26  C   UNL     1      34.873 -16.463 -20.258  0.00  0.00    +0.164 C 
ATOM     27  C   UNL     1      35.257 -17.983 -22.005  0.00  0.00    +0.164 C 
ENDBRANCH  16  23
ENDBRANCH  13  18
ENDBRANCH   7  12
BRANCH   2  28
ATOM     28  C   UNL     1      32.465  -5.360 -25.074  0.00  0.00    +0.032 C 
BRANCH  28  29
ATOM     29  C   UNL     1      32.788  -3.883 -25.394  0.00  0.00    +0.031 C 
BRANCH  29  31
ATOM     30  N   UNL     1      35.918  -3.428 -28.286  0.00  0.00    -0.242 NA
ATOM     31  C   UNL     1      33.890  -3.722 -26.412  0.00  0.00    -0.019 C 
ATOM     32  C   UNL     1      34.876  -4.685 -26.503  0.00  0.00    +0.016 C 
ATOM     33  C   UNL     1      33.897  -2.615 -27.238  0.00  0.00    +0.016 C 
ATOM     34  C   UNL     1      35.865  -4.492 -27.454  0.00  0.00    +0.099 C 
ATOM     35  C   UNL     1      34.930  -2.514 -28.156  0.00  0.00    +0.099 C 
ENDBRANCH  29  31
ENDBRANCH  28  29
ENDBRANCH   2  28
TORSDOF 6
ENDMDL
