MODEL 1
REMARK VINA RESULT:     -12.3      0.000      0.000
REMARK  Name = 11952989
REMARK  5 active torsions:
REMARK  status: ('A' for Active; 'I' for Inactive)
REMARK    1  A    between atoms: C_4  and  C_21
REMARK    2  A    between atoms: C_6  and  C_11
REMARK    3  A    between atoms: C_24  and  C_27
REMARK    4  A    between atoms: C_27  and  C_29
REMARK    5  A    between atoms: C_29  and  O_30
REMARK                            x       y       z     vdW  Elec       q    Type
REMARK                         _______ _______ _______ _____ _____    ______ ____
ROOT
ATOM      1  N   UNL     1      33.544 -15.003 -26.366  0.00  0.00    -0.297 N 
ATOM      2  N   UNL     1      34.527 -17.150 -25.891  0.00  0.00    -0.229 NA
ATOM      3  C   UNL     1      33.865 -15.491 -24.211  0.00  0.00    +0.033 C 
ATOM      4  C   UNL     1      33.282 -14.199 -24.308  0.00  0.00    +0.017 C 
ATOM      5  C   UNL     1      34.015 -15.964 -25.512  0.00  0.00    +0.132 C 
ATOM      6  C   UNL     1      34.826 -17.567 -23.504  0.00  0.00    +0.019 C 
ATOM      7  C   UNL     1      34.288 -16.328 -23.166  0.00  0.00    +0.004 C 
ATOM      8  C   UNL     1      33.096 -13.926 -25.646  0.00  0.00    +0.063 C 
ATOM      9  C   UNL     1      34.918 -17.914 -24.845  0.00  0.00    +0.100 C 
ATOM     10  H   UNL     1      33.530 -15.074 -27.349  0.00  0.00    +0.154 HD
ENDROOT
BRANCH   6  11
ATOM     11  C   UNL     1      35.282 -18.476 -22.475  0.00  0.00    +0.001 C 
ATOM     12  C   UNL     1      34.807 -20.252 -20.881  0.00  0.00    +0.000 C 
ATOM     13  C   UNL     1      34.383 -19.363 -21.882  0.00  0.00    +0.000 C 
ATOM     14  C   UNL     1      36.164 -20.240 -20.476  0.00  0.00    +0.000 C 
ATOM     15  C   UNL     1      36.615 -18.464 -22.077  0.00  0.00    +0.000 C 
ATOM     16  C   UNL     1      37.055 -19.341 -21.084  0.00  0.00    +0.000 C 
ATOM     17  C   UNL     1      33.917 -21.151 -20.273  0.00  0.00    +0.000 C 
ATOM     18  C   UNL     1      36.589 -21.129 -19.475  0.00  0.00    +0.000 C 
ATOM     19  C   UNL     1      34.358 -22.027 -19.280  0.00  0.00    +0.000 C 
ATOM     20  C   UNL     1      35.691 -22.016 -18.881  0.00  0.00    +0.000 C 
ENDBRANCH   6  11
BRANCH   4  21
ATOM     21  C   UNL     1      32.917 -13.273 -23.276  0.00  0.00    +0.001 C 
ATOM     22  C   UNL     1      33.049 -11.900 -23.490  0.00  0.00    -0.000 C 
ATOM     23  C   UNL     1      32.430 -13.742 -22.055  0.00  0.00    -0.000 C 
ATOM     24  C   UNL     1      32.207 -11.470 -21.267  0.00  0.00    -0.011 C 
ATOM     25  C   UNL     1      32.694 -11.000 -22.486  0.00  0.00    -0.004 C 
ATOM     26  C   UNL     1      32.075 -12.842 -21.051  0.00  0.00    -0.004 C 
BRANCH  24  27
ATOM     27  C   UNL     1      31.825 -10.506 -20.194  0.00  0.00    +0.136 C 
BRANCH  27  29
ATOM     28  O   UNL     1      31.651  -8.431 -21.457  0.00  0.00    -0.250 OA
ATOM     29  C   UNL     1      32.147  -9.065 -20.535  0.00  0.00    +0.318 C 
BRANCH  29  30
ATOM     30  O   UNL     1      33.068  -8.537 -19.686  0.00  0.00    -0.480 OA
ATOM     31  H   UNL     1      33.124  -8.848 -18.804  0.00  0.00    +0.295 HD
ENDBRANCH  29  30
ENDBRANCH  27  29
ENDBRANCH  24  27
ENDBRANCH   4  21
TORSDOF 5
ENDMDL
MODEL 2
REMARK VINA RESULT:     -12.1      7.101     10.918
REMARK  Name = 11952989
REMARK  5 active torsions:
REMARK  status: ('A' for Active; 'I' for Inactive)
REMARK    1  A    between atoms: C_4  and  C_21
REMARK    2  A    between atoms: C_6  and  C_11
REMARK    3  A    between atoms: C_24  and  C_27
REMARK    4  A    between atoms: C_27  and  C_29
REMARK    5  A    between atoms: C_29  and  O_30
REMARK                            x       y       z     vdW  Elec       q    Type
REMARK                         _______ _______ _______ _____ _____    ______ ____
ROOT
ATOM      1  N   UNL     1      33.011 -25.356 -14.127  0.00  0.00    -0.297 N 
ATOM      2  N   UNL     1      34.972 -24.668 -15.346  0.00  0.00    -0.229 NA
ATOM      3  C   UNL     1      32.684 -23.907 -15.793  0.00  0.00    +0.033 C 
ATOM      4  C   UNL     1      31.433 -24.200 -15.188  0.00  0.00    +0.017 C 
ATOM      5  C   UNL     1      33.647 -24.643 -15.108  0.00  0.00    +0.132 C 
ATOM      6  C   UNL     1      34.486 -23.086 -17.140  0.00  0.00    +0.019 C 
ATOM      7  C   UNL     1      33.123 -23.095 -16.852  0.00  0.00    +0.004 C 
ATOM      8  C   UNL     1      31.666 -25.095 -14.165  0.00  0.00    +0.063 C 
ATOM      9  C   UNL     1      35.338 -23.869 -16.374  0.00  0.00    +0.100 C 
ATOM     10  H   UNL     1      33.453 -25.963 -13.489  0.00  0.00    +0.154 HD
ENDROOT
BRANCH   6  11
ATOM     11  C   UNL     1      35.003 -22.271 -18.218  0.00  0.00    +0.001 C 
ATOM     12  C   UNL     1      34.611 -20.902 -20.190  0.00  0.00    +0.000 C 
ATOM     13  C   UNL     1      34.126 -21.694 -19.137  0.00  0.00    +0.000 C 
ATOM     14  C   UNL     1      36.006 -20.692 -20.312  0.00  0.00    +0.000 C 
ATOM     15  C   UNL     1      36.374 -22.065 -18.338  0.00  0.00    +0.000 C 
ATOM     16  C   UNL     1      36.874 -21.280 -19.378  0.00  0.00    +0.000 C 
ATOM     17  C   UNL     1      33.744 -20.313 -21.125  0.00  0.00    +0.000 C 
ATOM     18  C   UNL     1      36.491 -19.899 -21.365  0.00  0.00    +0.000 C 
ATOM     19  C   UNL     1      34.245 -19.529 -22.164  0.00  0.00    +0.000 C 
ATOM     20  C   UNL     1      35.615 -19.322 -22.285  0.00  0.00    +0.000 C 
ENDBRANCH   6  11
BRANCH   4  21
ATOM     21  C   UNL     1      30.121 -23.716 -15.502  0.00  0.00    +0.001 C 
ATOM     22  C   UNL     1      29.419 -24.251 -16.584  0.00  0.00    -0.000 C 
ATOM     23  C   UNL     1      29.543 -22.710 -14.727  0.00  0.00    -0.000 C 
ATOM     24  C   UNL     1      27.566 -22.774 -16.113  0.00  0.00    -0.011 C 
ATOM     25  C   UNL     1      28.143 -23.780 -16.889  0.00  0.00    -0.004 C 
ATOM     26  C   UNL     1      28.266 -22.238 -15.032  0.00  0.00    -0.004 C 
BRANCH  24  27
ATOM     27  C   UNL     1      26.199 -22.273 -16.439  0.00  0.00    +0.136 C 
BRANCH  27  29
ATOM     28  O   UNL     1      26.063 -22.316 -18.870  0.00  0.00    -0.250 OA
ATOM     29  C   UNL     1      26.089 -21.675 -17.828  0.00  0.00    +0.318 C 
BRANCH  29  30
ATOM     30  O   UNL     1      26.022 -20.318 -17.792  0.00  0.00    -0.480 OA
ATOM     31  H   UNL     1      26.530 -19.840 -17.165  0.00  0.00    +0.295 HD
ENDBRANCH  29  30
ENDBRANCH  27  29
ENDBRANCH  24  27
ENDBRANCH   4  21
TORSDOF 5
ENDMDL
MODEL 3
REMARK VINA RESULT:     -11.9      7.441     12.293
REMARK  Name = 11952989
REMARK  5 active torsions:
REMARK  status: ('A' for Active; 'I' for Inactive)
REMARK    1  A    between atoms: C_4  and  C_21
REMARK    2  A    between atoms: C_6  and  C_11
REMARK    3  A    between atoms: C_24  and  C_27
REMARK    4  A    between atoms: C_27  and  C_29
REMARK    5  A    between atoms: C_29  and  O_30
REMARK                            x       y       z     vdW  Elec       q    Type
REMARK                         _______ _______ _______ _____ _____    ______ ____
ROOT
ATOM      1  N   UNL     1      32.247 -24.346 -15.639  0.00  0.00    -0.297 N 
ATOM      2  N   UNL     1      31.938 -22.912 -17.550  0.00  0.00    -0.229 NA
ATOM      3  C   UNL     1      34.104 -23.575 -16.610  0.00  0.00    +0.033 C 
ATOM      4  C   UNL     1      34.467 -24.397 -15.511  0.00  0.00    +0.017 C 
ATOM      5  C   UNL     1      32.713 -23.564 -16.663  0.00  0.00    +0.132 C 
ATOM      6  C   UNL     1      34.039 -22.135 -18.522  0.00  0.00    +0.019 C 
ATOM      7  C   UNL     1      34.793 -22.830 -17.580  0.00  0.00    +0.004 C 
ATOM      8  C   UNL     1      33.304 -24.857 -14.932  0.00  0.00    +0.063 C 
ATOM      9  C   UNL     1      32.654 -22.212 -18.460  0.00  0.00    +0.100 C 
ATOM     10  H   UNL     1      31.296 -24.515 -15.441  0.00  0.00    +0.154 HD
ENDROOT
BRANCH   6  11
ATOM     11  C   UNL     1      34.688 -21.348 -19.548  0.00  0.00    +0.001 C 
ATOM     12  C   UNL     1      34.543 -19.995 -21.564  0.00  0.00    +0.000 C 
ATOM     13  C   UNL     1      33.929 -20.761 -20.561  0.00  0.00    +0.000 C 
ATOM     14  C   UNL     1      35.948 -19.821 -21.541  0.00  0.00    +0.000 C 
ATOM     15  C   UNL     1      36.069 -21.178 -19.525  0.00  0.00    +0.000 C 
ATOM     16  C   UNL     1      36.696 -20.420 -20.514  0.00  0.00    +0.000 C 
ATOM     17  C   UNL     1      33.794 -19.396 -22.592  0.00  0.00    +0.000 C 
ATOM     18  C   UNL     1      36.562 -19.055 -22.544  0.00  0.00    +0.000 C 
ATOM     19  C   UNL     1      34.422 -18.638 -23.580  0.00  0.00    +0.000 C 
ATOM     20  C   UNL     1      35.803 -18.468 -23.557  0.00  0.00    +0.000 C 
ENDBRANCH   6  11
BRANCH   4  21
ATOM     21  C   UNL     1      35.765 -24.747 -15.010  0.00  0.00    +0.001 C 
ATOM     22  C   UNL     1      36.588 -23.765 -14.457  0.00  0.00    -0.000 C 
ATOM     23  C   UNL     1      36.207 -26.069 -15.075  0.00  0.00    -0.000 C 
ATOM     24  C   UNL     1      38.290 -25.427 -14.035  0.00  0.00    -0.011 C 
ATOM     25  C   UNL     1      37.850 -24.105 -13.970  0.00  0.00    -0.004 C 
ATOM     26  C   UNL     1      37.469 -26.409 -14.588  0.00  0.00    -0.004 C 
BRANCH  24  27
ATOM     27  C   UNL     1      39.639 -25.790 -13.512  0.00  0.00    +0.136 C 
BRANCH  27  29
ATOM     28  O   UNL     1      40.546 -25.996 -15.763  0.00  0.00    -0.250 OA
ATOM     29  C   UNL     1      40.583 -26.307 -14.579  0.00  0.00    +0.318 C 
BRANCH  29  30
ATOM     30  O   UNL     1      41.498 -27.173 -14.071  0.00  0.00    -0.480 OA
ATOM     31  H   UNL     1      41.235 -27.815 -13.440  0.00  0.00    +0.295 HD
ENDBRANCH  29  30
ENDBRANCH  27  29
ENDBRANCH  24  27
ENDBRANCH   4  21
TORSDOF 5
ENDMDL
MODEL 4
REMARK VINA RESULT:     -11.2      6.836     10.905
REMARK  Name = 11952989
REMARK  5 active torsions:
REMARK  status: ('A' for Active; 'I' for Inactive)
REMARK    1  A    between atoms: C_4  and  C_21
REMARK    2  A    between atoms: C_6  and  C_11
REMARK    3  A    between atoms: C_24  and  C_27
REMARK    4  A    between atoms: C_27  and  C_29
REMARK    5  A    between atoms: C_29  and  O_30
REMARK                            x       y       z     vdW  Elec       q    Type
REMARK                         _______ _______ _______ _____ _____    ______ ____
ROOT
ATOM      1  N   UNL     1      36.175 -24.307 -14.550  0.00  0.00    -0.297 N 
ATOM      2  N   UNL     1      37.534 -23.155 -16.172  0.00  0.00    -0.229 NA
ATOM      3  C   UNL     1      35.083 -23.229 -16.172  0.00  0.00    +0.033 C 
ATOM      4  C   UNL     1      34.136 -23.846 -15.311  0.00  0.00    +0.017 C 
ATOM      5  C   UNL     1      36.344 -23.535 -15.669  0.00  0.00    +0.132 C 
ATOM      6  C   UNL     1      36.227 -22.016 -17.891  0.00  0.00    +0.019 C 
ATOM      7  C   UNL     1      35.023 -22.437 -17.330  0.00  0.00    +0.004 C 
ATOM      8  C   UNL     1      34.838 -24.502 -14.323  0.00  0.00    +0.063 C 
ATOM      9  C   UNL     1      37.417 -22.395 -17.285  0.00  0.00    +0.100 C 
ATOM     10  H   UNL     1      36.904 -24.666 -13.992  0.00  0.00    +0.154 HD
ENDROOT
BRANCH   6  11
ATOM     11  C   UNL     1      36.235 -21.199 -19.084  0.00  0.00    +0.001 C 
ATOM     12  C   UNL     1      35.061 -20.272 -21.003  0.00  0.00    +0.000 C 
ATOM     13  C   UNL     1      35.071 -21.061 -19.842  0.00  0.00    +0.000 C 
ATOM     14  C   UNL     1      36.249 -19.612 -21.402  0.00  0.00    +0.000 C 
ATOM     15  C   UNL     1      37.402 -20.551 -19.476  0.00  0.00    +0.000 C 
ATOM     16  C   UNL     1      37.411 -19.762 -20.627  0.00  0.00    +0.000 C 
ATOM     17  C   UNL     1      33.900 -20.122 -21.779  0.00  0.00    +0.000 C 
ATOM     18  C   UNL     1      36.239 -18.823 -22.563  0.00  0.00    +0.000 C 
ATOM     19  C   UNL     1      33.910 -19.333 -22.930  0.00  0.00    +0.000 C 
ATOM     20  C   UNL     1      35.077 -18.685 -23.322  0.00  0.00    +0.000 C 
ENDBRANCH   6  11
BRANCH   4  21
ATOM     21  C   UNL     1      32.703 -23.850 -15.370  0.00  0.00    +0.001 C 
ATOM     22  C   UNL     1      31.961 -24.324 -14.287  0.00  0.00    -0.000 C 
ATOM     23  C   UNL     1      32.048 -23.380 -16.509  0.00  0.00    -0.000 C 
ATOM     24  C   UNL     1      29.914 -23.857 -15.483  0.00  0.00    -0.011 C 
ATOM     25  C   UNL     1      30.567 -24.328 -14.344  0.00  0.00    -0.004 C 
ATOM     26  C   UNL     1      30.655 -23.383 -16.566  0.00  0.00    -0.004 C 
BRANCH  24  27
ATOM     27  C   UNL     1      28.423 -23.859 -15.542  0.00  0.00    +0.136 C 
BRANCH  27  29
ATOM     28  O   UNL     1      27.736 -21.996 -16.951  0.00  0.00    -0.250 OA
ATOM     29  C   UNL     1      27.867 -23.202 -16.789  0.00  0.00    +0.318 C 
BRANCH  29  30
ATOM     30  O   UNL     1      27.520 -24.117 -17.733  0.00  0.00    -0.480 OA
ATOM     31  H   UNL     1      26.842 -24.740 -17.554  0.00  0.00    +0.295 HD
ENDBRANCH  29  30
ENDBRANCH  27  29
ENDBRANCH  24  27
ENDBRANCH   4  21
TORSDOF 5
ENDMDL
MODEL 5
REMARK VINA RESULT:     -11.1      5.798     11.810
REMARK  Name = 11952989
REMARK  5 active torsions:
REMARK  status: ('A' for Active; 'I' for Inactive)
REMARK    1  A    between atoms: C_4  and  C_21
REMARK    2  A    between atoms: C_6  and  C_11
REMARK    3  A    between atoms: C_24  and  C_27
REMARK    4  A    between atoms: C_27  and  C_29
REMARK    5  A    between atoms: C_29  and  O_30
REMARK                            x       y       z     vdW  Elec       q    Type
REMARK                         _______ _______ _______ _____ _____    ______ ____
ROOT
ATOM      1  N   UNL     1      31.761  -8.486 -19.676  0.00  0.00    -0.297 N 
ATOM      2  N   UNL     1      31.989  -6.285 -20.630  0.00  0.00    -0.229 NA
ATOM      3  C   UNL     1      32.403  -8.393 -21.813  0.00  0.00    +0.033 C 
ATOM      4  C   UNL     1      32.319  -9.755 -21.417  0.00  0.00    +0.017 C 
ATOM      5  C   UNL     1      32.048  -7.628 -20.705  0.00  0.00    +0.132 C 
ATOM      6  C   UNL     1      32.694  -6.316 -22.967  0.00  0.00    +0.019 C 
ATOM      7  C   UNL     1      32.739  -7.707 -22.991  0.00  0.00    +0.004 C 
ATOM      8  C   UNL     1      31.922  -9.780 -20.097  0.00  0.00    +0.063 C 
ATOM      9  C   UNL     1      32.322  -5.677 -21.792  0.00  0.00    +0.100 C 
ATOM     10  H   UNL     1      31.481  -8.214 -18.772  0.00  0.00    +0.154 HD
ENDROOT
BRANCH   6  11
ATOM     11  C   UNL     1      33.029  -5.549 -24.148  0.00  0.00    +0.001 C 
ATOM     12  C   UNL     1      34.588  -5.029 -25.941  0.00  0.00    +0.000 C 
ATOM     13  C   UNL     1      34.247  -5.764 -24.795  0.00  0.00    +0.000 C 
ATOM     14  C   UNL     1      33.681  -4.062 -26.439  0.00  0.00    +0.000 C 
ATOM     15  C   UNL     1      32.138  -4.599 -24.636  0.00  0.00    +0.000 C 
ATOM     16  C   UNL     1      32.460  -3.859 -25.774  0.00  0.00    +0.000 C 
ATOM     17  C   UNL     1      35.809  -5.231 -26.606  0.00  0.00    +0.000 C 
ATOM     18  C   UNL     1      34.023  -3.326 -27.585  0.00  0.00    +0.000 C 
ATOM     19  C   UNL     1      36.131  -4.491 -27.744  0.00  0.00    +0.000 C 
ATOM     20  C   UNL     1      35.240  -3.540 -28.233  0.00  0.00    +0.000 C 
ENDBRANCH   6  11
BRANCH   4  21
ATOM     21  C   UNL     1      32.578 -10.950 -22.165  0.00  0.00    +0.001 C 
ATOM     22  C   UNL     1      33.366 -10.897 -23.316  0.00  0.00    -0.000 C 
ATOM     23  C   UNL     1      32.043 -12.168 -21.744  0.00  0.00    -0.000 C 
ATOM     24  C   UNL     1      33.082 -13.277 -23.622  0.00  0.00    -0.011 C 
ATOM     25  C   UNL     1      33.618 -12.060 -24.044  0.00  0.00    -0.004 C 
ATOM     26  C   UNL     1      32.295 -13.331 -22.472  0.00  0.00    -0.004 C 
BRANCH  24  27
ATOM     27  C   UNL     1      33.355 -14.521 -24.400  0.00  0.00    +0.136 C 
BRANCH  27  29
ATOM     28  O   UNL     1      35.053 -15.137 -22.767  0.00  0.00    -0.250 OA
ATOM     29  C   UNL     1      34.395 -15.418 -23.760  0.00  0.00    +0.318 C 
BRANCH  29  30
ATOM     30  O   UNL     1      34.522 -16.599 -24.422  0.00  0.00    -0.480 OA
ATOM     31  H   UNL     1      34.696 -16.602 -25.343  0.00  0.00    +0.295 HD
ENDBRANCH  29  30
ENDBRANCH  27  29
ENDBRANCH  24  27
ENDBRANCH   4  21
TORSDOF 5
ENDMDL
MODEL 6
REMARK VINA RESULT:     -11.1      5.706     11.896
REMARK  Name = 11952989
REMARK  5 active torsions:
REMARK  status: ('A' for Active; 'I' for Inactive)
REMARK    1  A    between atoms: C_4  and  C_21
REMARK    2  A    between atoms: C_6  and  C_11
REMARK    3  A    between atoms: C_24  and  C_27
REMARK    4  A    between atoms: C_27  and  C_29
REMARK    5  A    between atoms: C_29  and  O_30
REMARK                            x       y       z     vdW  Elec       q    Type
REMARK                         _______ _______ _______ _____ _____    ______ ____
ROOT
ATOM      1  N   UNL     1      31.694  -8.964 -19.575  0.00  0.00    -0.297 N 
ATOM      2  N   UNL     1      31.966  -6.729 -20.432  0.00  0.00    -0.229 NA
ATOM      3  C   UNL     1      32.420  -8.792 -21.679  0.00  0.00    +0.033 C 
ATOM      4  C   UNL     1      32.317 -10.167 -21.339  0.00  0.00    +0.017 C 
ATOM      5  C   UNL     1      32.024  -8.068 -20.557  0.00  0.00    +0.132 C 
ATOM      6  C   UNL     1      32.764  -6.673 -22.739  0.00  0.00    +0.019 C 
ATOM      7  C   UNL     1      32.805  -8.063 -22.815  0.00  0.00    +0.004 C 
ATOM      8  C   UNL     1      31.867 -10.242 -20.038  0.00  0.00    +0.063 C 
ATOM      9  C   UNL     1      32.347  -6.078 -21.556  0.00  0.00    +0.100 C 
ATOM     10  H   UNL     1      31.378  -8.726 -18.672  0.00  0.00    +0.154 HD
ENDROOT
BRANCH   6  11
ATOM     11  C   UNL     1      33.148  -5.863 -23.875  0.00  0.00    +0.001 C 
ATOM     12  C   UNL     1      32.711  -3.988 -25.362  0.00  0.00    +0.000 C 
ATOM     13  C   UNL     1      32.353  -4.784 -24.262  0.00  0.00    +0.000 C 
ATOM     14  C   UNL     1      33.893  -4.291 -26.080  0.00  0.00    +0.000 C 
ATOM     15  C   UNL     1      34.310  -6.161 -24.580  0.00  0.00    +0.000 C 
ATOM     16  C   UNL     1      34.682  -5.381 -25.675  0.00  0.00    +0.000 C 
ATOM     17  C   UNL     1      31.922  -2.898 -25.766  0.00  0.00    +0.000 C 
ATOM     18  C   UNL     1      34.251  -3.495 -27.180  0.00  0.00    +0.000 C 
ATOM     19  C   UNL     1      32.294  -2.119 -26.862  0.00  0.00    +0.000 C 
ATOM     20  C   UNL     1      33.456  -2.416 -27.568  0.00  0.00    +0.000 C 
ENDBRANCH   6  11
BRANCH   4  21
ATOM     21  C   UNL     1      32.601 -11.334 -22.123  0.00  0.00    +0.001 C 
ATOM     22  C   UNL     1      33.345 -11.222 -23.299  0.00  0.00    -0.000 C 
ATOM     23  C   UNL     1      32.136 -12.584 -21.711  0.00  0.00    -0.000 C 
ATOM     24  C   UNL     1      33.156 -13.605 -23.647  0.00  0.00    -0.011 C 
ATOM     25  C   UNL     1      33.622 -12.357 -24.060  0.00  0.00    -0.004 C 
ATOM     26  C   UNL     1      32.413 -13.719 -22.472  0.00  0.00    -0.004 C 
BRANCH  24  27
ATOM     27  C   UNL     1      33.455 -14.819 -24.461  0.00  0.00    +0.136 C 
BRANCH  27  29
ATOM     28  O   UNL     1      35.153 -15.458 -22.837  0.00  0.00    -0.250 OA
ATOM     29  C   UNL     1      34.502 -15.722 -23.839  0.00  0.00    +0.318 C 
BRANCH  29  30
ATOM     30  O   UNL     1      34.643 -16.884 -24.529  0.00  0.00    -0.480 OA
ATOM     31  H   UNL     1      34.636 -16.876 -25.467  0.00  0.00    +0.295 HD
ENDBRANCH  29  30
ENDBRANCH  27  29
ENDBRANCH  24  27
ENDBRANCH   4  21
TORSDOF 5
ENDMDL
MODEL 7
REMARK VINA RESULT:     -11.1      3.671      8.774
REMARK  Name = 11952989
REMARK  5 active torsions:
REMARK  status: ('A' for Active; 'I' for Inactive)
REMARK    1  A    between atoms: C_4  and  C_21
REMARK    2  A    between atoms: C_6  and  C_11
REMARK    3  A    between atoms: C_24  and  C_27
REMARK    4  A    between atoms: C_27  and  C_29
REMARK    5  A    between atoms: C_29  and  O_30
REMARK                            x       y       z     vdW  Elec       q    Type
REMARK                         _______ _______ _______ _____ _____    ______ ____
ROOT
ATOM      1  N   UNL     1      33.989 -15.997 -26.489  0.00  0.00    -0.297 N 
ATOM      2  N   UNL     1      33.109 -13.809 -26.002  0.00  0.00    -0.229 NA
ATOM      3  C   UNL     1      33.862 -15.438 -24.331  0.00  0.00    +0.033 C 
ATOM      4  C   UNL     1      34.399 -16.749 -24.435  0.00  0.00    +0.017 C 
ATOM      5  C   UNL     1      33.618 -14.998 -25.629  0.00  0.00    +0.132 C 
ATOM      6  C   UNL     1      33.020 -13.315 -23.613  0.00  0.00    +0.019 C 
ATOM      7  C   UNL     1      33.550 -14.559 -23.281  0.00  0.00    +0.004 C 
ATOM      8  C   UNL     1      34.465 -17.066 -25.775  0.00  0.00    +0.063 C 
ATOM      9  C   UNL     1      32.827 -13.003 -24.951  0.00  0.00    +0.100 C 
ATOM     10  H   UNL     1      33.924 -15.955 -27.471  0.00  0.00    +0.154 HD
ENDROOT
BRANCH   6  11
ATOM     11  C   UNL     1      32.677 -12.364 -22.578  0.00  0.00    +0.001 C 
ATOM     12  C   UNL     1      32.418 -10.058 -21.846  0.00  0.00    +0.000 C 
ATOM     13  C   UNL     1      32.747 -10.995 -22.839  0.00  0.00    +0.000 C 
ATOM     14  C   UNL     1      32.011 -10.516 -20.570  0.00  0.00    +0.000 C 
ATOM     15  C   UNL     1      32.277 -12.814 -21.323  0.00  0.00    +0.000 C 
ATOM     16  C   UNL     1      31.946 -11.898 -20.325  0.00  0.00    +0.000 C 
ATOM     17  C   UNL     1      32.484  -8.676 -22.091  0.00  0.00    +0.000 C 
ATOM     18  C   UNL     1      31.682  -9.579 -19.577  0.00  0.00    +0.000 C 
ATOM     19  C   UNL     1      32.153  -7.760 -21.092  0.00  0.00    +0.000 C 
ATOM     20  C   UNL     1      31.753  -8.210 -19.837  0.00  0.00    +0.000 C 
ENDBRANCH   6  11
BRANCH   4  21
ATOM     21  C   UNL     1      34.822 -17.656 -23.408  0.00  0.00    +0.001 C 
ATOM     22  C   UNL     1      35.398 -17.165 -22.236  0.00  0.00    -0.000 C 
ATOM     23  C   UNL     1      34.658 -19.031 -23.579  0.00  0.00    -0.000 C 
ATOM     24  C   UNL     1      35.644 -19.421 -21.409  0.00  0.00    -0.011 C 
ATOM     25  C   UNL     1      35.809 -18.047 -21.237  0.00  0.00    -0.004 C 
ATOM     26  C   UNL     1      35.069 -19.914 -22.580  0.00  0.00    -0.004 C 
BRANCH  24  27
ATOM     27  C   UNL     1      36.082 -20.364 -20.339  0.00  0.00    +0.136 C 
BRANCH  27  29
ATOM     28  O   UNL     1      33.798 -21.090 -19.907  0.00  0.00    -0.250 OA
ATOM     29  C   UNL     1      34.998 -21.330 -19.904  0.00  0.00    +0.318 C 
BRANCH  29  30
ATOM     30  O   UNL     1      35.513 -22.521 -19.499  0.00  0.00    -0.480 OA
ATOM     31  H   UNL     1      35.756 -23.166 -20.134  0.00  0.00    +0.295 HD
ENDBRANCH  29  30
ENDBRANCH  27  29
ENDBRANCH  24  27
ENDBRANCH   4  21
TORSDOF 5
ENDMDL
MODEL 8
REMARK VINA RESULT:     -10.9      6.622     10.486
REMARK  Name = 11952989
REMARK  5 active torsions:
REMARK  status: ('A' for Active; 'I' for Inactive)
REMARK    1  A    between atoms: C_4  and  C_21
REMARK    2  A    between atoms: C_6  and  C_11
REMARK    3  A    between atoms: C_24  and  C_27
REMARK    4  A    between atoms: C_27  and  C_29
REMARK    5  A    between atoms: C_29  and  O_30
REMARK                            x       y       z     vdW  Elec       q    Type
REMARK                         _______ _______ _______ _____ _____    ______ ____
ROOT
ATOM      1  N   UNL     1      30.854 -23.407 -16.390  0.00  0.00    -0.297 N 
ATOM      2  N   UNL     1      32.024 -24.580 -14.640  0.00  0.00    -0.229 NA
ATOM      3  C   UNL     1      33.084 -23.392 -16.506  0.00  0.00    +0.033 C 
ATOM      4  C   UNL     1      32.562 -22.660 -17.605  0.00  0.00    +0.017 C 
ATOM      5  C   UNL     1      31.994 -23.844 -15.767  0.00  0.00    +0.132 C 
ATOM      6  C   UNL     1      34.452 -24.491 -14.877  0.00  0.00    +0.019 C 
ATOM      7  C   UNL     1      34.365 -23.729 -16.040  0.00  0.00    +0.004 C 
ATOM      8  C   UNL     1      31.187 -22.687 -17.507  0.00  0.00    +0.063 C 
ATOM      9  C   UNL     1      33.282 -24.875 -14.238  0.00  0.00    +0.100 C 
ATOM     10  H   UNL     1      29.935 -23.584 -16.081  0.00  0.00    +0.154 HD
ENDROOT
BRANCH   6  11
ATOM     11  C   UNL     1      35.742 -24.873 -14.344  0.00  0.00    +0.001 C 
ATOM     12  C   UNL     1      38.113 -25.299 -14.686  0.00  0.00    +0.000 C 
ATOM     13  C   UNL     1      36.854 -24.930 -15.186  0.00  0.00    +0.000 C 
ATOM     14  C   UNL     1      38.247 -25.615 -13.312  0.00  0.00    +0.000 C 
ATOM     15  C   UNL     1      35.873 -25.184 -12.994  0.00  0.00    +0.000 C 
ATOM     16  C   UNL     1      37.117 -25.552 -12.480  0.00  0.00    +0.000 C 
ATOM     17  C   UNL     1      39.243 -25.362 -15.518  0.00  0.00    +0.000 C 
ATOM     18  C   UNL     1      39.506 -25.985 -12.812  0.00  0.00    +0.000 C 
ATOM     19  C   UNL     1      40.486 -25.732 -15.003  0.00  0.00    +0.000 C 
ATOM     20  C   UNL     1      40.618 -26.042 -13.653  0.00  0.00    +0.000 C 
ENDBRANCH   6  11
BRANCH   4  21
ATOM     21  C   UNL     1      33.244 -21.984 -18.671  0.00  0.00    +0.001 C 
ATOM     22  C   UNL     1      32.523 -21.213 -19.583  0.00  0.00    -0.000 C 
ATOM     23  C   UNL     1      34.629 -22.097 -18.796  0.00  0.00    -0.000 C 
ATOM     24  C   UNL     1      34.572 -20.669 -20.743  0.00  0.00    -0.011 C 
ATOM     25  C   UNL     1      33.188 -20.556 -20.619  0.00  0.00    -0.004 C 
ATOM     26  C   UNL     1      35.293 -21.440 -19.831  0.00  0.00    -0.004 C 
BRANCH  24  27
ATOM     27  C   UNL     1      35.282 -19.964 -21.850  0.00  0.00    +0.136 C 
BRANCH  27  29
ATOM     28  O   UNL     1      37.456 -18.944 -21.448  0.00  0.00    -0.250 OA
ATOM     29  C   UNL     1      36.236 -18.890 -21.368  0.00  0.00    +0.318 C 
BRANCH  29  30
ATOM     30  O   UNL     1      35.577 -17.833 -20.824  0.00  0.00    -0.480 OA
ATOM     31  H   UNL     1      34.881 -17.421 -21.297  0.00  0.00    +0.295 HD
ENDBRANCH  29  30
ENDBRANCH  27  29
ENDBRANCH  24  27
ENDBRANCH   4  21
TORSDOF 5
ENDMDL
MODEL 9
REMARK VINA RESULT:     -10.7      4.457      7.338
REMARK  Name = 11952989
REMARK  5 active torsions:
REMARK  status: ('A' for Active; 'I' for Inactive)
REMARK    1  A    between atoms: C_4  and  C_21
REMARK    2  A    between atoms: C_6  and  C_11
REMARK    3  A    between atoms: C_24  and  C_27
REMARK    4  A    between atoms: C_27  and  C_29
REMARK    5  A    between atoms: C_29  and  O_30
REMARK                            x       y       z     vdW  Elec       q    Type
REMARK                         _______ _______ _______ _____ _____    ______ ____
ROOT
ATOM      1  N   UNL     1      31.634  -8.392 -20.219  0.00  0.00    -0.297 N 
ATOM      2  N   UNL     1      31.729 -10.799 -20.265  0.00  0.00    -0.229 NA
ATOM      3  C   UNL     1      32.498  -9.315 -22.059  0.00  0.00    +0.033 C 
ATOM      4  C   UNL     1      32.520  -7.902 -22.200  0.00  0.00    +0.017 C 
ATOM      5  C   UNL     1      31.941  -9.588 -20.813  0.00  0.00    +0.132 C 
ATOM      6  C   UNL     1      32.692 -11.687 -22.324  0.00  0.00    +0.019 C 
ATOM      7  C   UNL     1      32.890 -10.411 -22.845  0.00  0.00    +0.004 C 
ATOM      8  C   UNL     1      31.982  -7.361 -21.053  0.00  0.00    +0.063 C 
ATOM      9  C   UNL     1      32.124 -11.816 -21.065  0.00  0.00    +0.100 C 
ATOM     10  H   UNL     1      31.226  -8.288 -19.328  0.00  0.00    +0.154 HD
ENDROOT
BRANCH   6  11
ATOM     11  C   UNL     1      33.074 -12.858 -23.084  0.00  0.00    +0.001 C 
ATOM     12  C   UNL     1      34.183 -15.020 -23.195  0.00  0.00    +0.000 C 
ATOM     13  C   UNL     1      33.805 -13.877 -22.472  0.00  0.00    +0.000 C 
ATOM     14  C   UNL     1      33.815 -15.131 -24.558  0.00  0.00    +0.000 C 
ATOM     15  C   UNL     1      32.712 -12.966 -24.423  0.00  0.00    +0.000 C 
ATOM     16  C   UNL     1      33.079 -14.095 -25.156  0.00  0.00    +0.000 C 
ATOM     17  C   UNL     1      34.919 -16.056 -22.596  0.00  0.00    +0.000 C 
ATOM     18  C   UNL     1      34.194 -16.274 -25.280  0.00  0.00    +0.000 C 
ATOM     19  C   UNL     1      35.286 -17.184 -23.331  0.00  0.00    +0.000 C 
ATOM     20  C   UNL     1      34.925 -17.293 -24.670  0.00  0.00    +0.000 C 
ENDBRANCH   6  11
BRANCH   4  21
ATOM     21  C   UNL     1      32.988  -7.091 -23.287  0.00  0.00    +0.001 C 
ATOM     22  C   UNL     1      34.355  -7.007 -23.558  0.00  0.00    -0.000 C 
ATOM     23  C   UNL     1      32.078  -6.386 -24.075  0.00  0.00    -0.000 C 
ATOM     24  C   UNL     1      33.899  -5.515 -25.402  0.00  0.00    -0.011 C 
ATOM     25  C   UNL     1      34.809  -6.219 -24.615  0.00  0.00    -0.004 C 
ATOM     26  C   UNL     1      32.533  -5.598 -25.132  0.00  0.00    -0.004 C 
BRANCH  24  27
ATOM     27  C   UNL     1      34.386  -4.674 -26.534  0.00  0.00    +0.136 C 
BRANCH  27  29
ATOM     28  O   UNL     1      33.478  -2.493 -25.943  0.00  0.00    -0.250 OA
ATOM     29  C   UNL     1      33.572  -3.413 -26.745  0.00  0.00    +0.318 C 
BRANCH  29  30
ATOM     30  O   UNL     1      32.942  -3.412 -27.949  0.00  0.00    -0.480 OA
ATOM     31  H   UNL     1      32.185  -3.950 -28.082  0.00  0.00    +0.295 HD
ENDBRANCH  29  30
ENDBRANCH  27  29
ENDBRANCH  24  27
ENDBRANCH   4  21
TORSDOF 5
ENDMDL
