MODEL 1
REMARK VINA RESULT:     -11.5      0.000      0.000
REMARK  Name = 445481
REMARK  5 active torsions:
REMARK  status: ('A' for Active; 'I' for Inactive)
REMARK    1  A    between atoms: N_2  and  C_21
REMARK    2  A    between atoms: C_3  and  N_7
REMARK    3  A    between atoms: N_7  and  S_9
REMARK    4  A    between atoms: S_9  and  C_14
REMARK    5  A    between atoms: C_21  and  C_24
REMARK                            x       y       z     vdW  Elec       q    Type
REMARK                         _______ _______ _______ _____ _____    ______ ____
ROOT
ATOM      1  O   UNL     1      36.923 -20.674 -19.967  0.00  0.00    -0.273 OA
ATOM      2  N   UNL     1      35.466 -19.576 -21.453  0.00  0.00    -0.273 N 
ATOM      3  C   UNL     1      34.602 -21.352 -20.216  0.00  0.00    +0.153 C 
ATOM      4  C   UNL     1      33.458 -20.492 -20.743  0.00  0.00    +0.048 C 
ATOM      5  C   UNL     1      34.092 -19.711 -21.877  0.00  0.00    +0.096 C 
ATOM      6  C   UNL     1      35.828 -20.515 -20.487  0.00  0.00    +0.242 C 
ENDROOT
BRANCH   3   7
ATOM      7  N   UNL     1      34.473 -21.576 -18.772  0.00  0.00    -0.171 NA
ATOM      8  H   UNL     1      35.417 -21.661 -18.394  0.00  0.00    +0.149 HD
BRANCH   7   9
ATOM      9  S   UNL     1      33.588 -22.945 -18.243  0.00  0.00    +0.066 S 
ATOM     10  O   UNL     1      33.976 -24.098 -19.032  0.00  0.00    -0.152 OA
ATOM     11  O   UNL     1      32.195 -22.577 -18.082  0.00  0.00    -0.152 OA
BRANCH   9  14
ATOM     12  S   UNL     1      35.747 -22.917 -16.280  0.00  0.00    -0.066 S 
ATOM     13  N   UNL     1      33.986 -24.413 -13.150  0.00  0.00    -0.243 NA
ATOM     14  C   UNL     1      34.125 -23.306 -16.571  0.00  0.00    +0.153 C 
ATOM     15  C   UNL     1      33.478 -23.830 -15.505  0.00  0.00    +0.046 C 
ATOM     16  C   UNL     1      34.340 -23.928 -14.372  0.00  0.00    +0.089 C 
ATOM     17  C   UNL     1      35.625 -23.461 -14.654  0.00  0.00    +0.048 C 
ATOM     18  C   UNL     1      36.612 -23.478 -13.658  0.00  0.00    +0.010 C 
ATOM     19  C   UNL     1      36.256 -23.972 -12.409  0.00  0.00    +0.021 C 
ATOM     20  C   UNL     1      34.961 -24.415 -12.218  0.00  0.00    +0.099 C 
ENDBRANCH   9  14
ENDBRANCH   7   9
ENDBRANCH   3   7
BRANCH   2  21
ATOM     21  C   UNL     1      36.365 -18.635 -22.085  0.00  0.00    +0.135 C 
BRANCH  21  24
ATOM     22  N   UNL     1      35.186 -17.629 -24.022  0.00  0.00    -0.313 N 
ATOM     23  N   UNL     1      33.286 -14.927 -25.669  0.00  0.00    -0.241 NA
ATOM     24  C   UNL     1      35.592 -17.520 -22.733  0.00  0.00    +0.046 C 
ATOM     25  C   UNL     1      35.194 -16.326 -22.223  0.00  0.00    +0.013 C 
ATOM     26  C   UNL     1      34.495 -15.648 -23.261  0.00  0.00    +0.017 C 
ATOM     27  C   UNL     1      34.505 -16.488 -24.376  0.00  0.00    +0.068 C 
ATOM     28  C   UNL     1      33.855 -14.405 -23.362  0.00  0.00    +0.022 C 
ATOM     29  C   UNL     1      33.903 -16.128 -25.575  0.00  0.00    +0.113 C 
ATOM     30  C   UNL     1      33.275 -14.113 -24.590  0.00  0.00    +0.099 C 
ATOM     31  H   UNL     1      35.353 -18.401 -24.610  0.00  0.00    +0.152 HD
ENDBRANCH  21  24
ENDBRANCH   2  21
TORSDOF 5
ENDMDL
MODEL 2
REMARK VINA RESULT:     -11.3      0.842      1.142
REMARK  Name = 445481
REMARK  5 active torsions:
REMARK  status: ('A' for Active; 'I' for Inactive)
REMARK    1  A    between atoms: N_2  and  C_21
REMARK    2  A    between atoms: C_3  and  N_7
REMARK    3  A    between atoms: N_7  and  S_9
REMARK    4  A    between atoms: S_9  and  C_14
REMARK    5  A    between atoms: C_21  and  C_24
REMARK                            x       y       z     vdW  Elec       q    Type
REMARK                         _______ _______ _______ _____ _____    ______ ____
ROOT
ATOM      1  O   UNL     1      36.881 -20.491 -20.022  0.00  0.00    -0.273 OA
ATOM      2  N   UNL     1      35.443 -19.449 -21.565  0.00  0.00    -0.273 N 
ATOM      3  C   UNL     1      34.589 -21.234 -20.334  0.00  0.00    +0.153 C 
ATOM      4  C   UNL     1      33.438 -20.412 -20.906  0.00  0.00    +0.048 C 
ATOM      5  C   UNL     1      34.087 -19.627 -22.029  0.00  0.00    +0.096 C 
ATOM      6  C   UNL     1      35.799 -20.367 -20.577  0.00  0.00    +0.242 C 
ENDROOT
BRANCH   3   7
ATOM      7  N   UNL     1      34.421 -21.446 -18.892  0.00  0.00    -0.171 NA
ATOM      8  H   UNL     1      35.352 -21.447 -18.476  0.00  0.00    +0.149 HD
BRANCH   7   9
ATOM      9  S   UNL     1      33.630 -22.875 -18.372  0.00  0.00    +0.066 S 
ATOM     10  O   UNL     1      34.034 -23.980 -19.219  0.00  0.00    -0.152 OA
ATOM     11  O   UNL     1      32.230 -22.583 -18.131  0.00  0.00    -0.152 OA
BRANCH   9  14
ATOM     12  S   UNL     1      33.069 -23.751 -15.645  0.00  0.00    -0.066 S 
ATOM     13  N   UNL     1      36.624 -23.724 -14.063  0.00  0.00    -0.243 NA
ATOM     14  C   UNL     1      34.265 -23.265 -16.742  0.00  0.00    +0.153 C 
ATOM     15  C   UNL     1      35.516 -23.243 -16.228  0.00  0.00    +0.046 C 
ATOM     16  C   UNL     1      35.521 -23.644 -14.857  0.00  0.00    +0.089 C 
ATOM     17  C   UNL     1      34.239 -23.953 -14.401  0.00  0.00    +0.048 C 
ATOM     18  C   UNL     1      34.047 -24.368 -13.075  0.00  0.00    +0.010 C 
ATOM     19  C   UNL     1      35.169 -24.452 -12.260  0.00  0.00    +0.021 C 
ATOM     20  C   UNL     1      36.401 -24.126 -12.795  0.00  0.00    +0.099 C 
ENDBRANCH   9  14
ENDBRANCH   7   9
ENDBRANCH   3   7
BRANCH   2  21
ATOM     21  C   UNL     1      36.335 -18.491 -22.180  0.00  0.00    +0.135 C 
BRANCH  21  24
ATOM     22  N   UNL     1      35.124 -17.541 -24.124  0.00  0.00    -0.313 N 
ATOM     23  N   UNL     1      33.200 -14.884 -25.817  0.00  0.00    -0.241 NA
ATOM     24  C   UNL     1      35.553 -17.394 -22.847  0.00  0.00    +0.046 C 
ATOM     25  C   UNL     1      35.168 -16.184 -22.366  0.00  0.00    +0.013 C 
ATOM     26  C   UNL     1      34.451 -15.535 -23.411  0.00  0.00    +0.017 C 
ATOM     27  C   UNL     1      34.439 -16.408 -24.500  0.00  0.00    +0.068 C 
ATOM     28  C   UNL     1      33.813 -14.294 -23.537  0.00  0.00    +0.022 C 
ATOM     29  C   UNL     1      33.816 -16.083 -25.698  0.00  0.00    +0.113 C 
ATOM     30  C   UNL     1      33.212 -14.037 -24.763  0.00  0.00    +0.099 C 
ATOM     31  H   UNL     1      35.278 -18.330 -24.692  0.00  0.00    +0.152 HD
ENDBRANCH  21  24
ENDBRANCH   2  21
TORSDOF 5
ENDMDL
MODEL 3
REMARK VINA RESULT:     -10.9      2.548     10.402
REMARK  Name = 445481
REMARK  5 active torsions:
REMARK  status: ('A' for Active; 'I' for Inactive)
REMARK    1  A    between atoms: N_2  and  C_21
REMARK    2  A    between atoms: C_3  and  N_7
REMARK    3  A    between atoms: N_7  and  S_9
REMARK    4  A    between atoms: S_9  and  C_14
REMARK    5  A    between atoms: C_21  and  C_24
REMARK                            x       y       z     vdW  Elec       q    Type
REMARK                         _______ _______ _______ _____ _____    ______ ____
ROOT
ATOM      1  O   UNL     1      36.233 -21.638 -20.024  0.00  0.00    -0.273 OA
ATOM      2  N   UNL     1      34.009 -22.227 -19.534  0.00  0.00    -0.273 N 
ATOM      3  C   UNL     1      34.380 -20.140 -20.503  0.00  0.00    +0.153 C 
ATOM      4  C   UNL     1      32.919 -20.536 -20.687  0.00  0.00    +0.048 C 
ATOM      5  C   UNL     1      32.707 -21.612 -19.640  0.00  0.00    +0.096 C 
ATOM      6  C   UNL     1      35.032 -21.411 -20.016  0.00  0.00    +0.242 C 
ENDROOT
BRANCH   3   7
ATOM      7  N   UNL     1      34.985 -19.740 -21.778  0.00  0.00    -0.171 NA
ATOM      8  H   UNL     1      35.523 -20.536 -22.122  0.00  0.00    +0.149 HD
BRANCH   7   9
ATOM      9  S   UNL     1      36.028 -18.379 -21.787  0.00  0.00    +0.066 S 
ATOM     10  O   UNL     1      37.244 -18.715 -22.501  0.00  0.00    -0.152 OA
ATOM     11  O   UNL     1      36.069 -17.805 -20.456  0.00  0.00    -0.152 OA
BRANCH   9  14
ATOM     12  S   UNL     1      34.749 -17.641 -24.304  0.00  0.00    -0.066 S 
ATOM     13  N   UNL     1      33.878 -13.901 -23.677  0.00  0.00    -0.243 NA
ATOM     14  C   UNL     1      35.230 -17.110 -22.769  0.00  0.00    +0.153 C 
ATOM     15  C   UNL     1      34.944 -15.813 -22.514  0.00  0.00    +0.046 C 
ATOM     16  C   UNL     1      34.292 -15.197 -23.625  0.00  0.00    +0.089 C 
ATOM     17  C   UNL     1      34.119 -16.088 -24.685  0.00  0.00    +0.048 C 
ATOM     18  C   UNL     1      33.494 -15.660 -25.866  0.00  0.00    +0.010 C 
ATOM     19  C   UNL     1      33.069 -14.339 -25.925  0.00  0.00    +0.021 C 
ATOM     20  C   UNL     1      33.282 -13.526 -24.827  0.00  0.00    +0.099 C 
ENDBRANCH   9  14
ENDBRANCH   7   9
ENDBRANCH   3   7
BRANCH   2  21
ATOM     21  C   UNL     1      34.193 -23.501 -18.875  0.00  0.00    +0.135 C 
BRANCH  21  24
ATOM     22  N   UNL     1      34.164 -23.911 -16.429  0.00  0.00    -0.313 N 
ATOM     23  N   UNL     1      32.518 -23.955 -13.125  0.00  0.00    -0.241 NA
ATOM     24  C   UNL     1      33.500 -23.510 -17.541  0.00  0.00    +0.046 C 
ATOM     25  C   UNL     1      32.227 -23.164 -17.219  0.00  0.00    +0.013 C 
ATOM     26  C   UNL     1      32.089 -23.360 -15.816  0.00  0.00    +0.017 C 
ATOM     27  C   UNL     1      33.318 -23.828 -15.348  0.00  0.00    +0.068 C 
ATOM     28  C   UNL     1      31.043 -23.187 -14.900  0.00  0.00    +0.022 C 
ATOM     29  C   UNL     1      33.531 -24.125 -14.007  0.00  0.00    +0.113 C 
ATOM     30  C   UNL     1      31.327 -23.503 -13.578  0.00  0.00    +0.099 C 
ATOM     31  H   UNL     1      35.100 -24.212 -16.400  0.00  0.00    +0.152 HD
ENDBRANCH  21  24
ENDBRANCH   2  21
TORSDOF 5
ENDMDL
MODEL 4
REMARK VINA RESULT:     -10.9      1.947      2.514
REMARK  Name = 445481
REMARK  5 active torsions:
REMARK  status: ('A' for Active; 'I' for Inactive)
REMARK    1  A    between atoms: N_2  and  C_21
REMARK    2  A    between atoms: C_3  and  N_7
REMARK    3  A    between atoms: N_7  and  S_9
REMARK    4  A    between atoms: S_9  and  C_14
REMARK    5  A    between atoms: C_21  and  C_24
REMARK                            x       y       z     vdW  Elec       q    Type
REMARK                         _______ _______ _______ _____ _____    ______ ____
ROOT
ATOM      1  O   UNL     1      36.598 -20.389 -20.119  0.00  0.00    -0.273 OA
ATOM      2  N   UNL     1      35.220 -19.327 -21.703  0.00  0.00    -0.273 N 
ATOM      3  C   UNL     1      34.323 -21.136 -20.539  0.00  0.00    +0.153 C 
ATOM      4  C   UNL     1      33.194 -20.309 -21.145  0.00  0.00    +0.048 C 
ATOM      5  C   UNL     1      33.885 -19.502 -22.227  0.00  0.00    +0.096 C 
ATOM      6  C   UNL     1      35.539 -20.261 -20.717  0.00  0.00    +0.242 C 
ENDROOT
BRANCH   3   7
ATOM      7  N   UNL     1      34.096 -21.373 -19.109  0.00  0.00    -0.171 NA
ATOM      8  H   UNL     1      34.633 -20.672 -18.598  0.00  0.00    +0.149 HD
BRANCH   7   9
ATOM      9  S   UNL     1      34.519 -22.905 -18.467  0.00  0.00    +0.066 S 
ATOM     10  O   UNL     1      35.805 -22.807 -17.804  0.00  0.00    -0.152 OA
ATOM     11  O   UNL     1      34.261 -23.926 -19.464  0.00  0.00    -0.152 OA
BRANCH   9  14
ATOM     12  S   UNL     1      34.054 -23.845 -15.743  0.00  0.00    -0.066 S 
ATOM     13  N   UNL     1      30.179 -23.628 -15.486  0.00  0.00    -0.243 NA
ATOM     14  C   UNL     1      33.339 -23.276 -17.169  0.00  0.00    +0.153 C 
ATOM     15  C   UNL     1      31.991 -23.186 -17.118  0.00  0.00    +0.046 C 
ATOM     16  C   UNL     1      31.491 -23.603 -15.848  0.00  0.00    +0.089 C 
ATOM     17  C   UNL     1      32.518 -23.994 -14.987  0.00  0.00    +0.048 C 
ATOM     18  C   UNL     1      32.217 -24.435 -13.691  0.00  0.00    +0.010 C 
ATOM     19  C   UNL     1      30.879 -24.463 -13.316  0.00  0.00    +0.021 C 
ATOM     20  C   UNL     1      29.927 -24.058 -14.233  0.00  0.00    +0.099 C 
ENDBRANCH   9  14
ENDBRANCH   7   9
ENDBRANCH   3   7
BRANCH   2  21
ATOM     21  C   UNL     1      36.133 -18.356 -22.265  0.00  0.00    +0.135 C 
BRANCH  21  24
ATOM     22  N   UNL     1      35.146 -16.097 -22.540  0.00  0.00    -0.313 N 
ATOM     23  N   UNL     1      33.310 -13.525 -24.446  0.00  0.00    -0.241 NA
ATOM     24  C   UNL     1      35.382 -17.325 -23.062  0.00  0.00    +0.046 C 
ATOM     25  C   UNL     1      34.853 -17.406 -24.310  0.00  0.00    +0.013 C 
ATOM     26  C   UNL     1      34.249 -16.147 -24.584  0.00  0.00    +0.017 C 
ATOM     27  C   UNL     1      34.448 -15.346 -23.457  0.00  0.00    +0.068 C 
ATOM     28  C   UNL     1      33.555 -15.609 -25.676  0.00  0.00    +0.022 C 
ATOM     29  C   UNL     1      33.980 -14.041 -23.389  0.00  0.00    +0.113 C 
ATOM     30  C   UNL     1      33.116 -14.299 -25.537  0.00  0.00    +0.099 C 
ATOM     31  H   UNL     1      35.428 -15.792 -21.648  0.00  0.00    +0.152 HD
ENDBRANCH  21  24
ENDBRANCH   2  21
TORSDOF 5
ENDMDL
MODEL 5
REMARK VINA RESULT:     -10.4      2.173      2.754
REMARK  Name = 445481
REMARK  5 active torsions:
REMARK  status: ('A' for Active; 'I' for Inactive)
REMARK    1  A    between atoms: N_2  and  C_21
REMARK    2  A    between atoms: C_3  and  N_7
REMARK    3  A    between atoms: N_7  and  S_9
REMARK    4  A    between atoms: S_9  and  C_14
REMARK    5  A    between atoms: C_21  and  C_24
REMARK                            x       y       z     vdW  Elec       q    Type
REMARK                         _______ _______ _______ _____ _____    ______ ____
ROOT
ATOM      1  O   UNL     1      36.933 -19.194 -20.206  0.00  0.00    -0.273 OA
ATOM      2  N   UNL     1      35.499 -18.630 -21.984  0.00  0.00    -0.273 N 
ATOM      3  C   UNL     1      35.086 -20.631 -20.862  0.00  0.00    +0.153 C 
ATOM      4  C   UNL     1      33.838 -20.210 -21.630  0.00  0.00    +0.048 C 
ATOM      5  C   UNL     1      34.366 -19.224 -22.654  0.00  0.00    +0.096 C 
ATOM      6  C   UNL     1      35.972 -19.411 -20.930  0.00  0.00    +0.242 C 
ENDROOT
BRANCH   3   7
ATOM      7  N   UNL     1      34.770 -20.927 -19.461  0.00  0.00    -0.171 NA
ATOM      8  H   UNL     1      35.298 -20.271 -18.886  0.00  0.00    +0.149 HD
BRANCH   7   9
ATOM      9  S   UNL     1      35.105 -22.503 -18.872  0.00  0.00    +0.066 S 
ATOM     10  O   UNL     1      36.363 -22.486 -18.152  0.00  0.00    -0.152 OA
ATOM     11  O   UNL     1      34.852 -23.467 -19.926  0.00  0.00    -0.152 OA
BRANCH   9  14
ATOM     12  S   UNL     1      34.493 -23.415 -16.168  0.00  0.00    -0.066 S 
ATOM     13  N   UNL     1      30.605 -23.285 -16.154  0.00  0.00    -0.243 NA
ATOM     14  C   UNL     1      33.856 -22.883 -17.644  0.00  0.00    +0.153 C 
ATOM     15  C   UNL     1      32.505 -22.824 -17.678  0.00  0.00    +0.046 C 
ATOM     16  C   UNL     1      31.936 -23.234 -16.434  0.00  0.00    +0.089 C 
ATOM     17  C   UNL     1      32.917 -23.589 -15.506  0.00  0.00    +0.048 C 
ATOM     18  C   UNL     1      32.546 -24.019 -14.224  0.00  0.00    +0.010 C 
ATOM     19  C   UNL     1      31.189 -24.073 -13.932  0.00  0.00    +0.021 C 
ATOM     20  C   UNL     1      30.287 -23.703 -14.912  0.00  0.00    +0.099 C 
ENDBRANCH   9  14
ENDBRANCH   7   9
ENDBRANCH   3   7
BRANCH   2  21
ATOM     21  C   UNL     1      36.118 -17.418 -22.472  0.00  0.00    +0.135 C 
BRANCH  21  24
ATOM     22  N   UNL     1      34.808 -15.516 -23.378  0.00  0.00    -0.313 N 
ATOM     23  N   UNL     1      32.534 -12.630 -23.026  0.00  0.00    -0.241 NA
ATOM     24  C   UNL     1      35.190 -16.246 -22.302  0.00  0.00    +0.046 C 
ATOM     25  C   UNL     1      34.619 -15.745 -21.177  0.00  0.00    +0.013 C 
ATOM     26  C   UNL     1      33.830 -14.630 -21.577  0.00  0.00    +0.017 C 
ATOM     27  C   UNL     1      33.967 -14.510 -22.961  0.00  0.00    +0.068 C 
ATOM     28  C   UNL     1      33.013 -13.713 -20.901  0.00  0.00    +0.022 C 
ATOM     29  C   UNL     1      33.322 -13.514 -23.682  0.00  0.00    +0.113 C 
ATOM     30  C   UNL     1      32.400 -12.745 -21.685  0.00  0.00    +0.099 C 
ATOM     31  H   UNL     1      35.089 -15.678 -24.307  0.00  0.00    +0.152 HD
ENDBRANCH  21  24
ENDBRANCH   2  21
TORSDOF 5
ENDMDL
MODEL 6
REMARK VINA RESULT:     -10.3      2.551     10.544
REMARK  Name = 445481
REMARK  5 active torsions:
REMARK  status: ('A' for Active; 'I' for Inactive)
REMARK    1  A    between atoms: N_2  and  C_21
REMARK    2  A    between atoms: C_3  and  N_7
REMARK    3  A    between atoms: N_7  and  S_9
REMARK    4  A    between atoms: S_9  and  C_14
REMARK    5  A    between atoms: C_21  and  C_24
REMARK                            x       y       z     vdW  Elec       q    Type
REMARK                         _______ _______ _______ _____ _____    ______ ____
ROOT
ATOM      1  O   UNL     1      32.554 -20.759 -20.397  0.00  0.00    -0.273 OA
ATOM      2  N   UNL     1      33.953 -22.070 -19.033  0.00  0.00    -0.273 N 
ATOM      3  C   UNL     1      34.958 -20.845 -20.742  0.00  0.00    +0.153 C 
ATOM      4  C   UNL     1      36.009 -21.237 -19.709  0.00  0.00    +0.048 C 
ATOM      5  C   UNL     1      35.360 -22.385 -18.960  0.00  0.00    +0.096 C 
ATOM      6  C   UNL     1      33.653 -21.179 -20.064  0.00  0.00    +0.242 C 
ENDROOT
BRANCH   3   7
ATOM      7  N   UNL     1      35.007 -19.406 -21.025  0.00  0.00    -0.171 NA
ATOM      8  H   UNL     1      34.043 -19.077 -21.088  0.00  0.00    +0.149 HD
BRANCH   7   9
ATOM      9  S   UNL     1      35.814 -18.889 -22.447  0.00  0.00    +0.066 S 
ATOM     10  O   UNL     1      35.439 -19.753 -23.549  0.00  0.00    -0.152 OA
ATOM     11  O   UNL     1      37.206 -18.628 -22.134  0.00  0.00    -0.152 OA
BRANCH   9  14
ATOM     12  S   UNL     1      34.494 -17.188 -24.417  0.00  0.00    -0.066 S 
ATOM     13  N   UNL     1      34.286 -13.799 -22.517  0.00  0.00    -0.243 NA
ATOM     14  C   UNL     1      35.164 -17.272 -22.863  0.00  0.00    +0.153 C 
ATOM     15  C   UNL     1      35.110 -16.111 -22.171  0.00  0.00    +0.046 C 
ATOM     16  C   UNL     1      34.488 -15.079 -22.936  0.00  0.00    +0.089 C 
ATOM     17  C   UNL     1      34.097 -15.530 -24.197  0.00  0.00    +0.048 C 
ATOM     18  C   UNL     1      33.467 -14.653 -25.092  0.00  0.00    +0.010 C 
ATOM     19  C   UNL     1      33.258 -13.346 -24.670  0.00  0.00    +0.021 C 
ATOM     20  C   UNL     1      33.678 -12.985 -23.403  0.00  0.00    +0.099 C 
ENDBRANCH   9  14
ENDBRANCH   7   9
ENDBRANCH   3   7
BRANCH   2  21
ATOM     21  C   UNL     1      32.983 -22.733 -18.189  0.00  0.00    +0.135 C 
BRANCH  21  24
ATOM     22  N   UNL     1      32.823 -23.537 -15.848  0.00  0.00    -0.313 N 
ATOM     23  N   UNL     1      34.284 -24.487 -12.594  0.00  0.00    -0.241 NA
ATOM     24  C   UNL     1      33.603 -23.114 -16.873  0.00  0.00    +0.046 C 
ATOM     25  C   UNL     1      34.906 -23.111 -16.492  0.00  0.00    +0.013 C 
ATOM     26  C   UNL     1      34.941 -23.562 -15.142  0.00  0.00    +0.017 C 
ATOM     27  C   UNL     1      33.622 -23.822 -14.765  0.00  0.00    +0.068 C 
ATOM     28  C   UNL     1      35.961 -23.775 -14.205  0.00  0.00    +0.022 C 
ATOM     29  C   UNL     1      33.295 -24.282 -13.496  0.00  0.00    +0.113 C 
ATOM     30  C   UNL     1      35.561 -24.235 -12.957  0.00  0.00    +0.099 C 
ATOM     31  H   UNL     1      31.843 -23.626 -15.875  0.00  0.00    +0.152 HD
ENDBRANCH  21  24
ENDBRANCH   2  21
TORSDOF 5
ENDMDL
MODEL 7
REMARK VINA RESULT:     -10.2      2.679     10.464
REMARK  Name = 445481
REMARK  5 active torsions:
REMARK  status: ('A' for Active; 'I' for Inactive)
REMARK    1  A    between atoms: N_2  and  C_21
REMARK    2  A    between atoms: C_3  and  N_7
REMARK    3  A    between atoms: N_7  and  S_9
REMARK    4  A    between atoms: S_9  and  C_14
REMARK    5  A    between atoms: C_21  and  C_24
REMARK                            x       y       z     vdW  Elec       q    Type
REMARK                         _______ _______ _______ _____ _____    ______ ____
ROOT
ATOM      1  O   UNL     1      32.479 -20.790 -20.266  0.00  0.00    -0.273 OA
ATOM      2  N   UNL     1      34.128 -22.032 -19.137  0.00  0.00    -0.273 N 
ATOM      3  C   UNL     1      34.794 -20.813 -21.008  0.00  0.00    +0.153 C 
ATOM      4  C   UNL     1      36.015 -21.154 -20.160  0.00  0.00    +0.048 C 
ATOM      5  C   UNL     1      35.537 -22.305 -19.295  0.00  0.00    +0.096 C 
ATOM      6  C   UNL     1      33.631 -21.171 -20.116  0.00  0.00    +0.242 C 
ENDROOT
BRANCH   3   7
ATOM      7  N   UNL     1      34.749 -19.380 -21.317  0.00  0.00    -0.171 NA
ATOM      8  H   UNL     1      33.773 -19.139 -21.494  0.00  0.00    +0.149 HD
BRANCH   7   9
ATOM      9  S   UNL     1      35.663 -18.811 -22.651  0.00  0.00    +0.066 S 
ATOM     10  O   UNL     1      35.373 -19.629 -23.812  0.00  0.00    -0.152 OA
ATOM     11  O   UNL     1      37.028 -18.569 -22.223  0.00  0.00    -0.152 OA
BRANCH   9  14
ATOM     12  S   UNL     1      34.360 -17.068 -24.595  0.00  0.00    -0.066 S 
ATOM     13  N   UNL     1      34.270 -13.683 -22.680  0.00  0.00    -0.243 NA
ATOM     14  C   UNL     1      35.050 -17.176 -23.052  0.00  0.00    +0.153 C 
ATOM     15  C   UNL     1      35.037 -16.017 -22.354  0.00  0.00    +0.046 C 
ATOM     16  C   UNL     1      34.432 -14.965 -23.106  0.00  0.00    +0.089 C 
ATOM     17  C   UNL     1      34.010 -15.401 -24.363  0.00  0.00    +0.048 C 
ATOM     18  C   UNL     1      33.390 -14.504 -25.245  0.00  0.00    +0.010 C 
ATOM     19  C   UNL     1      33.222 -13.193 -24.815  0.00  0.00    +0.021 C 
ATOM     20  C   UNL     1      33.670 -12.849 -23.554  0.00  0.00    +0.099 C 
ENDBRANCH   9  14
ENDBRANCH   7   9
ENDBRANCH   3   7
BRANCH   2  21
ATOM     21  C   UNL     1      33.334 -22.706 -18.132  0.00  0.00    +0.135 C 
BRANCH  21  24
ATOM     22  N   UNL     1      35.486 -22.701 -16.898  0.00  0.00    -0.313 N 
ATOM     23  N   UNL     1      37.628 -23.594 -14.028  0.00  0.00    -0.241 NA
ATOM     24  C   UNL     1      34.186 -23.082 -16.952  0.00  0.00    +0.046 C 
ATOM     25  C   UNL     1      33.867 -23.792 -15.840  0.00  0.00    +0.013 C 
ATOM     26  C   UNL     1      35.043 -23.858 -15.041  0.00  0.00    +0.017 C 
ATOM     27  C   UNL     1      36.041 -23.165 -15.728  0.00  0.00    +0.068 C 
ATOM     28  C   UNL     1      35.357 -24.436 -13.803  0.00  0.00    +0.022 C 
ATOM     29  C   UNL     1      37.329 -23.034 -15.224  0.00  0.00    +0.113 C 
ATOM     30  C   UNL     1      36.663 -24.265 -13.361  0.00  0.00    +0.099 C 
ATOM     31  H   UNL     1      35.956 -22.177 -17.586  0.00  0.00    +0.152 HD
ENDBRANCH  21  24
ENDBRANCH   2  21
TORSDOF 5
ENDMDL
MODEL 8
REMARK VINA RESULT:     -10.1      5.164     11.376
REMARK  Name = 445481
REMARK  5 active torsions:
REMARK  status: ('A' for Active; 'I' for Inactive)
REMARK    1  A    between atoms: N_2  and  C_21
REMARK    2  A    between atoms: C_3  and  N_7
REMARK    3  A    between atoms: N_7  and  S_9
REMARK    4  A    between atoms: S_9  and  C_14
REMARK    5  A    between atoms: C_21  and  C_24
REMARK                            x       y       z     vdW  Elec       q    Type
REMARK                         _______ _______ _______ _____ _____    ______ ____
ROOT
ATOM      1  O   UNL     1      35.320 -15.841 -21.007  0.00  0.00    -0.273 OA
ATOM      2  N   UNL     1      35.752 -17.480 -22.639  0.00  0.00    -0.273 N 
ATOM      3  C   UNL     1      34.215 -15.812 -23.171  0.00  0.00    +0.153 C 
ATOM      4  C   UNL     1      34.709 -16.478 -24.451  0.00  0.00    +0.048 C 
ATOM      5  C   UNL     1      35.283 -17.795 -23.967  0.00  0.00    +0.096 C 
ATOM      6  C   UNL     1      35.157 -16.333 -22.114  0.00  0.00    +0.242 C 
ENDROOT
BRANCH   3   7
ATOM      7  N   UNL     1      34.334 -14.352 -23.255  0.00  0.00    -0.171 NA
ATOM      8  H   UNL     1      34.461 -14.004 -22.305  0.00  0.00    +0.149 HD
BRANCH   7   9
ATOM      9  S   UNL     1      33.036 -13.474 -23.950  0.00  0.00    +0.066 S 
ATOM     10  O   UNL     1      31.821 -13.752 -23.210  0.00  0.00    -0.152 OA
ATOM     11  O   UNL     1      33.088 -13.611 -25.393  0.00  0.00    -0.152 OA
BRANCH   9  14
ATOM     12  S   UNL     1      32.357 -11.015 -22.531  0.00  0.00    -0.066 S 
ATOM     13  N   UNL     1      34.932  -8.509 -24.020  0.00  0.00    -0.243 NA
ATOM     14  C   UNL     1      33.373 -11.734 -23.680  0.00  0.00    +0.153 C 
ATOM     15  C   UNL     1      34.284 -10.893 -24.221  0.00  0.00    +0.046 C 
ATOM     16  C   UNL     1      34.161  -9.578 -23.679  0.00  0.00    +0.089 C 
ATOM     17  C   UNL     1      33.137  -9.497 -22.734  0.00  0.00    +0.048 C 
ATOM     18  C   UNL     1      32.868  -8.280 -22.092  0.00  0.00    +0.010 C 
ATOM     19  C   UNL     1      33.652  -7.186 -22.436  0.00  0.00    +0.021 C 
ATOM     20  C   UNL     1      34.645  -7.355 -23.383  0.00  0.00    +0.099 C 
ENDBRANCH   9  14
ENDBRANCH   7   9
ENDBRANCH   3   7
BRANCH   2  21
ATOM     21  C   UNL     1      36.648 -18.361 -21.922  0.00  0.00    +0.135 C 
BRANCH  21  24
ATOM     22  N   UNL     1      36.499 -20.233 -20.301  0.00  0.00    -0.313 N 
ATOM     23  N   UNL     1      34.648 -22.828 -18.442  0.00  0.00    -0.241 NA
ATOM     24  C   UNL     1      35.871 -19.411 -21.177  0.00  0.00    +0.046 C 
ATOM     25  C   UNL     1      34.548 -19.712 -21.225  0.00  0.00    +0.013 C 
ATOM     26  C   UNL     1      34.338 -20.790 -20.320  0.00  0.00    +0.017 C 
ATOM     27  C   UNL     1      35.577 -21.095 -19.756  0.00  0.00    +0.068 C 
ATOM     28  C   UNL     1      33.218 -21.535 -19.926  0.00  0.00    +0.022 C 
ATOM     29  C   UNL     1      35.731 -22.111 -18.820  0.00  0.00    +0.113 C 
ATOM     30  C   UNL     1      33.446 -22.534 -18.988  0.00  0.00    +0.099 C 
ATOM     31  H   UNL     1      37.461 -20.215 -20.090  0.00  0.00    +0.152 HD
ENDBRANCH  21  24
ENDBRANCH   2  21
TORSDOF 5
ENDMDL
MODEL 9
REMARK VINA RESULT:      -9.8      8.255     14.390
REMARK  Name = 445481
REMARK  5 active torsions:
REMARK  status: ('A' for Active; 'I' for Inactive)
REMARK    1  A    between atoms: N_2  and  C_21
REMARK    2  A    between atoms: C_3  and  N_7
REMARK    3  A    between atoms: N_7  and  S_9
REMARK    4  A    between atoms: S_9  and  C_14
REMARK    5  A    between atoms: C_21  and  C_24
REMARK                            x       y       z     vdW  Elec       q    Type
REMARK                         _______ _______ _______ _____ _____    ______ ____
ROOT
ATOM      1  O   UNL     1      33.827  -9.941 -23.880  0.00  0.00    -0.273 OA
ATOM      2  N   UNL     1      32.924 -12.009 -23.213  0.00  0.00    -0.273 N 
ATOM      3  C   UNL     1      32.339 -10.128 -21.968  0.00  0.00    +0.153 C 
ATOM      4  C   UNL     1      31.336 -11.246 -21.705  0.00  0.00    +0.048 C 
ATOM      5  C   UNL     1      32.069 -12.495 -22.156  0.00  0.00    +0.096 C 
ATOM      6  C   UNL     1      33.127 -10.630 -23.152  0.00  0.00    +0.242 C 
ENDROOT
BRANCH   3   7
ATOM      7  N   UNL     1      31.657  -8.881 -22.329  0.00  0.00    -0.171 NA
ATOM      8  H   UNL     1      31.630  -8.834 -23.348  0.00  0.00    +0.149 HD
BRANCH   7   9
ATOM      9  S   UNL     1      32.325  -7.404 -21.770  0.00  0.00    +0.066 S 
ATOM     10  O   UNL     1      33.495  -7.684 -20.962  0.00  0.00    -0.152 OA
ATOM     11  O   UNL     1      31.257  -6.554 -21.281  0.00  0.00    -0.152 OA
BRANCH   9  14
ATOM     12  S   UNL     1      31.801  -5.476 -23.898  0.00  0.00    -0.066 S 
ATOM     13  N   UNL     1      35.196  -5.454 -25.796  0.00  0.00    -0.243 NA
ATOM     14  C   UNL     1      32.937  -6.525 -23.208  0.00  0.00    +0.153 C 
ATOM     15  C   UNL     1      34.132  -6.545 -23.841  0.00  0.00    +0.046 C 
ATOM     16  C   UNL     1      34.142  -5.658 -24.960  0.00  0.00    +0.089 C 
ATOM     17  C   UNL     1      32.920  -5.000 -25.112  0.00  0.00    +0.048 C 
ATOM     18  C   UNL     1      32.742  -4.086 -26.160  0.00  0.00    +0.010 C 
ATOM     19  C   UNL     1      33.815  -3.874 -27.017  0.00  0.00    +0.021 C 
ATOM     20  C   UNL     1      34.989  -4.569 -26.792  0.00  0.00    +0.099 C 
ENDBRANCH   9  14
ENDBRANCH   7   9
ENDBRANCH   3   7
BRANCH   2  21
ATOM     21  C   UNL     1      33.577 -12.912 -24.135  0.00  0.00    +0.135 C 
BRANCH  21  24
ATOM     22  N   UNL     1      34.331 -15.275 -24.102  0.00  0.00    -0.313 N 
ATOM     23  N   UNL     1      35.540 -18.314 -22.391  0.00  0.00    -0.241 NA
ATOM     24  C   UNL     1      34.069 -14.137 -23.415  0.00  0.00    +0.046 C 
ATOM     25  C   UNL     1      34.318 -14.327 -22.094  0.00  0.00    +0.013 C 
ATOM     26  C   UNL     1      34.765 -15.671 -21.949  0.00  0.00    +0.017 C 
ATOM     27  C   UNL     1      34.763 -16.241 -23.223  0.00  0.00    +0.068 C 
ATOM     28  C   UNL     1      35.171 -16.458 -20.862  0.00  0.00    +0.022 C 
ATOM     29  C   UNL     1      35.149 -17.557 -23.443  0.00  0.00    +0.113 C 
ATOM     30  C   UNL     1      35.542 -17.763 -21.156  0.00  0.00    +0.099 C 
ATOM     31  H   UNL     1      34.227 -15.392 -25.074  0.00  0.00    +0.152 HD
ENDBRANCH  21  24
ENDBRANCH   2  21
TORSDOF 5
ENDMDL
