MODEL 1
REMARK VINA RESULT:     -11.3      0.000      0.000
REMARK  Name = 4369498
REMARK  8 active torsions:
REMARK  status: ('A' for Active; 'I' for Inactive)
REMARK    1  A    between atoms: N_2  and  C_11
REMARK    2  A    between atoms: C_5  and  C_25
REMARK    3  A    between atoms: C_8  and  S_14
REMARK    4  A    between atoms: C_13  and  O_23
REMARK    5  A    between atoms: S_14  and  N_17
REMARK    6  A    between atoms: N_17  and  C_19
REMARK    7  A    between atoms: C_19  and  C_20
REMARK    8  A    between atoms: C_26  and  C_32
REMARK                            x       y       z     vdW  Elec       q    Type
REMARK                         _______ _______ _______ _____ _____    ______ ____
ROOT
ATOM      1  O   UNL     1      33.472 -11.398 -22.850  0.00  0.00    -0.424 OA
ATOM      2  N   UNL     1      34.159 -13.455 -23.609  0.00  0.00    -0.265 N 
ATOM      3  N   UNL     1      32.170 -13.160 -22.287  0.00  0.00    -0.193 NA
ATOM      4  C   UNL     1      33.246 -12.740 -22.913  0.00  0.00    +0.293 C 
ATOM      5  C   UNL     1      32.428 -10.934 -22.108  0.00  0.00    +0.168 C 
ATOM      6  C   UNL     1      31.641 -12.006 -21.769  0.00  0.00    +0.141 C 
ATOM      7  H   UNL     1      34.892 -12.925 -23.998  0.00  0.00    +0.157 HD
ENDROOT
BRANCH   2  11
ATOM      8  C   UNL     1      34.935 -17.062 -23.189  0.00  0.00    +0.123 C 
ATOM      9  C   UNL     1      34.858 -15.689 -22.946  0.00  0.00    +0.038 C 
ATOM     10  C   UNL     1      34.382 -17.596 -24.352  0.00  0.00    +0.023 C 
ATOM     11  C   UNL     1      34.228 -14.853 -23.868  0.00  0.00    +0.087 C 
ATOM     12  C   UNL     1      33.752 -16.759 -25.274  0.00  0.00    +0.040 C 
ATOM     13  C   UNL     1      33.675 -15.388 -25.031  0.00  0.00    +0.152 C 
BRANCH   8  14
ATOM     14  S   UNL     1      35.727 -18.109 -22.038  0.00  0.00    +0.060 S 
ATOM     15  O   UNL     1      37.051 -18.447 -22.544  0.00  0.00    -0.153 OA
ATOM     16  O   UNL     1      35.600 -17.499 -20.721  0.00  0.00    -0.153 OA
BRANCH  14  17
ATOM     17  N   UNL     1      34.750 -19.512 -22.084  0.00  0.00    -0.179 NA
ATOM     18  H   UNL     1      35.249 -20.200 -22.648  0.00  0.00    +0.149 HD
BRANCH  17  19
ATOM     19  C   UNL     1      34.372 -20.182 -20.832  0.00  0.00    +0.091 C 
BRANCH  19  20
ATOM     20  C   UNL     1      35.243 -21.368 -20.582  0.00  0.00    +0.017 C 
ATOM     21  C   UNL     1      36.438 -21.224 -19.684  0.00  0.00    +0.001 C 
ATOM     22  C   UNL     1      35.243 -22.005 -19.224  0.00  0.00    +0.001 C 
ENDBRANCH  19  20
ENDBRANCH  17  19
ENDBRANCH  14  17
ENDBRANCH   8  14
BRANCH  13  23
ATOM     23  O   UNL     1      33.056 -14.587 -25.945  0.00  0.00    -0.470 OA
ATOM     24  C   UNL     1      33.853 -14.100 -27.022  0.00  0.00    +0.253 C 
ENDBRANCH  13  23
ENDBRANCH   2  11
BRANCH   5  25
ATOM     25  C   UNL     1      32.396  -9.512 -21.867  0.00  0.00    +0.036 C 
ATOM     26  C   UNL     1      32.716  -7.248 -22.648  0.00  0.00    +0.002 C 
ATOM     27  C   UNL     1      32.748  -8.623 -22.882  0.00  0.00    +0.003 C 
ATOM     28  C   UNL     1      32.010  -9.026 -20.617  0.00  0.00    +0.003 C 
ATOM     29  C   UNL     1      32.331  -6.763 -21.398  0.00  0.00    +0.000 C 
ATOM     30  C   UNL     1      31.978  -7.652 -20.383  0.00  0.00    +0.000 C 
BRANCH  26  32
ATOM     31  N   UNL     1      32.509  -4.411 -25.061  0.00  0.00    -0.242 NA
ATOM     32  C   UNL     1      33.083  -6.326 -23.700  0.00  0.00    +0.019 C 
ATOM     33  C   UNL     1      34.304  -6.435 -24.357  0.00  0.00    +0.003 C 
ATOM     34  C   UNL     1      32.228  -5.305 -24.087  0.00  0.00    +0.099 C 
ATOM     35  C   UNL     1      34.628  -5.534 -25.364  0.00  0.00    +0.021 C 
ATOM     36  C   UNL     1      33.704  -4.549 -25.676  0.00  0.00    +0.099 C 
ENDBRANCH  26  32
ENDBRANCH   5  25
TORSDOF 8
ENDMDL
MODEL 2
REMARK VINA RESULT:     -11.2      3.356     11.143
REMARK  Name = 4369498
REMARK  8 active torsions:
REMARK  status: ('A' for Active; 'I' for Inactive)
REMARK    1  A    between atoms: N_2  and  C_11
REMARK    2  A    between atoms: C_5  and  C_25
REMARK    3  A    between atoms: C_8  and  S_14
REMARK    4  A    between atoms: C_13  and  O_23
REMARK    5  A    between atoms: S_14  and  N_17
REMARK    6  A    between atoms: N_17  and  C_19
REMARK    7  A    between atoms: C_19  and  C_20
REMARK    8  A    between atoms: C_26  and  C_32
REMARK                            x       y       z     vdW  Elec       q    Type
REMARK                         _______ _______ _______ _____ _____    ______ ____
ROOT
ATOM      1  O   UNL     1      32.787 -12.223 -23.157  0.00  0.00    -0.424 OA
ATOM      2  N   UNL     1      32.145 -10.308 -22.062  0.00  0.00    -0.265 N 
ATOM      3  N   UNL     1      33.864 -10.323 -23.745  0.00  0.00    -0.193 NA
ATOM      4  C   UNL     1      32.948 -10.881 -22.987  0.00  0.00    +0.293 C 
ATOM      5  C   UNL     1      33.698 -12.533 -24.122  0.00  0.00    +0.168 C 
ATOM      6  C   UNL     1      34.348 -11.377 -24.476  0.00  0.00    +0.141 C 
ATOM      7  H   UNL     1      31.527 -10.926 -21.610  0.00  0.00    +0.157 HD
ENDROOT
BRANCH   2  11
ATOM      8  C   UNL     1      31.547  -6.645 -22.148  0.00  0.00    +0.123 C 
ATOM      9  C   UNL     1      31.640  -7.978 -22.549  0.00  0.00    +0.038 C 
ATOM     10  C   UNL     1      31.866  -6.287 -20.838  0.00  0.00    +0.023 C 
ATOM     11  C   UNL     1      32.052  -8.952 -21.639  0.00  0.00    +0.087 C 
ATOM     12  C   UNL     1      32.277  -7.261 -19.928  0.00  0.00    +0.040 C 
ATOM     13  C   UNL     1      32.370  -8.594 -20.329  0.00  0.00    +0.152 C 
BRANCH   8  14
ATOM     14  S   UNL     1      31.036  -5.423 -23.286  0.00  0.00    +0.060 S 
ATOM     15  O   UNL     1      30.521  -6.082 -24.481  0.00  0.00    -0.153 OA
ATOM     16  O   UNL     1      30.189  -4.477 -22.572  0.00  0.00    -0.153 OA
BRANCH  14  17
ATOM     17  N   UNL     1      32.507  -4.648 -23.680  0.00  0.00    -0.179 NA
ATOM     18  H   UNL     1      33.258  -5.252 -23.346  0.00  0.00    +0.149 HD
BRANCH  17  19
ATOM     19  C   UNL     1      32.812  -4.327 -25.082  0.00  0.00    +0.091 C 
BRANCH  19  20
ATOM     20  C   UNL     1      33.603  -5.422 -25.715  0.00  0.00    +0.017 C 
ATOM     21  C   UNL     1      35.058  -5.199 -26.014  0.00  0.00    +0.001 C 
ATOM     22  C   UNL     1      34.654  -6.129 -24.909  0.00  0.00    +0.001 C 
ENDBRANCH  19  20
ENDBRANCH  17  19
ENDBRANCH  14  17
ENDBRANCH   8  14
BRANCH  13  23
ATOM     23  O   UNL     1      32.775  -9.531 -19.426  0.00  0.00    -0.470 OA
ATOM     24  C   UNL     1      31.762 -10.344 -18.838  0.00  0.00    +0.253 C 
ENDBRANCH  13  23
ENDBRANCH   2  11
BRANCH   5  25
ATOM     25  C   UNL     1      33.762 -13.917 -24.521  0.00  0.00    +0.036 C 
ATOM     26  C   UNL     1      34.313 -16.216 -24.024  0.00  0.00    +0.002 C 
ATOM     27  C   UNL     1      34.252 -14.878 -23.637  0.00  0.00    +0.003 C 
ATOM     28  C   UNL     1      33.331 -14.297 -25.793  0.00  0.00    +0.003 C 
ATOM     29  C   UNL     1      33.883 -16.595 -25.296  0.00  0.00    +0.000 C 
ATOM     30  C   UNL     1      33.391 -15.635 -26.181  0.00  0.00    +0.000 C 
BRANCH  26  32
ATOM     31  N   UNL     1      35.789 -17.734 -20.952  0.00  0.00    -0.242 NA
ATOM     32  C   UNL     1      34.823 -17.212 -23.107  0.00  0.00    +0.019 C 
ATOM     33  C   UNL     1      34.852 -18.558 -23.453  0.00  0.00    +0.003 C 
ATOM     34  C   UNL     1      35.300 -16.855 -21.855  0.00  0.00    +0.099 C 
ATOM     35  C   UNL     1      35.348 -19.492 -22.551  0.00  0.00    +0.021 C 
ATOM     36  C   UNL     1      35.801 -19.032 -21.324  0.00  0.00    +0.099 C 
ENDBRANCH  26  32
ENDBRANCH   5  25
TORSDOF 8
ENDMDL
MODEL 3
REMARK VINA RESULT:     -11.1      7.647     11.798
REMARK  Name = 4369498
REMARK  8 active torsions:
REMARK  status: ('A' for Active; 'I' for Inactive)
REMARK    1  A    between atoms: N_2  and  C_11
REMARK    2  A    between atoms: C_5  and  C_25
REMARK    3  A    between atoms: C_8  and  S_14
REMARK    4  A    between atoms: C_13  and  O_23
REMARK    5  A    between atoms: S_14  and  N_17
REMARK    6  A    between atoms: N_17  and  C_19
REMARK    7  A    between atoms: C_19  and  C_20
REMARK    8  A    between atoms: C_26  and  C_32
REMARK                            x       y       z     vdW  Elec       q    Type
REMARK                         _______ _______ _______ _____ _____    ______ ____
ROOT
ATOM      1  O   UNL     1      36.202 -21.285 -18.701  0.00  0.00    -0.424 OA
ATOM      2  N   UNL     1      36.044 -22.518 -16.768  0.00  0.00    -0.265 N 
ATOM      3  N   UNL     1      34.407 -22.650 -18.526  0.00  0.00    -0.193 NA
ATOM      4  C   UNL     1      35.507 -22.199 -17.968  0.00  0.00    +0.293 C 
ATOM      5  C   UNL     1      35.456 -21.153 -19.834  0.00  0.00    +0.168 C 
ATOM      6  C   UNL     1      34.369 -21.982 -19.723  0.00  0.00    +0.141 C 
ATOM      7  H   UNL     1      36.884 -22.052 -16.554  0.00  0.00    +0.157 HD
ENDROOT
BRANCH   2  11
ATOM      8  C   UNL     1      33.770 -24.327 -14.458  0.00  0.00    +0.123 C 
ATOM      9  C   UNL     1      34.231 -23.449 -15.440  0.00  0.00    +0.038 C 
ATOM     10  C   UNL     1      34.664 -25.174 -13.804  0.00  0.00    +0.023 C 
ATOM     11  C   UNL     1      35.587 -23.420 -15.767  0.00  0.00    +0.087 C 
ATOM     12  C   UNL     1      36.020 -25.144 -14.130  0.00  0.00    +0.040 C 
ATOM     13  C   UNL     1      36.481 -24.267 -15.112  0.00  0.00    +0.152 C 
BRANCH   8  14
ATOM     14  S   UNL     1      32.073 -24.363 -14.045  0.00  0.00    +0.060 S 
ATOM     15  O   UNL     1      31.639 -25.752 -13.966  0.00  0.00    -0.153 OA
ATOM     16  O   UNL     1      31.876 -23.487 -12.898  0.00  0.00    -0.153 OA
BRANCH  14  17
ATOM     17  N   UNL     1      31.346 -23.640 -15.413  0.00  0.00    -0.179 NA
ATOM     18  H   UNL     1      32.012 -23.727 -16.181  0.00  0.00    +0.149 HD
BRANCH  17  19
ATOM     19  C   UNL     1      30.057 -24.144 -15.909  0.00  0.00    +0.091 C 
BRANCH  19  20
ATOM     20  C   UNL     1      29.221 -23.028 -16.439  0.00  0.00    +0.017 C 
ATOM     21  C   UNL     1      27.994 -23.348 -17.242  0.00  0.00    +0.001 C 
ATOM     22  C   UNL     1      27.859 -22.791 -15.856  0.00  0.00    +0.001 C 
ENDBRANCH  19  20
ENDBRANCH  17  19
ENDBRANCH  14  17
ENDBRANCH   8  14
BRANCH  13  23
ATOM     23  O   UNL     1      37.810 -24.252 -15.416  0.00  0.00    -0.470 OA
ATOM     24  C   UNL     1      38.652 -25.138 -14.681  0.00  0.00    +0.253 C 
ENDBRANCH  13  23
ENDBRANCH   2  11
BRANCH   5  25
ATOM     25  C   UNL     1      35.953 -20.228 -20.823  0.00  0.00    +0.036 C 
ATOM     26  C   UNL     1      35.596 -18.883 -22.798  0.00  0.00    +0.002 C 
ATOM     27  C   UNL     1      35.115 -19.777 -21.842  0.00  0.00    +0.003 C 
ATOM     28  C   UNL     1      37.274 -19.782 -20.759  0.00  0.00    +0.003 C 
ATOM     29  C   UNL     1      36.917 -18.438 -22.733  0.00  0.00    +0.000 C 
ATOM     30  C   UNL     1      37.756 -18.887 -21.714  0.00  0.00    +0.000 C 
BRANCH  26  32
ATOM     31  N   UNL     1      33.016 -18.911 -25.491  0.00  0.00    -0.242 NA
ATOM     32  C   UNL     1      34.726 -18.417 -23.855  0.00  0.00    +0.019 C 
ATOM     33  C   UNL     1      34.739 -17.087 -24.261  0.00  0.00    +0.003 C 
ATOM     34  C   UNL     1      33.853 -19.282 -24.497  0.00  0.00    +0.099 C 
ATOM     35  C   UNL     1      33.892 -16.669 -25.281  0.00  0.00    +0.021 C 
ATOM     36  C   UNL     1      33.057 -17.612 -25.858  0.00  0.00    +0.099 C 
ENDBRANCH  26  32
ENDBRANCH   5  25
TORSDOF 8
ENDMDL
MODEL 4
REMARK VINA RESULT:     -10.8      5.181      9.939
REMARK  Name = 4369498
REMARK  8 active torsions:
REMARK  status: ('A' for Active; 'I' for Inactive)
REMARK    1  A    between atoms: N_2  and  C_11
REMARK    2  A    between atoms: C_5  and  C_25
REMARK    3  A    between atoms: C_8  and  S_14
REMARK    4  A    between atoms: C_13  and  O_23
REMARK    5  A    between atoms: S_14  and  N_17
REMARK    6  A    between atoms: N_17  and  C_19
REMARK    7  A    between atoms: C_19  and  C_20
REMARK    8  A    between atoms: C_26  and  C_32
REMARK                            x       y       z     vdW  Elec       q    Type
REMARK                         _______ _______ _______ _____ _____    ______ ____
ROOT
ATOM      1  O   UNL     1      34.047 -20.644 -20.940  0.00  0.00    -0.424 OA
ATOM      2  N   UNL     1      33.696 -21.890 -19.042  0.00  0.00    -0.265 N 
ATOM      3  N   UNL     1      35.844 -20.963 -19.604  0.00  0.00    -0.193 NA
ATOM      4  C   UNL     1      34.565 -21.190 -19.806  0.00  0.00    +0.293 C 
ATOM      5  C   UNL     1      35.112 -20.011 -21.506  0.00  0.00    +0.168 C 
ATOM      6  C   UNL     1      36.200 -20.207 -20.692  0.00  0.00    +0.141 C 
ATOM      7  H   UNL     1      32.776 -21.929 -19.391  0.00  0.00    +0.157 HD
ENDROOT
BRANCH   2  11
ATOM      8  C   UNL     1      35.405 -23.368 -16.096  0.00  0.00    +0.123 C 
ATOM      9  C   UNL     1      35.191 -22.692 -17.298  0.00  0.00    +0.038 C 
ATOM     10  C   UNL     1      34.328 -23.930 -15.411  0.00  0.00    +0.023 C 
ATOM     11  C   UNL     1      33.900 -22.580 -17.813  0.00  0.00    +0.087 C 
ATOM     12  C   UNL     1      33.037 -23.818 -15.927  0.00  0.00    +0.040 C 
ATOM     13  C   UNL     1      32.823 -23.142 -17.128  0.00  0.00    +0.152 C 
BRANCH   8  14
ATOM     14  S   UNL     1      37.022 -23.512 -15.451  0.00  0.00    +0.060 S 
ATOM     15  O   UNL     1      37.950 -22.851 -16.359  0.00  0.00    -0.153 OA
ATOM     16  O   UNL     1      36.980 -23.106 -14.053  0.00  0.00    -0.153 OA
BRANCH  14  17
ATOM     17  N   UNL     1      37.296 -25.198 -15.520  0.00  0.00    -0.179 NA
ATOM     18  H   UNL     1      37.900 -25.366 -16.325  0.00  0.00    +0.149 HD
BRANCH  17  19
ATOM     19  C   UNL     1      37.911 -25.887 -14.376  0.00  0.00    +0.091 C 
BRANCH  19  20
ATOM     20  C   UNL     1      39.313 -25.421 -14.170  0.00  0.00    +0.017 C 
ATOM     21  C   UNL     1      40.426 -26.429 -14.150  0.00  0.00    +0.001 C 
ATOM     22  C   UNL     1      40.285 -25.490 -15.311  0.00  0.00    +0.001 C 
ENDBRANCH  19  20
ENDBRANCH  17  19
ENDBRANCH  14  17
ENDBRANCH   8  14
BRANCH  13  23
ATOM     23  O   UNL     1      31.554 -23.044 -17.616  0.00  0.00    -0.470 OA
ATOM     24  C   UNL     1      30.490 -23.097 -16.668  0.00  0.00    +0.253 C 
ENDBRANCH  13  23
ENDBRANCH   2  11
BRANCH   5  25
ATOM     25  C   UNL     1      34.864 -19.326 -22.750  0.00  0.00    +0.036 C 
ATOM     26  C   UNL     1      34.400 -17.288 -23.962  0.00  0.00    +0.002 C 
ATOM     27  C   UNL     1      34.639 -17.950 -22.758  0.00  0.00    +0.003 C 
ATOM     28  C   UNL     1      34.852 -20.041 -23.949  0.00  0.00    +0.003 C 
ATOM     29  C   UNL     1      34.386 -18.004 -25.160  0.00  0.00    +0.000 C 
ATOM     30  C   UNL     1      34.613 -19.380 -25.153  0.00  0.00    +0.000 C 
BRANCH  26  32
ATOM     31  N   UNL     1      33.285 -13.919 -25.111  0.00  0.00    -0.242 NA
ATOM     32  C   UNL     1      34.164 -15.861 -23.970  0.00  0.00    +0.019 C 
ATOM     33  C   UNL     1      34.563 -15.063 -22.904  0.00  0.00    +0.003 C 
ATOM     34  C   UNL     1      33.535 -15.246 -25.040  0.00  0.00    +0.099 C 
ATOM     35  C   UNL     1      34.323 -13.694 -22.940  0.00  0.00    +0.021 C 
ATOM     36  C   UNL     1      33.686 -13.176 -24.056  0.00  0.00    +0.099 C 
ENDBRANCH  26  32
ENDBRANCH   5  25
TORSDOF 8
ENDMDL
MODEL 5
REMARK VINA RESULT:     -10.0      2.806     11.375
REMARK  Name = 4369498
REMARK  8 active torsions:
REMARK  status: ('A' for Active; 'I' for Inactive)
REMARK    1  A    between atoms: N_2  and  C_11
REMARK    2  A    between atoms: C_5  and  C_25
REMARK    3  A    between atoms: C_8  and  S_14
REMARK    4  A    between atoms: C_13  and  O_23
REMARK    5  A    between atoms: S_14  and  N_17
REMARK    6  A    between atoms: N_17  and  C_19
REMARK    7  A    between atoms: C_19  and  C_20
REMARK    8  A    between atoms: C_26  and  C_32
REMARK                            x       y       z     vdW  Elec       q    Type
REMARK                         _______ _______ _______ _____ _____    ______ ____
ROOT
ATOM      1  O   UNL     1      34.384 -14.834 -23.728  0.00  0.00    -0.424 OA
ATOM      2  N   UNL     1      34.105 -12.580 -24.075  0.00  0.00    -0.265 N 
ATOM      3  N   UNL     1      34.626 -13.504 -21.915  0.00  0.00    -0.193 NA
ATOM      4  C   UNL     1      34.373 -13.579 -23.202  0.00  0.00    +0.293 C 
ATOM      5  C   UNL     1      34.673 -15.626 -22.658  0.00  0.00    +0.168 C 
ATOM      6  C   UNL     1      34.818 -14.814 -21.560  0.00  0.00    +0.141 C 
ATOM      7  H   UNL     1      33.945 -12.872 -25.002  0.00  0.00    +0.157 HD
ENDROOT
BRANCH   2  11
ATOM      8  C   UNL     1      33.079  -9.309 -22.649  0.00  0.00    +0.123 C 
ATOM      9  C   UNL     1      33.179 -10.685 -22.864  0.00  0.00    +0.038 C 
ATOM     10  C   UNL     1      33.817  -8.426 -23.437  0.00  0.00    +0.023 C 
ATOM     11  C   UNL     1      34.015 -11.175 -23.866  0.00  0.00    +0.087 C 
ATOM     12  C   UNL     1      34.654  -8.917 -24.440  0.00  0.00    +0.040 C 
ATOM     13  C   UNL     1      34.753 -10.292 -24.653  0.00  0.00    +0.152 C 
BRANCH   8  14
ATOM     14  S   UNL     1      32.029  -8.693 -21.397  0.00  0.00    +0.060 S 
ATOM     15  O   UNL     1      31.141  -9.763 -20.961  0.00  0.00    -0.153 OA
ATOM     16  O   UNL     1      32.861  -8.011 -20.416  0.00  0.00    -0.153 OA
BRANCH  14  17
ATOM     17  N   UNL     1      31.105  -7.524 -22.235  0.00  0.00    -0.179 NA
ATOM     18  H   UNL     1      30.143  -7.620 -21.910  0.00  0.00    +0.149 HD
BRANCH  17  19
ATOM     19  C   UNL     1      31.452  -6.099 -22.121  0.00  0.00    +0.091 C 
BRANCH  19  20
ATOM     20  C   UNL     1      31.312  -5.414 -23.439  0.00  0.00    +0.017 C 
ATOM     21  C   UNL     1      31.666  -3.959 -23.551  0.00  0.00    +0.001 C 
ATOM     22  C   UNL     1      32.547  -4.996 -24.183  0.00  0.00    +0.001 C 
ENDBRANCH  19  20
ENDBRANCH  17  19
ENDBRANCH  14  17
ENDBRANCH   8  14
BRANCH  13  23
ATOM     23  O   UNL     1      35.576 -10.751 -25.638  0.00  0.00    -0.470 OA
ATOM     24  C   UNL     1      34.960 -11.435 -26.728  0.00  0.00    +0.253 C 
ENDBRANCH  13  23
ENDBRANCH   2  11
BRANCH   5  25
ATOM     25  C   UNL     1      34.752 -17.043 -22.911  0.00  0.00    +0.036 C 
ATOM     26  C   UNL     1      34.963 -19.308 -22.096  0.00  0.00    +0.002 C 
ATOM     27  C   UNL     1      34.886 -17.938 -21.850  0.00  0.00    +0.003 C 
ATOM     28  C   UNL     1      34.694 -17.521 -24.221  0.00  0.00    +0.003 C 
ATOM     29  C   UNL     1      34.905 -19.784 -23.406  0.00  0.00    +0.000 C 
ATOM     30  C   UNL     1      34.770 -18.891 -24.469  0.00  0.00    +0.000 C 
BRANCH  26  32
ATOM     31  N   UNL     1      36.539 -21.329 -19.386  0.00  0.00    -0.242 NA
ATOM     32  C   UNL     1      35.103 -20.235 -20.994  0.00  0.00    +0.019 C 
ATOM     33  C   UNL     1      34.002 -20.912 -20.482  0.00  0.00    +0.003 C 
ATOM     34  C   UNL     1      36.339 -20.477 -20.416  0.00  0.00    +0.099 C 
ATOM     35  C   UNL     1      34.168 -21.797 -19.423  0.00  0.00    +0.021 C 
ATOM     36  C   UNL     1      35.446 -21.968 -18.915  0.00  0.00    +0.099 C 
ENDBRANCH  26  32
ENDBRANCH   5  25
TORSDOF 8
ENDMDL
MODEL 6
REMARK VINA RESULT:      -9.9      5.762     10.985
REMARK  Name = 4369498
REMARK  8 active torsions:
REMARK  status: ('A' for Active; 'I' for Inactive)
REMARK    1  A    between atoms: N_2  and  C_11
REMARK    2  A    between atoms: C_5  and  C_25
REMARK    3  A    between atoms: C_8  and  S_14
REMARK    4  A    between atoms: C_13  and  O_23
REMARK    5  A    between atoms: S_14  and  N_17
REMARK    6  A    between atoms: N_17  and  C_19
REMARK    7  A    between atoms: C_19  and  C_20
REMARK    8  A    between atoms: C_26  and  C_32
REMARK                            x       y       z     vdW  Elec       q    Type
REMARK                         _______ _______ _______ _____ _____    ______ ____
ROOT
ATOM      1  O   UNL     1      34.231 -21.304 -19.739  0.00  0.00    -0.424 OA
ATOM      2  N   UNL     1      33.676 -22.616 -17.937  0.00  0.00    -0.265 N 
ATOM      3  N   UNL     1      35.956 -22.115 -18.522  0.00  0.00    -0.193 NA
ATOM      4  C   UNL     1      34.653 -22.048 -18.680  0.00  0.00    +0.293 C 
ATOM      5  C   UNL     1      35.391 -20.861 -20.300  0.00  0.00    +0.168 C 
ATOM      6  C   UNL     1      36.434 -21.356 -19.558  0.00  0.00    +0.141 C 
ATOM      7  H   UNL     1      32.760 -22.428 -18.244  0.00  0.00    +0.157 HD
ENDROOT
BRANCH   2  11
ATOM      8  C   UNL     1      35.063 -24.902 -15.361  0.00  0.00    +0.123 C 
ATOM      9  C   UNL     1      34.965 -24.087 -16.489  0.00  0.00    +0.038 C 
ATOM     10  C   UNL     1      33.959 -25.072 -14.526  0.00  0.00    +0.023 C 
ATOM     11  C   UNL     1      33.763 -23.443 -16.781  0.00  0.00    +0.087 C 
ATOM     12  C   UNL     1      32.756 -24.428 -14.818  0.00  0.00    +0.040 C 
ATOM     13  C   UNL     1      32.659 -23.613 -15.946  0.00  0.00    +0.152 C 
BRANCH   8  14
ATOM     14  S   UNL     1      36.566 -25.713 -14.996  0.00  0.00    +0.060 S 
ATOM     15  O   UNL     1      36.601 -26.981 -15.713  0.00  0.00    -0.153 OA
ATOM     16  O   UNL     1      37.646 -24.754 -15.188  0.00  0.00    -0.153 OA
BRANCH  14  17
ATOM     17  N   UNL     1      36.414 -26.034 -13.324  0.00  0.00    -0.179 NA
ATOM     18  H   UNL     1      36.346 -27.046 -13.223  0.00  0.00    +0.149 HD
BRANCH  17  19
ATOM     19  C   UNL     1      37.461 -25.584 -12.395  0.00  0.00    +0.091 C 
BRANCH  19  20
ATOM     20  C   UNL     1      36.902 -24.640 -11.384  0.00  0.00    +0.017 C 
ATOM     21  C   UNL     1      37.218 -23.176 -11.493  0.00  0.00    +0.001 C 
ATOM     22  C   UNL     1      35.835 -23.669 -11.799  0.00  0.00    +0.001 C 
ENDBRANCH  19  20
ENDBRANCH  17  19
ENDBRANCH  14  17
ENDBRANCH   8  14
BRANCH  13  23
ATOM     23  O   UNL     1      31.475 -22.993 -16.215  0.00  0.00    -0.470 OA
ATOM     24  C   UNL     1      30.428 -23.155 -15.260  0.00  0.00    +0.253 C 
ENDBRANCH  13  23
ENDBRANCH   2  11
BRANCH   5  25
ATOM     25  C   UNL     1      35.260 -20.028 -21.470  0.00  0.00    +0.036 C 
ATOM     26  C   UNL     1      34.967 -17.846 -22.464  0.00  0.00    +0.002 C 
ATOM     27  C   UNL     1      35.093 -18.650 -21.333  0.00  0.00    +0.003 C 
ATOM     28  C   UNL     1      35.302 -20.601 -22.742  0.00  0.00    +0.003 C 
ATOM     29  C   UNL     1      35.008 -18.420 -23.735  0.00  0.00    +0.000 C 
ATOM     30  C   UNL     1      35.176 -19.798 -23.874  0.00  0.00    +0.000 C 
BRANCH  26  32
ATOM     31  N   UNL     1      34.382 -14.272 -23.360  0.00  0.00    -0.242 NA
ATOM     32  C   UNL     1      34.792 -16.417 -22.321  0.00  0.00    +0.019 C 
ATOM     33  C   UNL     1      34.859 -15.807 -21.074  0.00  0.00    +0.003 C 
ATOM     34  C   UNL     1      34.554 -15.611 -23.424  0.00  0.00    +0.099 C 
ATOM     35  C   UNL     1      34.687 -14.432 -20.968  0.00  0.00    +0.021 C 
ATOM     36  C   UNL     1      34.453 -13.716 -22.131  0.00  0.00    +0.099 C 
ENDBRANCH  26  32
ENDBRANCH   5  25
TORSDOF 8
ENDMDL
MODEL 7
REMARK VINA RESULT:      -9.7      7.689     11.858
REMARK  Name = 4369498
REMARK  8 active torsions:
REMARK  status: ('A' for Active; 'I' for Inactive)
REMARK    1  A    between atoms: N_2  and  C_11
REMARK    2  A    between atoms: C_5  and  C_25
REMARK    3  A    between atoms: C_8  and  S_14
REMARK    4  A    between atoms: C_13  and  O_23
REMARK    5  A    between atoms: S_14  and  N_17
REMARK    6  A    between atoms: N_17  and  C_19
REMARK    7  A    between atoms: C_19  and  C_20
REMARK    8  A    between atoms: C_26  and  C_32
REMARK                            x       y       z     vdW  Elec       q    Type
REMARK                         _______ _______ _______ _____ _____    ______ ____
ROOT
ATOM      1  O   UNL     1      36.191 -21.267 -18.787  0.00  0.00    -0.424 OA
ATOM      2  N   UNL     1      36.080 -22.558 -16.889  0.00  0.00    -0.265 N 
ATOM      3  N   UNL     1      34.691 -22.960 -18.813  0.00  0.00    -0.193 NA
ATOM      4  C   UNL     1      35.618 -22.318 -18.138  0.00  0.00    +0.293 C 
ATOM      5  C   UNL     1      35.556 -21.252 -19.992  0.00  0.00    +0.168 C 
ATOM      6  C   UNL     1      34.647 -22.280 -20.003  0.00  0.00    +0.141 C 
ATOM      7  H   UNL     1      36.785 -21.943 -16.583  0.00  0.00    +0.157 HD
ENDROOT
BRANCH   2  11
ATOM      8  C   UNL     1      36.338 -25.371 -14.480  0.00  0.00    +0.123 C 
ATOM      9  C   UNL     1      36.690 -24.385 -15.403  0.00  0.00    +0.038 C 
ATOM     10  C   UNL     1      35.004 -25.530 -14.104  0.00  0.00    +0.023 C 
ATOM     11  C   UNL     1      35.707 -23.558 -15.947  0.00  0.00    +0.087 C 
ATOM     12  C   UNL     1      34.022 -24.703 -14.649  0.00  0.00    +0.040 C 
ATOM     13  C   UNL     1      34.373 -23.717 -15.571  0.00  0.00    +0.152 C 
BRANCH   8  14
ATOM     14  S   UNL     1      37.566 -26.409 -13.800  0.00  0.00    +0.060 S 
ATOM     15  O   UNL     1      37.009 -27.101 -12.645  0.00  0.00    -0.153 OA
ATOM     16  O   UNL     1      38.143 -27.188 -14.888  0.00  0.00    -0.153 OA
BRANCH  14  17
ATOM     17  N   UNL     1      38.735 -25.288 -13.254  0.00  0.00    -0.179 NA
ATOM     18  H   UNL     1      38.790 -24.553 -13.959  0.00  0.00    +0.149 HD
BRANCH  17  19
ATOM     19  C   UNL     1      38.557 -24.619 -11.956  0.00  0.00    +0.091 C 
BRANCH  19  20
ATOM     20  C   UNL     1      37.286 -23.838 -11.934  0.00  0.00    +0.017 C 
ATOM     21  C   UNL     1      36.240 -24.168 -10.909  0.00  0.00    +0.001 C 
ATOM     22  C   UNL     1      37.025 -22.895 -10.795  0.00  0.00    +0.001 C 
ENDBRANCH  19  20
ENDBRANCH  17  19
ENDBRANCH  14  17
ENDBRANCH   8  14
BRANCH  13  23
ATOM     23  O   UNL     1      33.399 -22.920 -16.093  0.00  0.00    -0.470 OA
ATOM     24  C   UNL     1      32.091 -23.479 -16.192  0.00  0.00    +0.253 C 
ENDBRANCH  13  23
ENDBRANCH   2  11
BRANCH   5  25
ATOM     25  C   UNL     1      35.961 -20.222 -20.916  0.00  0.00    +0.036 C 
ATOM     26  C   UNL     1      35.501 -18.840 -22.844  0.00  0.00    +0.002 C 
ATOM     27  C   UNL     1      35.109 -19.836 -21.951  0.00  0.00    +0.003 C 
ATOM     28  C   UNL     1      37.207 -19.609 -20.775  0.00  0.00    +0.003 C 
ATOM     29  C   UNL     1      36.747 -18.229 -22.703  0.00  0.00    +0.000 C 
ATOM     30  C   UNL     1      37.600 -18.613 -21.668  0.00  0.00    +0.000 C 
BRANCH  26  32
ATOM     31  N   UNL     1      33.760 -16.685 -25.342  0.00  0.00    -0.242 NA
ATOM     32  C   UNL     1      34.617 -18.441 -23.917  0.00  0.00    +0.019 C 
ATOM     33  C   UNL     1      33.795 -19.365 -24.552  0.00  0.00    +0.003 C 
ATOM     34  C   UNL     1      34.562 -17.124 -24.346  0.00  0.00    +0.099 C 
ATOM     35  C   UNL     1      32.956 -18.952 -25.580  0.00  0.00    +0.021 C 
ATOM     36  C   UNL     1      32.976 -17.612 -25.934  0.00  0.00    +0.099 C 
ENDBRANCH  26  32
ENDBRANCH   5  25
TORSDOF 8
ENDMDL
MODEL 8
REMARK VINA RESULT:      -9.6      7.790     11.931
REMARK  Name = 4369498
REMARK  8 active torsions:
REMARK  status: ('A' for Active; 'I' for Inactive)
REMARK    1  A    between atoms: N_2  and  C_11
REMARK    2  A    between atoms: C_5  and  C_25
REMARK    3  A    between atoms: C_8  and  S_14
REMARK    4  A    between atoms: C_13  and  O_23
REMARK    5  A    between atoms: S_14  and  N_17
REMARK    6  A    between atoms: N_17  and  C_19
REMARK    7  A    between atoms: C_19  and  C_20
REMARK    8  A    between atoms: C_26  and  C_32
REMARK                            x       y       z     vdW  Elec       q    Type
REMARK                         _______ _______ _______ _____ _____    ______ ____
ROOT
ATOM      1  O   UNL     1      35.796 -21.278 -18.344  0.00  0.00    -0.424 OA
ATOM      2  N   UNL     1      35.341 -22.329 -16.352  0.00  0.00    -0.265 N 
ATOM      3  N   UNL     1      34.381 -23.039 -18.440  0.00  0.00    -0.193 NA
ATOM      4  C   UNL     1      35.133 -22.270 -17.687  0.00  0.00    +0.293 C 
ATOM      5  C   UNL     1      35.416 -21.446 -19.641  0.00  0.00    +0.168 C 
ATOM      6  C   UNL     1      34.557 -22.515 -19.695  0.00  0.00    +0.141 C 
ATOM      7  H   UNL     1      35.952 -21.643 -15.997  0.00  0.00    +0.157 HD
ENDROOT
BRANCH   2  11
ATOM      8  C   UNL     1      35.108 -24.481 -13.336  0.00  0.00    +0.123 C 
ATOM      9  C   UNL     1      35.610 -23.602 -14.297  0.00  0.00    +0.038 C 
ATOM     10  C   UNL     1      33.811 -24.980 -13.458  0.00  0.00    +0.023 C 
ATOM     11  C   UNL     1      34.815 -23.224 -15.378  0.00  0.00    +0.087 C 
ATOM     12  C   UNL     1      33.016 -24.601 -14.540  0.00  0.00    +0.040 C 
ATOM     13  C   UNL     1      33.518 -23.723 -15.500  0.00  0.00    +0.152 C 
BRANCH   8  14
ATOM     14  S   UNL     1      36.104 -24.959 -11.984  0.00  0.00    +0.060 S 
ATOM     15  O   UNL     1      37.098 -23.921 -11.743  0.00  0.00    -0.153 OA
ATOM     16  O   UNL     1      35.217 -25.363 -10.901  0.00  0.00    -0.153 OA
BRANCH  14  17
ATOM     17  N   UNL     1      36.898 -26.349 -12.584  0.00  0.00    -0.179 NA
ATOM     18  H   UNL     1      36.456 -26.580 -13.474  0.00  0.00    +0.149 HD
BRANCH  17  19
ATOM     19  C   UNL     1      38.348 -26.315 -12.826  0.00  0.00    +0.091 C 
BRANCH  19  20
ATOM     20  C   UNL     1      38.638 -26.234 -14.288  0.00  0.00    +0.017 C 
ATOM     21  C   UNL     1      39.095 -24.929 -14.873  0.00  0.00    +0.001 C 
ATOM     22  C   UNL     1      40.058 -26.073 -14.746  0.00  0.00    +0.001 C 
ENDBRANCH  19  20
ENDBRANCH  17  19
ENDBRANCH  14  17
ENDBRANCH   8  14
BRANCH  13  23
ATOM     23  O   UNL     1      32.726 -23.366 -16.550  0.00  0.00    -0.470 OA
ATOM     24  C   UNL     1      31.320 -23.319 -16.313  0.00  0.00    +0.253 C 
ENDBRANCH  13  23
ENDBRANCH   2  11
BRANCH   5  25
ATOM     25  C   UNL     1      35.969 -20.517 -20.596  0.00  0.00    +0.036 C 
ATOM     26  C   UNL     1      35.713 -19.129 -22.557  0.00  0.00    +0.002 C 
ATOM     27  C   UNL     1      35.178 -20.027 -21.635  0.00  0.00    +0.003 C 
ATOM     28  C   UNL     1      37.298 -20.108 -20.481  0.00  0.00    +0.003 C 
ATOM     29  C   UNL     1      37.043 -18.721 -22.441  0.00  0.00    +0.000 C 
ATOM     30  C   UNL     1      37.835 -19.210 -21.402  0.00  0.00    +0.000 C 
BRANCH  26  32
ATOM     31  N   UNL     1      34.107 -16.727 -24.916  0.00  0.00    -0.242 NA
ATOM     32  C   UNL     1      34.892 -18.621 -23.634  0.00  0.00    +0.019 C 
ATOM     33  C   UNL     1      34.119 -19.476 -24.411  0.00  0.00    +0.003 C 
ATOM     34  C   UNL     1      34.852 -17.266 -23.925  0.00  0.00    +0.099 C 
ATOM     35  C   UNL     1      33.340 -18.958 -25.439  0.00  0.00    +0.021 C 
ATOM     36  C   UNL     1      33.369 -17.589 -25.649  0.00  0.00    +0.099 C 
ENDBRANCH  26  32
ENDBRANCH   5  25
TORSDOF 8
ENDMDL
MODEL 9
REMARK VINA RESULT:      -9.2      5.103      9.898
REMARK  Name = 4369498
REMARK  8 active torsions:
REMARK  status: ('A' for Active; 'I' for Inactive)
REMARK    1  A    between atoms: N_2  and  C_11
REMARK    2  A    between atoms: C_5  and  C_25
REMARK    3  A    between atoms: C_8  and  S_14
REMARK    4  A    between atoms: C_13  and  O_23
REMARK    5  A    between atoms: S_14  and  N_17
REMARK    6  A    between atoms: N_17  and  C_19
REMARK    7  A    between atoms: C_19  and  C_20
REMARK    8  A    between atoms: C_26  and  C_32
REMARK                            x       y       z     vdW  Elec       q    Type
REMARK                         _______ _______ _______ _____ _____    ______ ____
ROOT
ATOM      1  O   UNL     1      33.661 -20.469 -21.384  0.00  0.00    -0.424 OA
ATOM      2  N   UNL     1      33.213 -21.766 -19.541  0.00  0.00    -0.265 N 
ATOM      3  N   UNL     1      35.318 -20.643 -19.854  0.00  0.00    -0.193 NA
ATOM      4  C   UNL     1      34.096 -20.981 -20.199  0.00  0.00    +0.293 C 
ATOM      5  C   UNL     1      34.722 -19.736 -21.823  0.00  0.00    +0.168 C 
ATOM      6  C   UNL     1      35.725 -19.844 -20.892  0.00  0.00    +0.141 C 
ATOM      7  H   UNL     1      32.346 -21.882 -19.992  0.00  0.00    +0.157 HD
ENDROOT
BRANCH   2  11
ATOM      8  C   UNL     1      32.300 -23.433 -16.352  0.00  0.00    +0.123 C 
ATOM      9  C   UNL     1      32.191 -22.764 -17.572  0.00  0.00    +0.038 C 
ATOM     10  C   UNL     1      33.557 -23.786 -15.860  0.00  0.00    +0.023 C 
ATOM     11  C   UNL     1      33.339 -22.450 -18.299  0.00  0.00    +0.087 C 
ATOM     12  C   UNL     1      34.705 -23.472 -16.588  0.00  0.00    +0.040 C 
ATOM     13  C   UNL     1      34.596 -22.804 -17.808  0.00  0.00    +0.152 C 
BRANCH   8  14
ATOM     14  S   UNL     1      30.864 -23.824 -15.438  0.00  0.00    +0.060 S 
ATOM     15  O   UNL     1      30.981 -25.189 -14.942  0.00  0.00    -0.153 OA
ATOM     16  O   UNL     1      30.629 -22.739 -14.494  0.00  0.00    -0.153 OA
BRANCH  14  17
ATOM     17  N   UNL     1      29.644 -23.779 -16.634  0.00  0.00    -0.179 NA
ATOM     18  H   UNL     1      29.790 -24.590 -17.235  0.00  0.00    +0.149 HD
BRANCH  17  19
ATOM     19  C   UNL     1      28.228 -23.795 -16.236  0.00  0.00    +0.091 C 
BRANCH  19  20
ATOM     20  C   UNL     1      27.642 -22.425 -16.313  0.00  0.00    +0.017 C 
ATOM     21  C   UNL     1      26.628 -22.121 -17.378  0.00  0.00    +0.001 C 
ATOM     22  C   UNL     1      26.202 -22.222 -15.943  0.00  0.00    +0.001 C 
ENDBRANCH  19  20
ENDBRANCH  17  19
ENDBRANCH  14  17
ENDBRANCH   8  14
BRANCH  13  23
ATOM     23  O   UNL     1      35.729 -22.504 -18.503  0.00  0.00    -0.470 OA
ATOM     24  C   UNL     1      36.860 -22.079 -17.745  0.00  0.00    +0.253 C 
ENDBRANCH  13  23
ENDBRANCH   2  11
BRANCH   5  25
ATOM     25  C   UNL     1      34.555 -19.060 -23.086  0.00  0.00    +0.036 C 
ATOM     26  C   UNL     1      34.204 -17.025 -24.341  0.00  0.00    +0.002 C 
ATOM     27  C   UNL     1      34.365 -17.678 -23.120  0.00  0.00    +0.003 C 
ATOM     28  C   UNL     1      34.585 -19.788 -24.276  0.00  0.00    +0.003 C 
ATOM     29  C   UNL     1      34.233 -17.755 -25.530  0.00  0.00    +0.000 C 
ATOM     30  C   UNL     1      34.424 -19.136 -25.498  0.00  0.00    +0.000 C 
BRANCH  26  32
ATOM     31  N   UNL     1      34.214 -13.452 -23.271  0.00  0.00    -0.242 NA
ATOM     32  C   UNL     1      34.005 -15.593 -24.376  0.00  0.00    +0.019 C 
ATOM     33  C   UNL     1      33.442 -14.973 -25.485  0.00  0.00    +0.003 C 
ATOM     34  C   UNL     1      34.372 -14.794 -23.303  0.00  0.00    +0.099 C 
ATOM     35  C   UNL     1      33.264 -13.594 -25.488  0.00  0.00    +0.021 C 
ATOM     36  C   UNL     1      33.663 -12.886 -24.367  0.00  0.00    +0.099 C 
ENDBRANCH  26  32
ENDBRANCH   5  25
TORSDOF 8
ENDMDL
