MODEL 1
REMARK VINA RESULT:     -11.5      0.000      0.000
REMARK  Name = 91617630
REMARK  6 active torsions:
REMARK  status: ('A' for Active; 'I' for Inactive)
REMARK    1  A    between atoms: N_4  and  C_10
REMARK    2  A    between atoms: N_5  and  C_16
REMARK    3  A    between atoms: C_7  and  C_24
REMARK    4  A    between atoms: N_23  and  C_26
REMARK    5  A    between atoms: C_26  and  C_28
REMARK    6  A    between atoms: C_28  and  O_29
REMARK                            x       y       z     vdW  Elec       q    Type
REMARK                         _______ _______ _______ _____ _____    ______ ____
ROOT
ATOM      1  O   UNL     1      36.194 -23.349 -16.508  0.00  0.00    -0.252 OA
ATOM      2  O   UNL     1      31.833 -23.006 -18.073  0.00  0.00    -0.273 OA
ATOM      3  O   UNL     1      32.619 -24.876 -13.958  0.00  0.00    -0.273 OA
ATOM      4  N   UNL     1      34.028 -23.064 -17.294  0.00  0.00    -0.215 N 
ATOM      5  N   UNL     1      34.437 -24.047 -15.157  0.00  0.00    -0.215 N 
ATOM      6  C   UNL     1      34.977 -23.461 -16.325  0.00  0.00    +0.319 C 
ATOM      7  C   UNL     1      32.173 -23.331 -15.728  0.00  0.00    +0.229 C 
ATOM      8  C   UNL     1      32.638 -23.138 -17.150  0.00  0.00    +0.250 C 
ATOM      9  C   UNL     1      33.075 -24.181 -14.867  0.00  0.00    +0.250 C 
ENDROOT
BRANCH   4  10
ATOM     10  C   UNL     1      34.550 -22.635 -18.569  0.00  0.00    +0.084 C 
ATOM     11  C   UNL     1      35.945 -22.027 -18.399  0.00  0.00    +0.020 C 
ATOM     12  C   UNL     1      33.591 -21.651 -19.243  0.00  0.00    +0.020 C 
ATOM     13  C   UNL     1      34.150 -21.142 -20.570  0.00  0.00    +0.002 C 
ATOM     14  C   UNL     1      36.500 -21.515 -19.726  0.00  0.00    +0.002 C 
ATOM     15  C   UNL     1      35.541 -20.537 -20.399  0.00  0.00    +0.000 C 
ENDBRANCH   4  10
BRANCH   5  16
ATOM     16  C   UNL     1      35.383 -24.628 -14.235  0.00  0.00    +0.084 C 
ATOM     17  C   UNL     1      36.211 -25.718 -14.922  0.00  0.00    +0.020 C 
ATOM     18  C   UNL     1      36.280 -23.544 -13.634  0.00  0.00    +0.020 C 
ATOM     19  C   UNL     1      37.327 -24.137 -12.694  0.00  0.00    +0.002 C 
ATOM     20  C   UNL     1      37.256 -26.308 -13.979  0.00  0.00    +0.002 C 
ATOM     21  C   UNL     1      38.147 -25.226 -13.379  0.00  0.00    +0.000 C 
ENDBRANCH   5  16
BRANCH   7  24
ATOM     22  O   UNL     1      30.443 -24.981 -15.751  0.00  0.00    -0.274 OA
ATOM     23  N   UNL     1      29.859 -22.738 -15.534  0.00  0.00    -0.294 N 
ATOM     24  C   UNL     1      30.745 -23.792 -15.668  0.00  0.00    +0.240 C 
ATOM     25  H   UNL     1      30.222 -21.824 -15.477  0.00  0.00    +0.150 HD
BRANCH  23  26
ATOM     26  C   UNL     1      28.425 -22.911 -15.475  0.00  0.00    +0.200 C 
BRANCH  26  28
ATOM     27  O   UNL     1      27.285 -21.906 -17.341  0.00  0.00    -0.248 OA
ATOM     28  C   UNL     1      27.777 -22.907 -16.836  0.00  0.00    +0.334 C 
BRANCH  28  29
ATOM     29  O   UNL     1      27.791 -24.116 -17.446  0.00  0.00    -0.479 OA
ATOM     30  H   UNL     1      27.958 -24.891 -16.946  0.00  0.00    +0.295 HD
ENDBRANCH  28  29
ENDBRANCH  26  28
ENDBRANCH  23  26
ENDBRANCH   7  24
TORSDOF 6
ENDMDL
MODEL 2
REMARK VINA RESULT:     -11.2      1.883      6.062
REMARK  Name = 91617630
REMARK  6 active torsions:
REMARK  status: ('A' for Active; 'I' for Inactive)
REMARK    1  A    between atoms: N_4  and  C_10
REMARK    2  A    between atoms: N_5  and  C_16
REMARK    3  A    between atoms: C_7  and  C_24
REMARK    4  A    between atoms: N_23  and  C_26
REMARK    5  A    between atoms: C_26  and  C_28
REMARK    6  A    between atoms: C_28  and  O_29
REMARK                            x       y       z     vdW  Elec       q    Type
REMARK                         _______ _______ _______ _____ _____    ______ ____
ROOT
ATOM      1  O   UNL     1      31.883 -23.295 -17.711  0.00  0.00    -0.252 OA
ATOM      2  O   UNL     1      36.358 -23.075 -16.476  0.00  0.00    -0.273 OA
ATOM      3  O   UNL     1      33.179 -24.025 -13.306  0.00  0.00    -0.273 OA
ATOM      4  N   UNL     1      34.141 -23.271 -17.166  0.00  0.00    -0.215 N 
ATOM      5  N   UNL     1      32.487 -23.754 -15.515  0.00  0.00    -0.215 N 
ATOM      6  C   UNL     1      32.771 -23.448 -16.865  0.00  0.00    +0.319 C 
ATOM      7  C   UNL     1      34.835 -24.209 -15.022  0.00  0.00    +0.229 C 
ATOM      8  C   UNL     1      35.202 -23.447 -16.270  0.00  0.00    +0.250 C 
ATOM      9  C   UNL     1      33.436 -23.970 -14.510  0.00  0.00    +0.250 C 
ENDROOT
BRANCH   4  10
ATOM     10  C   UNL     1      34.451 -22.777 -18.486  0.00  0.00    +0.084 C 
ATOM     11  C   UNL     1      35.823 -22.099 -18.497  0.00  0.00    +0.020 C 
ATOM     12  C   UNL     1      33.357 -21.828 -18.980  0.00  0.00    +0.020 C 
ATOM     13  C   UNL     1      33.692 -21.251 -20.354  0.00  0.00    +0.002 C 
ATOM     14  C   UNL     1      36.154 -21.520 -19.870  0.00  0.00    +0.002 C 
ATOM     15  C   UNL     1      35.060 -20.578 -20.363  0.00  0.00    +0.000 C 
ENDBRANCH   4  10
BRANCH   5  16
ATOM     16  C   UNL     1      31.093 -23.759 -15.138  0.00  0.00    +0.084 C 
ATOM     17  C   UNL     1      30.304 -22.743 -15.971  0.00  0.00    +0.020 C 
ATOM     18  C   UNL     1      30.506 -25.165 -15.272  0.00  0.00    +0.020 C 
ATOM     19  C   UNL     1      29.018 -25.189 -14.931  0.00  0.00    +0.002 C 
ATOM     20  C   UNL     1      28.817 -22.770 -15.627  0.00  0.00    +0.002 C 
ATOM     21  C   UNL     1      28.234 -24.174 -15.758  0.00  0.00    +0.000 C 
ENDBRANCH   5  16
BRANCH   7  24
ATOM     22  O   UNL     1      36.563 -23.027 -13.869  0.00  0.00    -0.274 OA
ATOM     23  N   UNL     1      35.925 -25.127 -13.094  0.00  0.00    -0.294 N 
ATOM     24  C   UNL     1      35.864 -24.035 -13.942  0.00  0.00    +0.240 C 
ATOM     25  H   UNL     1      35.310 -25.879 -13.253  0.00  0.00    +0.150 HD
BRANCH  23  26
ATOM     26  C   UNL     1      36.848 -25.219 -11.986  0.00  0.00    +0.200 C 
BRANCH  26  28
ATOM     27  O   UNL     1      35.611 -24.655 -10.000  0.00  0.00    -0.248 OA
ATOM     28  C   UNL     1      36.461 -24.341 -10.824  0.00  0.00    +0.334 C 
BRANCH  28  29
ATOM     29  O   UNL     1      37.141 -23.171 -10.779  0.00  0.00    -0.479 OA
ATOM     30  H   UNL     1      36.675 -22.358 -10.793  0.00  0.00    +0.295 HD
ENDBRANCH  28  29
ENDBRANCH  26  28
ENDBRANCH  23  26
ENDBRANCH   7  24
TORSDOF 6
ENDMDL
MODEL 3
REMARK VINA RESULT:     -11.1      1.853      7.107
REMARK  Name = 91617630
REMARK  6 active torsions:
REMARK  status: ('A' for Active; 'I' for Inactive)
REMARK    1  A    between atoms: N_4  and  C_10
REMARK    2  A    between atoms: N_5  and  C_16
REMARK    3  A    between atoms: C_7  and  C_24
REMARK    4  A    between atoms: N_23  and  C_26
REMARK    5  A    between atoms: C_26  and  C_28
REMARK    6  A    between atoms: C_28  and  O_29
REMARK                            x       y       z     vdW  Elec       q    Type
REMARK                         _______ _______ _______ _____ _____    ______ ____
ROOT
ATOM      1  O   UNL     1      32.113 -22.914 -17.222  0.00  0.00    -0.252 OA
ATOM      2  O   UNL     1      33.403 -24.601 -13.089  0.00  0.00    -0.273 OA
ATOM      3  O   UNL     1      36.604 -23.552 -16.205  0.00  0.00    -0.273 OA
ATOM      4  N   UNL     1      32.708 -23.667 -15.108  0.00  0.00    -0.215 N 
ATOM      5  N   UNL     1      34.373 -23.131 -16.732  0.00  0.00    -0.215 N 
ATOM      6  C   UNL     1      32.999 -23.197 -16.409  0.00  0.00    +0.319 C 
ATOM      7  C   UNL     1      35.036 -23.448 -14.402  0.00  0.00    +0.229 C 
ATOM      8  C   UNL     1      33.654 -23.986 -14.126  0.00  0.00    +0.250 C 
ATOM      9  C   UNL     1      35.431 -23.407 -15.858  0.00  0.00    +0.250 C 
ENDROOT
BRANCH   4  10
ATOM     10  C   UNL     1      31.319 -23.921 -14.810  0.00  0.00    +0.084 C 
ATOM     11  C   UNL     1      30.946 -25.357 -15.186  0.00  0.00    +0.020 C 
ATOM     12  C   UNL     1      30.419 -22.908 -15.520  0.00  0.00    +0.020 C 
ATOM     13  C   UNL     1      28.941 -23.192 -15.263  0.00  0.00    +0.002 C 
ATOM     14  C   UNL     1      29.466 -25.639 -14.931  0.00  0.00    +0.002 C 
ATOM     15  C   UNL     1      28.571 -24.624 -15.636  0.00  0.00    +0.000 C 
ENDBRANCH   4  10
BRANCH   5  16
ATOM     16  C   UNL     1      34.695 -22.834 -18.107  0.00  0.00    +0.084 C 
ATOM     17  C   UNL     1      33.544 -22.083 -18.783  0.00  0.00    +0.020 C 
ATOM     18  C   UNL     1      36.002 -22.043 -18.193  0.00  0.00    +0.020 C 
ATOM     19  C   UNL     1      36.339 -21.668 -19.634  0.00  0.00    +0.002 C 
ATOM     20  C   UNL     1      33.885 -21.710 -20.223  0.00  0.00    +0.002 C 
ATOM     21  C   UNL     1      35.190 -20.924 -20.307  0.00  0.00    +0.000 C 
ENDBRANCH   5  16
BRANCH   7  24
ATOM     22  O   UNL     1      36.662 -23.539 -12.653  0.00  0.00    -0.274 OA
ATOM     23  N   UNL     1      36.285 -25.441 -13.942  0.00  0.00    -0.294 N 
ATOM     24  C   UNL     1      36.076 -24.127 -13.558  0.00  0.00    +0.240 C 
ATOM     25  H   UNL     1      35.752 -25.803 -14.686  0.00  0.00    +0.150 HD
BRANCH  23  26
ATOM     26  C   UNL     1      37.251 -26.306 -13.305  0.00  0.00    +0.200 C 
BRANCH  26  28
ATOM     27  O   UNL     1      39.110 -26.965 -14.685  0.00  0.00    -0.248 OA
ATOM     28  C   UNL     1      38.635 -26.168 -13.884  0.00  0.00    +0.334 C 
BRANCH  28  29
ATOM     29  O   UNL     1      39.305 -25.081 -13.434  0.00  0.00    -0.479 OA
ATOM     30  H   UNL     1      40.028 -25.187 -12.847  0.00  0.00    +0.295 HD
ENDBRANCH  28  29
ENDBRANCH  26  28
ENDBRANCH  23  26
ENDBRANCH   7  24
TORSDOF 6
ENDMDL
MODEL 4
REMARK VINA RESULT:     -11.0      1.875      6.741
REMARK  Name = 91617630
REMARK  6 active torsions:
REMARK  status: ('A' for Active; 'I' for Inactive)
REMARK    1  A    between atoms: N_4  and  C_10
REMARK    2  A    between atoms: N_5  and  C_16
REMARK    3  A    between atoms: C_7  and  C_24
REMARK    4  A    between atoms: N_23  and  C_26
REMARK    5  A    between atoms: C_26  and  C_28
REMARK    6  A    between atoms: C_28  and  O_29
REMARK                            x       y       z     vdW  Elec       q    Type
REMARK                         _______ _______ _______ _____ _____    ______ ____
ROOT
ATOM      1  O   UNL     1      33.181 -24.378 -13.029  0.00  0.00    -0.252 OA
ATOM      2  O   UNL     1      36.610 -23.888 -16.126  0.00  0.00    -0.273 OA
ATOM      3  O   UNL     1      32.271 -23.137 -17.416  0.00  0.00    -0.273 OA
ATOM      4  N   UNL     1      34.939 -24.052 -14.510  0.00  0.00    -0.215 N 
ATOM      5  N   UNL     1      32.681 -23.671 -15.185  0.00  0.00    -0.215 N 
ATOM      6  C   UNL     1      33.572 -24.040 -14.151  0.00  0.00    +0.319 C 
ATOM      7  C   UNL     1      34.502 -22.862 -16.598  0.00  0.00    +0.229 C 
ATOM      8  C   UNL     1      35.459 -23.663 -15.750  0.00  0.00    +0.250 C 
ATOM      9  C   UNL     1      33.049 -23.249 -16.467  0.00  0.00    +0.250 C 
ENDROOT
BRANCH   4  10
ATOM     10  C   UNL     1      35.855 -24.600 -13.539  0.00  0.00    +0.084 C 
ATOM     11  C   UNL     1      36.861 -23.536 -13.091  0.00  0.00    +0.020 C 
ATOM     12  C   UNL     1      36.563 -25.835 -14.100  0.00  0.00    +0.020 C 
ATOM     13  C   UNL     1      37.578 -26.400 -13.108  0.00  0.00    +0.002 C 
ATOM     14  C   UNL     1      37.877 -24.104 -12.102  0.00  0.00    +0.002 C 
ATOM     15  C   UNL     1      38.578 -25.338 -12.661  0.00  0.00    +0.000 C 
ENDBRANCH   4  10
BRANCH   5  16
ATOM     16  C   UNL     1      31.274 -23.828 -14.905  0.00  0.00    +0.084 C 
ATOM     17  C   UNL     1      30.451 -22.785 -15.668  0.00  0.00    +0.020 C 
ATOM     18  C   UNL     1      30.817 -25.249 -15.236  0.00  0.00    +0.020 C 
ATOM     19  C   UNL     1      29.319 -25.428 -15.000  0.00  0.00    +0.002 C 
ATOM     20  C   UNL     1      28.954 -22.968 -15.429  0.00  0.00    +0.002 C 
ATOM     21  C   UNL     1      28.501 -24.387 -15.757  0.00  0.00    +0.000 C 
ENDBRANCH   5  16
BRANCH   7  24
ATOM     22  O   UNL     1      34.431 -23.523 -18.893  0.00  0.00    -0.274 OA
ATOM     23  N   UNL     1      35.966 -21.901 -18.235  0.00  0.00    -0.294 N 
ATOM     24  C   UNL     1      34.941 -22.809 -18.033  0.00  0.00    +0.240 C 
ATOM     25  H   UNL     1      36.293 -21.384 -17.464  0.00  0.00    +0.150 HD
BRANCH  23  26
ATOM     26  C   UNL     1      36.583 -21.678 -19.522  0.00  0.00    +0.200 C 
BRANCH  26  28
ATOM     27  O   UNL     1      34.908 -20.505 -20.793  0.00  0.00    -0.248 OA
ATOM     28  C   UNL     1      36.007 -20.491 -20.251  0.00  0.00    +0.334 C 
BRANCH  28  29
ATOM     29  O   UNL     1      36.819 -19.408 -20.250  0.00  0.00    -0.479 OA
ATOM     30  H   UNL     1      36.793 -18.803 -19.535  0.00  0.00    +0.295 HD
ENDBRANCH  28  29
ENDBRANCH  26  28
ENDBRANCH  23  26
ENDBRANCH   7  24
TORSDOF 6
ENDMDL
MODEL 5
REMARK VINA RESULT:     -10.9      0.936      4.981
REMARK  Name = 91617630
REMARK  6 active torsions:
REMARK  status: ('A' for Active; 'I' for Inactive)
REMARK    1  A    between atoms: N_4  and  C_10
REMARK    2  A    between atoms: N_5  and  C_16
REMARK    3  A    between atoms: C_7  and  C_24
REMARK    4  A    between atoms: N_23  and  C_26
REMARK    5  A    between atoms: C_26  and  C_28
REMARK    6  A    between atoms: C_28  and  O_29
REMARK                            x       y       z     vdW  Elec       q    Type
REMARK                         _______ _______ _______ _____ _____    ______ ____
ROOT
ATOM      1  O   UNL     1      36.381 -23.903 -16.127  0.00  0.00    -0.252 OA
ATOM      2  O   UNL     1      32.775 -24.040 -13.200  0.00  0.00    -0.273 OA
ATOM      3  O   UNL     1      32.109 -22.749 -17.552  0.00  0.00    -0.273 OA
ATOM      4  N   UNL     1      34.598 -24.083 -14.651  0.00  0.00    -0.215 N 
ATOM      5  N   UNL     1      34.253 -23.401 -16.912  0.00  0.00    -0.215 N 
ATOM      6  C   UNL     1      35.166 -23.821 -15.918  0.00  0.00    +0.319 C 
ATOM      7  C   UNL     1      32.328 -24.038 -15.549  0.00  0.00    +0.229 C 
ATOM      8  C   UNL     1      33.234 -24.033 -14.343  0.00  0.00    +0.250 C 
ATOM      9  C   UNL     1      32.865 -23.312 -16.759  0.00  0.00    +0.250 C 
ENDROOT
BRANCH   4  10
ATOM     10  C   UNL     1      35.522 -24.333 -13.570  0.00  0.00    +0.084 C 
ATOM     11  C   UNL     1      36.477 -23.149 -13.398  0.00  0.00    +0.020 C 
ATOM     12  C   UNL     1      36.287 -25.637 -13.803  0.00  0.00    +0.020 C 
ATOM     13  C   UNL     1      37.310 -25.893 -12.698  0.00  0.00    +0.002 C 
ATOM     14  C   UNL     1      37.501 -23.409 -12.295  0.00  0.00    +0.002 C 
ATOM     15  C   UNL     1      38.260 -24.712 -12.527  0.00  0.00    +0.000 C 
ENDBRANCH   4  10
BRANCH   5  16
ATOM     16  C   UNL     1      34.824 -22.950 -18.158  0.00  0.00    +0.084 C 
ATOM     17  C   UNL     1      33.796 -22.152 -18.967  0.00  0.00    +0.020 C 
ATOM     18  C   UNL     1      36.089 -22.129 -17.902  0.00  0.00    +0.020 C 
ATOM     19  C   UNL     1      36.685 -21.592 -19.201  0.00  0.00    +0.002 C 
ATOM     20  C   UNL     1      34.396 -21.618 -20.265  0.00  0.00    +0.002 C 
ATOM     21  C   UNL     1      35.659 -20.802 -20.007  0.00  0.00    +0.000 C 
ENDBRANCH   5  16
BRANCH   7  24
ATOM     22  O   UNL     1      30.728 -22.679 -14.407  0.00  0.00    -0.274 OA
ATOM     23  N   UNL     1      29.969 -24.338 -15.854  0.00  0.00    -0.294 N 
ATOM     24  C   UNL     1      30.936 -23.593 -15.201  0.00  0.00    +0.240 C 
ATOM     25  H   UNL     1      30.261 -25.049 -16.470  0.00  0.00    +0.150 HD
BRANCH  23  26
ATOM     26  C   UNL     1      28.552 -24.126 -15.674  0.00  0.00    +0.200 C 
BRANCH  26  28
ATOM     27  O   UNL     1      27.911 -22.031 -16.671  0.00  0.00    -0.248 OA
ATOM     28  C   UNL     1      27.948 -23.253 -16.744  0.00  0.00    +0.334 C 
BRANCH  28  29
ATOM     29  O   UNL     1      27.449 -23.949 -17.793  0.00  0.00    -0.479 OA
ATOM     30  H   UNL     1      26.585 -24.308 -17.748  0.00  0.00    +0.295 HD
ENDBRANCH  28  29
ENDBRANCH  26  28
ENDBRANCH  23  26
ENDBRANCH   7  24
TORSDOF 6
ENDMDL
MODEL 6
REMARK VINA RESULT:     -10.8      1.849      6.877
REMARK  Name = 91617630
REMARK  6 active torsions:
REMARK  status: ('A' for Active; 'I' for Inactive)
REMARK    1  A    between atoms: N_4  and  C_10
REMARK    2  A    between atoms: N_5  and  C_16
REMARK    3  A    between atoms: C_7  and  C_24
REMARK    4  A    between atoms: N_23  and  C_26
REMARK    5  A    between atoms: C_26  and  C_28
REMARK    6  A    between atoms: C_28  and  O_29
REMARK                            x       y       z     vdW  Elec       q    Type
REMARK                         _______ _______ _______ _____ _____    ______ ____
ROOT
ATOM      1  O   UNL     1      31.746 -22.764 -17.637  0.00  0.00    -0.252 OA
ATOM      2  O   UNL     1      33.066 -24.545 -13.552  0.00  0.00    -0.273 OA
ATOM      3  O   UNL     1      36.247 -23.372 -16.644  0.00  0.00    -0.273 OA
ATOM      4  N   UNL     1      32.355 -23.565 -15.544  0.00  0.00    -0.215 N 
ATOM      5  N   UNL     1      34.010 -22.966 -17.156  0.00  0.00    -0.215 N 
ATOM      6  C   UNL     1      32.637 -23.058 -16.832  0.00  0.00    +0.319 C 
ATOM      7  C   UNL     1      34.681 -23.336 -14.837  0.00  0.00    +0.229 C 
ATOM      8  C   UNL     1      33.307 -23.899 -14.573  0.00  0.00    +0.250 C 
ATOM      9  C   UNL     1      35.073 -23.252 -16.292  0.00  0.00    +0.250 C 
ENDROOT
BRANCH   4  10
ATOM     10  C   UNL     1      30.970 -23.845 -15.252  0.00  0.00    +0.084 C 
ATOM     11  C   UNL     1      30.619 -25.282 -15.647  0.00  0.00    +0.020 C 
ATOM     12  C   UNL     1      30.055 -22.836 -15.948  0.00  0.00    +0.020 C 
ATOM     13  C   UNL     1      28.581 -23.147 -15.696  0.00  0.00    +0.002 C 
ATOM     14  C   UNL     1      29.144 -25.589 -15.398  0.00  0.00    +0.002 C 
ATOM     15  C   UNL     1      28.233 -24.579 -16.089  0.00  0.00    +0.000 C 
ENDBRANCH   4  10
BRANCH   5  16
ATOM     16  C   UNL     1      34.326 -22.628 -18.523  0.00  0.00    +0.084 C 
ATOM     17  C   UNL     1      33.288 -21.656 -19.094  0.00  0.00    +0.020 C 
ATOM     18  C   UNL     1      35.739 -22.052 -18.621  0.00  0.00    +0.020 C 
ATOM     19  C   UNL     1      36.081 -21.635 -20.049  0.00  0.00    +0.002 C 
ATOM     20  C   UNL     1      33.632 -21.242 -20.523  0.00  0.00    +0.002 C 
ATOM     21  C   UNL     1      35.044 -20.671 -20.618  0.00  0.00    +0.000 C 
ENDBRANCH   5  16
BRANCH   7  24
ATOM     22  O   UNL     1      36.209 -25.107 -14.346  0.00  0.00    -0.274 OA
ATOM     23  N   UNL     1      36.053 -23.312 -12.871  0.00  0.00    -0.294 N 
ATOM     24  C   UNL     1      35.731 -24.025 -14.013  0.00  0.00    +0.240 C 
ATOM     25  H   UNL     1      35.601 -22.452 -12.712  0.00  0.00    +0.150 HD
BRANCH  23  26
ATOM     26  C   UNL     1      37.019 -23.770 -11.899  0.00  0.00    +0.200 C 
BRANCH  26  28
ATOM     27  O   UNL     1      36.094 -24.449  -9.783  0.00  0.00    -0.248 OA
ATOM     28  C   UNL     1      36.441 -24.756 -10.917  0.00  0.00    +0.334 C 
BRANCH  28  29
ATOM     29  O   UNL     1      36.343 -26.015 -11.406  0.00  0.00    -0.479 OA
ATOM     30  H   UNL     1      35.609 -26.255 -11.937  0.00  0.00    +0.295 HD
ENDBRANCH  28  29
ENDBRANCH  26  28
ENDBRANCH  23  26
ENDBRANCH   7  24
TORSDOF 6
ENDMDL
MODEL 7
REMARK VINA RESULT:     -10.4      0.955      1.471
REMARK  Name = 91617630
REMARK  6 active torsions:
REMARK  status: ('A' for Active; 'I' for Inactive)
REMARK    1  A    between atoms: N_4  and  C_10
REMARK    2  A    between atoms: N_5  and  C_16
REMARK    3  A    between atoms: C_7  and  C_24
REMARK    4  A    between atoms: N_23  and  C_26
REMARK    5  A    between atoms: C_26  and  C_28
REMARK    6  A    between atoms: C_28  and  O_29
REMARK                            x       y       z     vdW  Elec       q    Type
REMARK                         _______ _______ _______ _____ _____    ______ ____
ROOT
ATOM      1  O   UNL     1      36.422 -22.585 -17.364  0.00  0.00    -0.252 OA
ATOM      2  O   UNL     1      31.850 -23.279 -17.817  0.00  0.00    -0.273 OA
ATOM      3  O   UNL     1      34.004 -24.777 -14.053  0.00  0.00    -0.273 OA
ATOM      4  N   UNL     1      34.124 -22.819 -17.595  0.00  0.00    -0.215 N 
ATOM      5  N   UNL     1      35.245 -23.607 -15.642  0.00  0.00    -0.215 N 
ATOM      6  C   UNL     1      35.342 -22.959 -16.893  0.00  0.00    +0.319 C 
ATOM      7  C   UNL     1      32.809 -23.436 -15.632  0.00  0.00    +0.229 C 
ATOM      8  C   UNL     1      32.862 -23.196 -17.120  0.00  0.00    +0.250 C 
ATOM      9  C   UNL     1      34.059 -24.031 -15.032  0.00  0.00    +0.250 C 
ENDROOT
BRANCH   4  10
ATOM     10  C   UNL     1      34.213 -22.330 -18.950  0.00  0.00    +0.084 C 
ATOM     11  C   UNL     1      35.501 -21.526 -19.146  0.00  0.00    +0.020 C 
ATOM     12  C   UNL     1      32.978 -21.501 -19.309  0.00  0.00    +0.020 C 
ATOM     13  C   UNL     1      33.077 -20.928 -20.721  0.00  0.00    +0.002 C 
ATOM     14  C   UNL     1      35.596 -20.951 -20.557  0.00  0.00    +0.002 C 
ATOM     15  C   UNL     1      34.362 -20.128 -20.915  0.00  0.00    +0.000 C 
ENDBRANCH   4  10
BRANCH   5  16
ATOM     16  C   UNL     1      36.491 -23.929 -14.988  0.00  0.00    +0.084 C 
ATOM     17  C   UNL     1      36.487 -23.432 -13.539  0.00  0.00    +0.020 C 
ATOM     18  C   UNL     1      36.761 -25.433 -15.059  0.00  0.00    +0.020 C 
ATOM     19  C   UNL     1      38.047 -25.810 -14.328  0.00  0.00    +0.002 C 
ATOM     20  C   UNL     1      37.775 -23.810 -12.812  0.00  0.00    +0.002 C 
ATOM     21  C   UNL     1      38.043 -25.310 -12.886  0.00  0.00    +0.000 C 
ENDBRANCH   5  16
BRANCH   7  24
ATOM     22  O   UNL     1      31.646 -25.256 -14.609  0.00  0.00    -0.274 OA
ATOM     23  N   UNL     1      30.417 -23.590 -15.675  0.00  0.00    -0.294 N 
ATOM     24  C   UNL     1      31.579 -24.201 -15.236  0.00  0.00    +0.240 C 
ATOM     25  H   UNL     1      30.492 -22.742 -16.170  0.00  0.00    +0.150 HD
BRANCH  23  26
ATOM     26  C   UNL     1      29.100 -24.136 -15.444  0.00  0.00    +0.200 C 
BRANCH  26  28
ATOM     27  O   UNL     1      27.760 -23.746 -17.405  0.00  0.00    -0.248 OA
ATOM     28  C   UNL     1      28.028 -23.446 -16.248  0.00  0.00    +0.334 C 
BRANCH  28  29
ATOM     29  O   UNL     1      27.392 -22.462 -15.571  0.00  0.00    -0.479 OA
ATOM     30  H   UNL     1      27.043 -22.631 -14.717  0.00  0.00    +0.295 HD
ENDBRANCH  28  29
ENDBRANCH  26  28
ENDBRANCH  23  26
ENDBRANCH   7  24
TORSDOF 6
ENDMDL
MODEL 8
REMARK VINA RESULT:     -10.4      1.939      5.060
REMARK  Name = 91617630
REMARK  6 active torsions:
REMARK  status: ('A' for Active; 'I' for Inactive)
REMARK    1  A    between atoms: N_4  and  C_10
REMARK    2  A    between atoms: N_5  and  C_16
REMARK    3  A    between atoms: C_7  and  C_24
REMARK    4  A    between atoms: N_23  and  C_26
REMARK    5  A    between atoms: C_26  and  C_28
REMARK    6  A    between atoms: C_28  and  O_29
REMARK                            x       y       z     vdW  Elec       q    Type
REMARK                         _______ _______ _______ _____ _____    ______ ____
ROOT
ATOM      1  O   UNL     1      32.999 -25.020 -13.023  0.00  0.00    -0.252 OA
ATOM      2  O   UNL     1      32.372 -22.821 -17.068  0.00  0.00    -0.273 OA
ATOM      3  O   UNL     1      36.629 -23.484 -15.489  0.00  0.00    -0.273 OA
ATOM      4  N   UNL     1      32.635 -24.015 -15.085  0.00  0.00    -0.215 N 
ATOM      5  N   UNL     1      34.849 -24.351 -14.259  0.00  0.00    -0.215 N 
ATOM      6  C   UNL     1      33.461 -24.517 -14.053  0.00  0.00    +0.319 C 
ATOM      7  C   UNL     1      34.529 -23.744 -16.603  0.00  0.00    +0.229 C 
ATOM      8  C   UNL     1      33.083 -23.454 -16.286  0.00  0.00    +0.250 C 
ATOM      9  C   UNL     1      35.446 -23.819 -15.407  0.00  0.00    +0.250 C 
ENDROOT
BRANCH   4  10
ATOM     10  C   UNL     1      31.216 -24.002 -14.824  0.00  0.00    +0.084 C 
ATOM     11  C   UNL     1      30.568 -25.296 -15.322  0.00  0.00    +0.020 C 
ATOM     12  C   UNL     1      30.561 -22.771 -15.456  0.00  0.00    +0.020 C 
ATOM     13  C   UNL     1      29.049 -22.766 -15.239  0.00  0.00    +0.002 C 
ATOM     14  C   UNL     1      29.056 -25.287 -15.108  0.00  0.00    +0.002 C 
ATOM     15  C   UNL     1      28.405 -24.057 -15.734  0.00  0.00    +0.000 C 
ENDBRANCH   4  10
BRANCH   5  16
ATOM     16  C   UNL     1      35.707 -24.684 -13.146  0.00  0.00    +0.084 C 
ATOM     17  C   UNL     1      36.785 -25.684 -13.574  0.00  0.00    +0.020 C 
ATOM     18  C   UNL     1      36.326 -23.419 -12.549  0.00  0.00    +0.020 C 
ATOM     19  C   UNL     1      37.281 -23.746 -11.404  0.00  0.00    +0.002 C 
ATOM     20  C   UNL     1      37.737 -26.009 -12.426  0.00  0.00    +0.002 C 
ATOM     21  C   UNL     1      38.352 -24.746 -11.830  0.00  0.00    +0.000 C 
ENDBRANCH   5  16
BRANCH   7  24
ATOM     22  O   UNL     1      36.068 -22.140 -17.480  0.00  0.00    -0.274 OA
ATOM     23  N   UNL     1      34.286 -22.834 -18.807  0.00  0.00    -0.294 N 
ATOM     24  C   UNL     1      35.062 -22.823 -17.662  0.00  0.00    +0.240 C 
ATOM     25  H   UNL     1      33.499 -23.426 -18.834  0.00  0.00    +0.150 HD
BRANCH  23  26
ATOM     26  C   UNL     1      34.571 -22.018 -19.965  0.00  0.00    +0.200 C 
BRANCH  26  28
ATOM     27  O   UNL     1      33.549 -20.197 -21.164  0.00  0.00    -0.248 OA
ATOM     28  C   UNL     1      33.463 -21.048 -20.286  0.00  0.00    +0.334 C 
BRANCH  28  29
ATOM     29  O   UNL     1      32.364 -21.205 -19.512  0.00  0.00    -0.479 OA
ATOM     30  H   UNL     1      32.135 -22.055 -19.191  0.00  0.00    +0.295 HD
ENDBRANCH  28  29
ENDBRANCH  26  28
ENDBRANCH  23  26
ENDBRANCH   7  24
TORSDOF 6
ENDMDL
MODEL 9
REMARK VINA RESULT:     -10.1      1.561      2.091
REMARK  Name = 91617630
REMARK  6 active torsions:
REMARK  status: ('A' for Active; 'I' for Inactive)
REMARK    1  A    between atoms: N_4  and  C_10
REMARK    2  A    between atoms: N_5  and  C_16
REMARK    3  A    between atoms: C_7  and  C_24
REMARK    4  A    between atoms: N_23  and  C_26
REMARK    5  A    between atoms: C_26  and  C_28
REMARK    6  A    between atoms: C_28  and  O_29
REMARK                            x       y       z     vdW  Elec       q    Type
REMARK                         _______ _______ _______ _____ _____    ______ ____
ROOT
ATOM      1  O   UNL     1      36.866 -23.047 -16.832  0.00  0.00    -0.252 OA
ATOM      2  O   UNL     1      32.225 -23.238 -16.940  0.00  0.00    -0.273 OA
ATOM      3  O   UNL     1      34.459 -24.582 -13.164  0.00  0.00    -0.273 OA
ATOM      4  N   UNL     1      34.545 -23.029 -16.902  0.00  0.00    -0.215 N 
ATOM      5  N   UNL     1      35.707 -23.738 -14.942  0.00  0.00    -0.215 N 
ATOM      6  C   UNL     1      35.787 -23.239 -16.261  0.00  0.00    +0.319 C 
ATOM      7  C   UNL     1      33.312 -23.280 -14.810  0.00  0.00    +0.229 C 
ATOM      8  C   UNL     1      33.286 -23.203 -16.316  0.00  0.00    +0.250 C 
ATOM      9  C   UNL     1      34.527 -23.953 -14.221  0.00  0.00    +0.250 C 
ENDROOT
BRANCH   4  10
ATOM     10  C   UNL     1      34.593 -22.698 -18.306  0.00  0.00    +0.084 C 
ATOM     11  C   UNL     1      35.873 -21.924 -18.631  0.00  0.00    +0.020 C 
ATOM     12  C   UNL     1      33.346 -21.913 -18.719  0.00  0.00    +0.020 C 
ATOM     13  C   UNL     1      33.402 -21.504 -20.190  0.00  0.00    +0.002 C 
ATOM     14  C   UNL     1      35.924 -21.513 -20.100  0.00  0.00    +0.002 C 
ATOM     15  C   UNL     1      34.679 -20.734 -20.512  0.00  0.00    +0.000 C 
ENDBRANCH   4  10
BRANCH   5  16
ATOM     16  C   UNL     1      36.953 -24.136 -14.330  0.00  0.00    +0.084 C 
ATOM     17  C   UNL     1      37.000 -23.695 -12.863  0.00  0.00    +0.020 C 
ATOM     18  C   UNL     1      37.158 -25.645 -14.464  0.00  0.00    +0.020 C 
ATOM     19  C   UNL     1      38.443 -26.102 -13.778  0.00  0.00    +0.002 C 
ATOM     20  C   UNL     1      38.286 -24.154 -12.181  0.00  0.00    +0.002 C 
ATOM     21  C   UNL     1      38.491 -25.659 -12.319  0.00  0.00    +0.000 C 
ENDBRANCH   5  16
BRANCH   7  24
ATOM     22  O   UNL     1      31.424 -23.303 -13.345  0.00  0.00    -0.274 OA
ATOM     23  N   UNL     1      31.675 -25.030 -14.886  0.00  0.00    -0.294 N 
ATOM     24  C   UNL     1      32.035 -23.849 -14.260  0.00  0.00    +0.240 C 
ATOM     25  H   UNL     1      32.248 -25.370 -15.611  0.00  0.00    +0.150 HD
BRANCH  23  26
ATOM     26  C   UNL     1      30.500 -25.789 -14.527  0.00  0.00    +0.200 C 
BRANCH  26  28
ATOM     27  O   UNL     1      28.128 -25.392 -14.632  0.00  0.00    -0.248 OA
ATOM     28  C   UNL     1      29.236 -25.236 -15.132  0.00  0.00    +0.334 C 
BRANCH  28  29
ATOM     29  O   UNL     1      29.440 -24.553 -16.283  0.00  0.00    -0.479 OA
ATOM     30  H   UNL     1      30.304 -24.275 -16.515  0.00  0.00    +0.295 HD
ENDBRANCH  28  29
ENDBRANCH  26  28
ENDBRANCH  23  26
ENDBRANCH   7  24
TORSDOF 6
ENDMDL
