MODEL 1
REMARK VINA RESULT:     -12.5      0.000      0.000
REMARK  Name = 445480
REMARK  5 active torsions:
REMARK  status: ('A' for Active; 'I' for Inactive)
REMARK    1  A    between atoms: N_2  and  C_21
REMARK    2  A    between atoms: C_3  and  N_7
REMARK    3  A    between atoms: N_7  and  S_9
REMARK    4  A    between atoms: S_9  and  C_14
REMARK    5  A    between atoms: C_21  and  C_24
REMARK                            x       y       z     vdW  Elec       q    Type
REMARK                         _______ _______ _______ _____ _____    ______ ____
ROOT
ATOM      1  O   UNL     1      36.818 -20.772 -19.957  0.00  0.00    -0.273 OA
ATOM      2  N   UNL     1      35.313 -19.662 -21.383  0.00  0.00    -0.274 N 
ATOM      3  C   UNL     1      34.489 -21.447 -20.132  0.00  0.00    +0.153 C 
ATOM      4  C   UNL     1      33.329 -20.583 -20.612  0.00  0.00    +0.048 C 
ATOM      5  C   UNL     1      33.925 -19.793 -21.762  0.00  0.00    +0.096 C 
ATOM      6  C   UNL     1      35.706 -20.608 -20.437  0.00  0.00    +0.242 C 
ENDROOT
BRANCH   3   7
ATOM      7  N   UNL     1      34.410 -21.683 -18.686  0.00  0.00    -0.171 NA
ATOM      8  H   UNL     1      35.366 -21.778 -18.341  0.00  0.00    +0.149 HD
BRANCH   7   9
ATOM      9  S   UNL     1      33.532 -23.049 -18.138  0.00  0.00    +0.066 S 
ATOM     10  O   UNL     1      33.915 -24.209 -18.922  0.00  0.00    -0.152 OA
ATOM     11  O   UNL     1      32.140 -22.682 -17.968  0.00  0.00    -0.152 OA
BRANCH   9  14
ATOM     12  S   UNL     1      35.725 -23.058 -16.211  0.00  0.00    -0.066 S 
ATOM     13  N   UNL     1      33.965 -24.433 -13.025  0.00  0.00    -0.243 NA
ATOM     14  C   UNL     1      34.085 -23.397 -16.469  0.00  0.00    +0.153 C 
ATOM     15  C   UNL     1      33.438 -23.877 -15.383  0.00  0.00    +0.046 C 
ATOM     16  C   UNL     1      34.315 -23.983 -14.262  0.00  0.00    +0.089 C 
ATOM     17  C   UNL     1      35.610 -23.566 -14.572  0.00  0.00    +0.048 C 
ATOM     18  C   UNL     1      36.612 -23.598 -13.592  0.00  0.00    +0.010 C 
ATOM     19  C   UNL     1      36.261 -24.056 -12.329  0.00  0.00    +0.021 C 
ATOM     20  C   UNL     1      34.954 -24.450 -12.109  0.00  0.00    +0.099 C 
ENDBRANCH   9  14
ENDBRANCH   7   9
ENDBRANCH   3   7
BRANCH   2  21
ATOM     21  C   UNL     1      36.190 -18.716 -22.038  0.00  0.00    +0.120 C 
BRANCH  21  24
ATOM     22  N   UNL     1      33.471 -13.709 -24.472  0.00  0.00    -0.230 NA
ATOM     23  N   UNL     1      34.570 -13.821 -22.393  0.00  0.00    -0.343 N 
ATOM     24  C   UNL     1      35.432 -17.914 -23.060  0.00  0.00    -0.002 C 
ATOM     25  C   UNL     1      35.163 -16.574 -22.817  0.00  0.00    +0.000 C 
ATOM     26  C   UNL     1      35.010 -18.524 -24.232  0.00  0.00    -0.003 C 
ATOM     27  C   UNL     1      34.454 -15.819 -23.766  0.00  0.00    +0.031 C 
ATOM     28  C   UNL     1      34.018 -16.427 -24.963  0.00  0.00    +0.004 C 
ATOM     29  C   UNL     1      34.305 -17.785 -25.182  0.00  0.00    -0.000 C 
ATOM     30  C   UNL     1      34.150 -14.469 -23.583  0.00  0.00    +0.125 C 
ATOM     31  C   UNL     1      33.313 -15.659 -25.896  0.00  0.00    +0.021 C 
ATOM     32  C   UNL     1      33.070 -14.325 -25.605  0.00  0.00    +0.100 C 
ATOM     33  H   UNL     1      34.363 -12.870 -22.251  0.00  0.00    +0.144 HD
ATOM     34  H   UNL     1      35.069 -14.324 -21.709  0.00  0.00    +0.144 HD
ENDBRANCH  21  24
ENDBRANCH   2  21
TORSDOF 5
ENDMDL
MODEL 2
REMARK VINA RESULT:     -12.0      1.684      2.341
REMARK  Name = 445480
REMARK  5 active torsions:
REMARK  status: ('A' for Active; 'I' for Inactive)
REMARK    1  A    between atoms: N_2  and  C_21
REMARK    2  A    between atoms: C_3  and  N_7
REMARK    3  A    between atoms: N_7  and  S_9
REMARK    4  A    between atoms: S_9  and  C_14
REMARK    5  A    between atoms: C_21  and  C_24
REMARK                            x       y       z     vdW  Elec       q    Type
REMARK                         _______ _______ _______ _____ _____    ______ ____
ROOT
ATOM      1  O   UNL     1      36.166 -21.535 -18.997  0.00  0.00    -0.273 OA
ATOM      2  N   UNL     1      35.030 -20.341 -20.674  0.00  0.00    -0.274 N 
ATOM      3  C   UNL     1      33.806 -21.901 -19.451  0.00  0.00    +0.153 C 
ATOM      4  C   UNL     1      32.853 -20.926 -20.131  0.00  0.00    +0.048 C 
ATOM      5  C   UNL     1      33.697 -20.312 -21.231  0.00  0.00    +0.096 C 
ATOM      6  C   UNL     1      35.159 -21.259 -19.633  0.00  0.00    +0.242 C 
ENDROOT
BRANCH   3   7
ATOM      7  N   UNL     1      33.510 -22.017 -18.018  0.00  0.00    -0.171 NA
ATOM      8  H   UNL     1      34.269 -21.558 -17.513  0.00  0.00    +0.149 HD
BRANCH   7   9
ATOM      9  S   UNL     1      33.334 -23.587 -17.354  0.00  0.00    +0.066 S 
ATOM     10  O   UNL     1      33.831 -24.566 -18.303  0.00  0.00    -0.152 OA
ATOM     11  O   UNL     1      32.013 -23.710 -16.769  0.00  0.00    -0.152 OA
BRANCH   9  14
ATOM     12  S   UNL     1      33.690 -24.290 -14.543  0.00  0.00    -0.066 S 
ATOM     13  N   UNL     1      37.443 -23.427 -13.988  0.00  0.00    -0.243 NA
ATOM     14  C   UNL     1      34.434 -23.690 -15.942  0.00  0.00    +0.153 C 
ATOM     15  C   UNL     1      35.740 -23.378 -15.789  0.00  0.00    +0.046 C 
ATOM     16  C   UNL     1      36.182 -23.637 -14.456  0.00  0.00    +0.089 C 
ATOM     17  C   UNL     1      35.156 -24.143 -13.657  0.00  0.00    +0.048 C 
ATOM     18  C   UNL     1      35.404 -24.459 -12.313  0.00  0.00    +0.010 C 
ATOM     19  C   UNL     1      36.688 -24.246 -11.830  0.00  0.00    +0.021 C 
ATOM     20  C   UNL     1      37.644 -23.741 -12.692  0.00  0.00    +0.099 C 
ENDBRANCH   9  14
ENDBRANCH   7   9
ENDBRANCH   3   7
BRANCH   2  21
ATOM     21  C   UNL     1      36.110 -19.573 -21.255  0.00  0.00    +0.120 C 
BRANCH  21  24
ATOM     22  N   UNL     1      33.474 -17.069 -26.271  0.00  0.00    -0.230 NA
ATOM     23  N   UNL     1      33.917 -19.356 -25.929  0.00  0.00    -0.343 N 
ATOM     24  C   UNL     1      35.567 -18.477 -22.129  0.00  0.00    -0.002 C 
ATOM     25  C   UNL     1      35.031 -18.791 -23.370  0.00  0.00    +0.000 C 
ATOM     26  C   UNL     1      35.610 -17.163 -21.684  0.00  0.00    -0.003 C 
ATOM     27  C   UNL     1      34.524 -17.772 -24.193  0.00  0.00    +0.031 C 
ATOM     28  C   UNL     1      34.561 -16.432 -23.753  0.00  0.00    +0.004 C 
ATOM     29  C   UNL     1      35.109 -16.142 -22.493  0.00  0.00    -0.000 C 
ATOM     30  C   UNL     1      33.972 -18.021 -25.451  0.00  0.00    +0.125 C 
ATOM     31  C   UNL     1      34.051 -15.431 -24.587  0.00  0.00    +0.021 C 
ATOM     32  C   UNL     1      33.527 -15.799 -25.817  0.00  0.00    +0.100 C 
ATOM     33  H   UNL     1      33.531 -19.546 -26.814  0.00  0.00    +0.144 HD
ATOM     34  H   UNL     1      34.264 -20.092 -25.375  0.00  0.00    +0.144 HD
ENDBRANCH  21  24
ENDBRANCH   2  21
TORSDOF 5
ENDMDL
MODEL 3
REMARK VINA RESULT:     -11.8      2.753     10.569
REMARK  Name = 445480
REMARK  5 active torsions:
REMARK  status: ('A' for Active; 'I' for Inactive)
REMARK    1  A    between atoms: N_2  and  C_21
REMARK    2  A    between atoms: C_3  and  N_7
REMARK    3  A    between atoms: N_7  and  S_9
REMARK    4  A    between atoms: S_9  and  C_14
REMARK    5  A    between atoms: C_21  and  C_24
REMARK                            x       y       z     vdW  Elec       q    Type
REMARK                         _______ _______ _______ _____ _____    ______ ____
ROOT
ATOM      1  O   UNL     1      36.237 -21.638 -20.120  0.00  0.00    -0.273 OA
ATOM      2  N   UNL     1      34.017 -22.213 -19.597  0.00  0.00    -0.274 N 
ATOM      3  C   UNL     1      34.391 -20.113 -20.537  0.00  0.00    +0.153 C 
ATOM      4  C   UNL     1      32.923 -20.491 -20.700  0.00  0.00    +0.048 C 
ATOM      5  C   UNL     1      32.720 -21.582 -19.666  0.00  0.00    +0.096 C 
ATOM      6  C   UNL     1      35.039 -21.398 -20.085  0.00  0.00    +0.242 C 
ENDROOT
BRANCH   3   7
ATOM      7  N   UNL     1      34.974 -19.697 -21.817  0.00  0.00    -0.171 NA
ATOM      8  H   UNL     1      35.503 -20.490 -22.182  0.00  0.00    +0.149 HD
BRANCH   7   9
ATOM      9  S   UNL     1      36.023 -18.341 -21.823  0.00  0.00    +0.066 S 
ATOM     10  O   UNL     1      37.235 -18.676 -22.547  0.00  0.00    -0.152 OA
ATOM     11  O   UNL     1      36.076 -17.776 -20.489  0.00  0.00    -0.152 OA
BRANCH   9  14
ATOM     12  S   UNL     1      34.720 -17.584 -24.323  0.00  0.00    -0.066 S 
ATOM     13  N   UNL     1      33.891 -13.838 -23.674  0.00  0.00    -0.243 NA
ATOM     14  C   UNL     1      35.225 -17.062 -22.793  0.00  0.00    +0.153 C 
ATOM     15  C   UNL     1      34.955 -15.763 -22.530  0.00  0.00    +0.046 C 
ATOM     16  C   UNL     1      34.295 -15.138 -23.630  0.00  0.00    +0.089 C 
ATOM     17  C   UNL     1      34.100 -16.023 -24.691  0.00  0.00    +0.048 C 
ATOM     18  C   UNL     1      33.464 -15.586 -25.862  0.00  0.00    +0.010 C 
ATOM     19  C   UNL     1      33.050 -14.262 -25.913  0.00  0.00    +0.021 C 
ATOM     20  C   UNL     1      33.285 -13.454 -24.815  0.00  0.00    +0.099 C 
ENDBRANCH   9  14
ENDBRANCH   7   9
ENDBRANCH   3   7
BRANCH   2  21
ATOM     21  C   UNL     1      34.201 -23.501 -18.963  0.00  0.00    +0.120 C 
BRANCH  21  24
ATOM     22  N   UNL     1      29.910 -23.330 -14.498  0.00  0.00    -0.230 NA
ATOM     23  N   UNL     1      29.503 -23.330 -16.817  0.00  0.00    -0.343 N 
ATOM     24  C   UNL     1      33.671 -23.477 -17.557  0.00  0.00    -0.002 C 
ATOM     25  C   UNL     1      32.300 -23.428 -17.341  0.00  0.00    +0.000 C 
ATOM     26  C   UNL     1      34.559 -23.500 -16.491  0.00  0.00    -0.003 C 
ATOM     27  C   UNL     1      31.798 -23.404 -16.030  0.00  0.00    +0.031 C 
ATOM     28  C   UNL     1      32.690 -23.428 -14.937  0.00  0.00    +0.004 C 
ATOM     29  C   UNL     1      34.072 -23.476 -15.184  0.00  0.00    -0.000 C 
ATOM     30  C   UNL     1      30.432 -23.355 -15.745  0.00  0.00    +0.125 C 
ATOM     31  C   UNL     1      32.169 -23.402 -13.638  0.00  0.00    +0.021 C 
ATOM     32  C   UNL     1      30.793 -23.355 -13.478  0.00  0.00    +0.100 C 
ATOM     33  H   UNL     1      28.537 -23.295 -16.631  0.00  0.00    +0.144 HD
ATOM     34  H   UNL     1      29.825 -23.346 -17.748  0.00  0.00    +0.144 HD
ENDBRANCH  21  24
ENDBRANCH   2  21
TORSDOF 5
ENDMDL
MODEL 4
REMARK VINA RESULT:     -11.5      2.017      2.781
REMARK  Name = 445480
REMARK  5 active torsions:
REMARK  status: ('A' for Active; 'I' for Inactive)
REMARK    1  A    between atoms: N_2  and  C_21
REMARK    2  A    between atoms: C_3  and  N_7
REMARK    3  A    between atoms: N_7  and  S_9
REMARK    4  A    between atoms: S_9  and  C_14
REMARK    5  A    between atoms: C_21  and  C_24
REMARK                            x       y       z     vdW  Elec       q    Type
REMARK                         _______ _______ _______ _____ _____    ______ ____
ROOT
ATOM      1  O   UNL     1      36.624 -20.329 -20.197  0.00  0.00    -0.273 OA
ATOM      2  N   UNL     1      35.189 -19.305 -21.754  0.00  0.00    -0.274 N 
ATOM      3  C   UNL     1      34.349 -21.111 -20.544  0.00  0.00    +0.153 C 
ATOM      4  C   UNL     1      33.193 -20.306 -21.127  0.00  0.00    +0.048 C 
ATOM      5  C   UNL     1      33.843 -19.505 -22.239  0.00  0.00    +0.096 C 
ATOM      6  C   UNL     1      35.547 -20.221 -20.765  0.00  0.00    +0.242 C 
ENDROOT
BRANCH   3   7
ATOM      7  N   UNL     1      34.166 -21.332 -19.105  0.00  0.00    -0.171 NA
ATOM      8  H   UNL     1      34.739 -20.644 -18.616  0.00  0.00    +0.149 HD
BRANCH   7   9
ATOM      9  S   UNL     1      34.566 -22.873 -18.468  0.00  0.00    +0.066 S 
ATOM     10  O   UNL     1      35.848 -22.793 -17.793  0.00  0.00    -0.152 OA
ATOM     11  O   UNL     1      34.306 -23.884 -19.473  0.00  0.00    -0.152 OA
BRANCH   9  14
ATOM     12  S   UNL     1      34.072 -23.765 -15.732  0.00  0.00    -0.066 S 
ATOM     13  N   UNL     1      30.190 -23.611 -15.544  0.00  0.00    -0.243 NA
ATOM     14  C   UNL     1      33.372 -23.238 -17.181  0.00  0.00    +0.153 C 
ATOM     15  C   UNL     1      32.021 -23.171 -17.155  0.00  0.00    +0.046 C 
ATOM     16  C   UNL     1      31.507 -23.570 -15.885  0.00  0.00    +0.089 C 
ATOM     17  C   UNL     1      32.526 -23.925 -14.999  0.00  0.00    +0.048 C 
ATOM     18  C   UNL     1      32.210 -24.344 -13.699  0.00  0.00    +0.010 C 
ATOM     19  C   UNL     1      30.869 -24.388 -13.345  0.00  0.00    +0.021 C 
ATOM     20  C   UNL     1      29.925 -24.018 -14.286  0.00  0.00    +0.099 C 
ENDBRANCH   9  14
ENDBRANCH   7   9
ENDBRANCH   3   7
BRANCH   2  21
ATOM     21  C   UNL     1      36.072 -18.329 -22.353  0.00  0.00    +0.120 C 
BRANCH  21  24
ATOM     22  N   UNL     1      33.027 -13.720 -25.157  0.00  0.00    -0.230 NA
ATOM     23  N   UNL     1      33.732 -15.731 -26.158  0.00  0.00    -0.343 N 
ATOM     24  C   UNL     1      35.385 -16.997 -22.469  0.00  0.00    -0.002 C 
ATOM     25  C   UNL     1      34.851 -16.605 -23.690  0.00  0.00    +0.000 C 
ATOM     26  C   UNL     1      35.294 -16.175 -21.356  0.00  0.00    -0.003 C 
ATOM     27  C   UNL     1      34.209 -15.362 -23.807  0.00  0.00    +0.031 C 
ATOM     28  C   UNL     1      34.109 -14.516 -22.682  0.00  0.00    +0.004 C 
ATOM     29  C   UNL     1      34.658 -14.937 -21.460  0.00  0.00    -0.000 C 
ATOM     30  C   UNL     1      33.652 -14.909 -25.004  0.00  0.00    +0.125 C 
ATOM     31  C   UNL     1      33.465 -13.280 -22.819  0.00  0.00    +0.021 C 
ATOM     32  C   UNL     1      32.950 -12.937 -24.059  0.00  0.00    +0.100 C 
ATOM     33  H   UNL     1      33.344 -15.424 -27.009  0.00  0.00    +0.144 HD
ATOM     34  H   UNL     1      34.176 -16.608 -26.107  0.00  0.00    +0.144 HD
ENDBRANCH  21  24
ENDBRANCH   2  21
TORSDOF 5
ENDMDL
MODEL 5
REMARK VINA RESULT:     -11.4      2.603     10.663
REMARK  Name = 445480
REMARK  5 active torsions:
REMARK  status: ('A' for Active; 'I' for Inactive)
REMARK    1  A    between atoms: N_2  and  C_21
REMARK    2  A    between atoms: C_3  and  N_7
REMARK    3  A    between atoms: N_7  and  S_9
REMARK    4  A    between atoms: S_9  and  C_14
REMARK    5  A    between atoms: C_21  and  C_24
REMARK                            x       y       z     vdW  Elec       q    Type
REMARK                         _______ _______ _______ _____ _____    ______ ____
ROOT
ATOM      1  O   UNL     1      32.513 -20.741 -20.325  0.00  0.00    -0.273 OA
ATOM      2  N   UNL     1      33.929 -22.092 -19.021  0.00  0.00    -0.274 N 
ATOM      3  C   UNL     1      34.902 -20.867 -20.748  0.00  0.00    +0.153 C 
ATOM      4  C   UNL     1      35.978 -21.289 -19.754  0.00  0.00    +0.048 C 
ATOM      5  C   UNL     1      35.332 -22.434 -18.996  0.00  0.00    +0.096 C 
ATOM      6  C   UNL     1      33.613 -21.184 -20.032  0.00  0.00    +0.242 C 
ENDROOT
BRANCH   3   7
ATOM      7  N   UNL     1      34.969 -19.427 -21.019  0.00  0.00    -0.171 NA
ATOM      8  H   UNL     1      34.009 -19.087 -21.090  0.00  0.00    +0.149 HD
BRANCH   7   9
ATOM      9  S   UNL     1      35.799 -18.906 -22.426  0.00  0.00    +0.066 S 
ATOM     10  O   UNL     1      35.435 -19.762 -23.539  0.00  0.00    -0.152 OA
ATOM     11  O   UNL     1      37.187 -18.655 -22.092  0.00  0.00    -0.152 OA
BRANCH   9  14
ATOM     12  S   UNL     1      34.502 -17.191 -24.400  0.00  0.00    -0.066 S 
ATOM     13  N   UNL     1      34.310 -13.805 -22.494  0.00  0.00    -0.243 NA
ATOM     14  C   UNL     1      35.163 -17.283 -22.843  0.00  0.00    +0.153 C 
ATOM     15  C   UNL     1      35.115 -16.124 -22.148  0.00  0.00    +0.046 C 
ATOM     16  C   UNL     1      34.506 -15.085 -22.914  0.00  0.00    +0.089 C 
ATOM     17  C   UNL     1      34.117 -15.530 -24.178  0.00  0.00    +0.048 C 
ATOM     18  C   UNL     1      33.498 -14.646 -25.074  0.00  0.00    +0.010 C 
ATOM     19  C   UNL     1      33.297 -13.339 -24.651  0.00  0.00    +0.021 C 
ATOM     20  C   UNL     1      33.713 -12.984 -23.381  0.00  0.00    +0.099 C 
ENDBRANCH   9  14
ENDBRANCH   7   9
ENDBRANCH   3   7
BRANCH   2  21
ATOM     21  C   UNL     1      32.975 -22.745 -18.152  0.00  0.00    +0.120 C 
BRANCH  21  24
ATOM     22  N   UNL     1      37.619 -23.658 -14.155  0.00  0.00    -0.230 NA
ATOM     23  N   UNL     1      37.824 -22.889 -16.370  0.00  0.00    -0.343 N 
ATOM     24  C   UNL     1      33.622 -23.123 -16.848  0.00  0.00    -0.002 C 
ATOM     25  C   UNL     1      35.001 -23.038 -16.718  0.00  0.00    +0.000 C 
ATOM     26  C   UNL     1      32.832 -23.556 -15.793  0.00  0.00    -0.003 C 
ATOM     27  C   UNL     1      35.613 -23.391 -15.503  0.00  0.00    +0.031 C 
ATOM     28  C   UNL     1      34.821 -23.832 -14.422  0.00  0.00    +0.004 C 
ATOM     29  C   UNL     1      33.428 -23.910 -14.582  0.00  0.00    -0.000 C 
ATOM     30  C   UNL     1      36.993 -23.327 -15.307  0.00  0.00    +0.125 C 
ATOM     31  C   UNL     1      35.450 -24.180 -13.220  0.00  0.00    +0.021 C 
ATOM     32  C   UNL     1      36.830 -24.076 -13.142  0.00  0.00    +0.100 C 
ATOM     33  H   UNL     1      38.799 -22.839 -16.246  0.00  0.00    +0.144 HD
ATOM     34  H   UNL     1      37.424 -22.634 -17.233  0.00  0.00    +0.144 HD
ENDBRANCH  21  24
ENDBRANCH   2  21
TORSDOF 5
ENDMDL
MODEL 6
REMARK VINA RESULT:     -11.3      1.508      2.264
REMARK  Name = 445480
REMARK  5 active torsions:
REMARK  status: ('A' for Active; 'I' for Inactive)
REMARK    1  A    between atoms: N_2  and  C_21
REMARK    2  A    between atoms: C_3  and  N_7
REMARK    3  A    between atoms: N_7  and  S_9
REMARK    4  A    between atoms: S_9  and  C_14
REMARK    5  A    between atoms: C_21  and  C_24
REMARK                            x       y       z     vdW  Elec       q    Type
REMARK                         _______ _______ _______ _____ _____    ______ ____
ROOT
ATOM      1  O   UNL     1      36.433 -20.739 -20.030  0.00  0.00    -0.273 OA
ATOM      2  N   UNL     1      35.035 -19.577 -21.522  0.00  0.00    -0.274 N 
ATOM      3  C   UNL     1      34.094 -21.333 -20.313  0.00  0.00    +0.153 C 
ATOM      4  C   UNL     1      32.987 -20.430 -20.844  0.00  0.00    +0.048 C 
ATOM      5  C   UNL     1      33.662 -19.662 -21.965  0.00  0.00    +0.096 C 
ATOM      6  C   UNL     1      35.351 -20.537 -20.561  0.00  0.00    +0.242 C 
ENDROOT
BRANCH   3   7
ATOM      7  N   UNL     1      33.940 -21.566 -18.873  0.00  0.00    -0.171 NA
ATOM      8  H   UNL     1      34.479 -20.847 -18.390  0.00  0.00    +0.149 HD
BRANCH   7   9
ATOM      9  S   UNL     1      34.434 -23.082 -18.243  0.00  0.00    +0.066 S 
ATOM     10  O   UNL     1      35.777 -22.962 -17.706  0.00  0.00    -0.152 OA
ATOM     11  O   UNL     1      34.093 -24.124 -19.191  0.00  0.00    -0.152 OA
BRANCH   9  14
ATOM     12  S   UNL     1      31.749 -23.087 -17.097  0.00  0.00    -0.066 S 
ATOM     13  N   UNL     1      32.420 -24.487 -13.529  0.00  0.00    -0.243 NA
ATOM     14  C   UNL     1      33.386 -23.434 -16.832  0.00  0.00    +0.153 C 
ATOM     15  C   UNL     1      33.659 -23.923 -15.601  0.00  0.00    +0.046 C 
ATOM     16  C   UNL     1      32.476 -24.029 -14.811  0.00  0.00    +0.089 C 
ATOM     17  C   UNL     1      31.345 -23.603 -15.508  0.00  0.00    +0.048 C 
ATOM     18  C   UNL     1      30.086 -23.635 -14.890  0.00  0.00    +0.010 C 
ATOM     19  C   UNL     1      30.023 -24.100 -13.583  0.00  0.00    +0.021 C 
ATOM     20  C   UNL     1      31.195 -24.503 -12.968  0.00  0.00    +0.099 C 
ENDBRANCH   9  14
ENDBRANCH   7   9
ENDBRANCH   3   7
BRANCH   2  21
ATOM     21  C   UNL     1      35.973 -18.662 -22.135  0.00  0.00    +0.120 C 
BRANCH  21  24
ATOM     22  N   UNL     1      33.476 -13.514 -24.510  0.00  0.00    -0.230 NA
ATOM     23  N   UNL     1      34.470 -13.724 -22.386  0.00  0.00    -0.343 N 
ATOM     24  C   UNL     1      35.282 -17.808 -23.162  0.00  0.00    -0.002 C 
ATOM     25  C   UNL     1      35.028 -16.472 -22.883  0.00  0.00    +0.000 C 
ATOM     26  C   UNL     1      34.907 -18.367 -24.374  0.00  0.00    -0.003 C 
ATOM     27  C   UNL     1      34.381 -15.669 -23.836  0.00  0.00    +0.031 C 
ATOM     28  C   UNL     1      33.994 -16.224 -25.074  0.00  0.00    +0.004 C 
ATOM     29  C   UNL     1      34.263 -17.579 -25.330  0.00  0.00    -0.000 C 
ATOM     30  C   UNL     1      34.096 -14.320 -23.619  0.00  0.00    +0.125 C 
ATOM     31  C   UNL     1      33.350 -15.407 -26.011  0.00  0.00    +0.021 C 
ATOM     32  C   UNL     1      33.120 -14.080 -25.683  0.00  0.00    +0.100 C 
ATOM     33  H   UNL     1      34.275 -12.774 -22.219  0.00  0.00    +0.144 HD
ATOM     34  H   UNL     1      34.925 -14.262 -21.698  0.00  0.00    +0.144 HD
ENDBRANCH  21  24
ENDBRANCH   2  21
TORSDOF 5
ENDMDL
MODEL 7
REMARK VINA RESULT:     -11.2      3.907      6.444
REMARK  Name = 445480
REMARK  5 active torsions:
REMARK  status: ('A' for Active; 'I' for Inactive)
REMARK    1  A    between atoms: N_2  and  C_21
REMARK    2  A    between atoms: C_3  and  N_7
REMARK    3  A    between atoms: N_7  and  S_9
REMARK    4  A    between atoms: S_9  and  C_14
REMARK    5  A    between atoms: C_21  and  C_24
REMARK                            x       y       z     vdW  Elec       q    Type
REMARK                         _______ _______ _______ _____ _____    ______ ____
ROOT
ATOM      1  O   UNL     1      34.192 -14.415 -21.295  0.00  0.00    -0.273 OA
ATOM      2  N   UNL     1      33.429 -14.519 -23.517  0.00  0.00    -0.274 N 
ATOM      3  C   UNL     1      35.209 -15.902 -22.927  0.00  0.00    +0.153 C 
ATOM      4  C   UNL     1      34.563 -16.421 -24.206  0.00  0.00    +0.048 C 
ATOM      5  C   UNL     1      33.791 -15.223 -24.726  0.00  0.00    +0.096 C 
ATOM      6  C   UNL     1      34.230 -14.867 -22.430  0.00  0.00    +0.242 C 
ENDROOT
BRANCH   3   7
ATOM      7  N   UNL     1      35.337 -16.970 -21.929  0.00  0.00    -0.171 NA
ATOM      8  H   UNL     1      36.009 -16.653 -21.229  0.00  0.00    +0.149 HD
BRANCH   7   9
ATOM      9  S   UNL     1      35.849 -18.517 -22.463  0.00  0.00    +0.066 S 
ATOM     10  O   UNL     1      37.294 -18.606 -22.354  0.00  0.00    -0.152 OA
ATOM     11  O   UNL     1      35.166 -18.842 -23.700  0.00  0.00    -0.152 OA
BRANCH   9  14
ATOM     12  S   UNL     1      36.406 -20.474 -20.370  0.00  0.00    -0.066 S 
ATOM     13  N   UNL     1      32.828 -21.730 -19.498  0.00  0.00    -0.243 NA
ATOM     14  C   UNL     1      35.207 -19.717 -21.297  0.00  0.00    +0.153 C 
ATOM     15  C   UNL     1      33.948 -20.128 -21.023  0.00  0.00    +0.046 C 
ATOM     16  C   UNL     1      33.939 -21.120 -19.997  0.00  0.00    +0.089 C 
ATOM     17  C   UNL     1      35.226 -21.411 -19.542  0.00  0.00    +0.048 C 
ATOM     18  C   UNL     1      35.414 -22.364 -18.531  0.00  0.00    +0.010 C 
ATOM     19  C   UNL     1      34.286 -22.990 -18.019  0.00  0.00    +0.021 C 
ATOM     20  C   UNL     1      33.048 -22.641 -18.529  0.00  0.00    +0.099 C 
ENDBRANCH   9  14
ENDBRANCH   7   9
ENDBRANCH   3   7
BRANCH   2  21
ATOM     21  C   UNL     1      32.422 -13.480 -23.519  0.00  0.00    +0.120 C 
BRANCH  21  24
ATOM     22  N   UNL     1      33.375  -7.506 -22.187  0.00  0.00    -0.230 NA
ATOM     23  N   UNL     1      31.795  -8.922 -21.167  0.00  0.00    -0.343 N 
ATOM     24  C   UNL     1      33.062 -12.125 -23.632  0.00  0.00    -0.002 C 
ATOM     25  C   UNL     1      32.628 -11.091 -22.812  0.00  0.00    +0.000 C 
ATOM     26  C   UNL     1      34.077 -11.923 -24.556  0.00  0.00    -0.003 C 
ATOM     27  C   UNL     1      33.220  -9.822 -22.913  0.00  0.00    +0.031 C 
ATOM     28  C   UNL     1      34.254  -9.602 -23.849  0.00  0.00    +0.004 C 
ATOM     29  C   UNL     1      34.672 -10.666 -24.666  0.00  0.00    -0.000 C 
ATOM     30  C   UNL     1      32.831  -8.742 -22.120  0.00  0.00    +0.125 C 
ATOM     31  C   UNL     1      34.831  -8.330 -23.934  0.00  0.00    +0.021 C 
ATOM     32  C   UNL     1      34.361  -7.333 -23.093  0.00  0.00    +0.100 C 
ATOM     33  H   UNL     1      31.510  -8.169 -20.601  0.00  0.00    +0.144 HD
ATOM     34  H   UNL     1      31.361  -9.801 -21.073  0.00  0.00    +0.144 HD
ENDBRANCH  21  24
ENDBRANCH   2  21
TORSDOF 5
ENDMDL
MODEL 8
REMARK VINA RESULT:     -11.1      7.997     14.067
REMARK  Name = 445480
REMARK  5 active torsions:
REMARK  status: ('A' for Active; 'I' for Inactive)
REMARK    1  A    between atoms: N_2  and  C_21
REMARK    2  A    between atoms: C_3  and  N_7
REMARK    3  A    between atoms: N_7  and  S_9
REMARK    4  A    between atoms: S_9  and  C_14
REMARK    5  A    between atoms: C_21  and  C_24
REMARK                            x       y       z     vdW  Elec       q    Type
REMARK                         _______ _______ _______ _____ _____    ______ ____
ROOT
ATOM      1  O   UNL     1      33.810 -10.012 -23.691  0.00  0.00    -0.273 OA
ATOM      2  N   UNL     1      32.859 -12.071 -23.067  0.00  0.00    -0.274 N 
ATOM      3  C   UNL     1      32.261 -10.190 -21.827  0.00  0.00    +0.153 C 
ATOM      4  C   UNL     1      31.235 -11.295 -21.604  0.00  0.00    +0.048 C 
ATOM      5  C   UNL     1      31.965 -12.552 -22.039  0.00  0.00    +0.096 C 
ATOM      6  C   UNL     1      33.078 -10.695 -22.990  0.00  0.00    +0.242 C 
ENDROOT
BRANCH   3   7
ATOM      7  N   UNL     1      31.608  -8.931 -22.201  0.00  0.00    -0.171 NA
ATOM      8  H   UNL     1      31.599  -8.884 -23.221  0.00  0.00    +0.149 HD
BRANCH   7   9
ATOM      9  S   UNL     1      32.292  -7.466 -21.631  0.00  0.00    +0.066 S 
ATOM     10  O   UNL     1      33.479  -7.764 -20.852  0.00  0.00    -0.152 OA
ATOM     11  O   UNL     1      31.238  -6.623 -21.104  0.00  0.00    -0.152 OA
BRANCH   9  14
ATOM     12  S   UNL     1      31.774  -5.417 -23.645  0.00  0.00    -0.066 S 
ATOM     13  N   UNL     1      35.055  -5.521 -25.734  0.00  0.00    -0.243 NA
ATOM     14  C   UNL     1      32.878  -6.564 -23.066  0.00  0.00    +0.153 C 
ATOM     15  C   UNL     1      34.032  -6.630 -23.767  0.00  0.00    +0.046 C 
ATOM     16  C   UNL     1      34.037  -5.697 -24.846  0.00  0.00    +0.089 C 
ATOM     17  C   UNL     1      32.854  -4.959 -24.902  0.00  0.00    +0.048 C 
ATOM     18  C   UNL     1      32.677  -3.989 -25.900  0.00  0.00    +0.010 C 
ATOM     19  C   UNL     1      33.712  -3.806 -26.808  0.00  0.00    +0.021 C 
ATOM     20  C   UNL     1      34.849  -4.582 -26.679  0.00  0.00    +0.099 C 
ENDBRANCH   9  14
ENDBRANCH   7   9
ENDBRANCH   3   7
BRANCH   2  21
ATOM     21  C   UNL     1      33.527 -12.978 -23.974  0.00  0.00    +0.120 C 
BRANCH  21  24
ATOM     22  N   UNL     1      35.391 -18.833 -23.181  0.00  0.00    -0.230 NA
ATOM     23  N   UNL     1      34.588 -17.889 -25.183  0.00  0.00    -0.343 N 
ATOM     24  C   UNL     1      34.065 -14.168 -23.229  0.00  0.00    -0.002 C 
ATOM     25  C   UNL     1      34.227 -15.376 -23.892  0.00  0.00    +0.000 C 
ATOM     26  C   UNL     1      34.390 -14.044 -21.886  0.00  0.00    -0.003 C 
ATOM     27  C   UNL     1      34.726 -16.493 -23.202  0.00  0.00    +0.031 C 
ATOM     28  C   UNL     1      35.061 -16.381 -21.836  0.00  0.00    +0.004 C 
ATOM     29  C   UNL     1      34.887 -15.146 -21.189  0.00  0.00    -0.000 C 
ATOM     30  C   UNL     1      34.913 -17.735 -23.810  0.00  0.00    +0.125 C 
ATOM     31  C   UNL     1      35.557 -17.505 -21.166  0.00  0.00    +0.021 C 
ATOM     32  C   UNL     1      35.700 -18.687 -21.875  0.00  0.00    +0.100 C 
ATOM     33  H   UNL     1      34.714 -18.759 -25.625  0.00  0.00    +0.144 HD
ATOM     34  H   UNL     1      34.235 -17.124 -25.693  0.00  0.00    +0.144 HD
ENDBRANCH  21  24
ENDBRANCH   2  21
TORSDOF 5
ENDMDL
MODEL 9
REMARK VINA RESULT:     -11.1      7.614     11.315
REMARK  Name = 445480
REMARK  5 active torsions:
REMARK  status: ('A' for Active; 'I' for Inactive)
REMARK    1  A    between atoms: N_2  and  C_21
REMARK    2  A    between atoms: C_3  and  N_7
REMARK    3  A    between atoms: N_7  and  S_9
REMARK    4  A    between atoms: S_9  and  C_14
REMARK    5  A    between atoms: C_21  and  C_24
REMARK                            x       y       z     vdW  Elec       q    Type
REMARK                         _______ _______ _______ _____ _____    ______ ____
ROOT
ATOM      1  O   UNL     1      35.733  -9.951 -24.793  0.00  0.00    -0.273 OA
ATOM      2  N   UNL     1      34.252  -8.786 -23.386  0.00  0.00    -0.274 N 
ATOM      3  C   UNL     1      33.600 -10.900 -24.118  0.00  0.00    +0.153 C 
ATOM      4  C   UNL     1      32.783 -10.511 -22.892  0.00  0.00    +0.048 C 
ATOM      5  C   UNL     1      32.939  -9.004 -22.824  0.00  0.00    +0.096 C 
ATOM      6  C   UNL     1      34.690  -9.859 -24.162  0.00  0.00    +0.242 C 
ENDROOT
BRANCH   3   7
ATOM      7  N   UNL     1      34.201 -12.229 -23.953  0.00  0.00    -0.171 NA
ATOM      8  H   UNL     1      35.047 -12.252 -24.523  0.00  0.00    +0.149 HD
BRANCH   7   9
ATOM      9  S   UNL     1      33.262 -13.598 -24.380  0.00  0.00    +0.066 S 
ATOM     10  O   UNL     1      33.348 -13.808 -25.814  0.00  0.00    -0.152 OA
ATOM     11  O   UNL     1      31.981 -13.525 -23.706  0.00  0.00    -0.152 OA
BRANCH   9  14
ATOM     12  S   UNL     1      34.217 -16.338 -24.701  0.00  0.00    -0.066 S 
ATOM     13  N   UNL     1      35.633 -17.096 -21.158  0.00  0.00    -0.243 NA
ATOM     14  C   UNL     1      34.049 -15.029 -23.640  0.00  0.00    +0.153 C 
ATOM     15  C   UNL     1      34.530 -15.254 -22.397  0.00  0.00    +0.046 C 
ATOM     16  C   UNL     1      35.073 -16.569 -22.281  0.00  0.00    +0.089 C 
ATOM     17  C   UNL     1      34.969 -17.282 -23.476  0.00  0.00    +0.048 C 
ATOM     18  C   UNL     1      35.451 -18.596 -23.554  0.00  0.00    +0.010 C 
ATOM     19  C   UNL     1      36.023 -19.139 -22.411  0.00  0.00    +0.021 C 
ATOM     20  C   UNL     1      36.085 -18.362 -21.270  0.00  0.00    +0.099 C 
ENDBRANCH   9  14
ENDBRANCH   7   9
ENDBRANCH   3   7
BRANCH   2  21
ATOM     21  C   UNL     1      34.940  -7.523 -23.235  0.00  0.00    +0.120 C 
BRANCH  21  24
ATOM     22  N   UNL     1      30.448  -3.284 -23.710  0.00  0.00    -0.230 NA
ATOM     23  N   UNL     1      30.781  -4.759 -21.906  0.00  0.00    -0.343 N 
ATOM     24  C   UNL     1      34.149  -6.413 -23.869  0.00  0.00    -0.002 C 
ATOM     25  C   UNL     1      33.049  -5.888 -23.205  0.00  0.00    +0.000 C 
ATOM     26  C   UNL     1      34.528  -5.928 -25.113  0.00  0.00    -0.003 C 
ATOM     27  C   UNL     1      32.305  -4.852 -23.792  0.00  0.00    +0.031 C 
ATOM     28  C   UNL     1      32.679  -4.349 -25.057  0.00  0.00    +0.004 C 
ATOM     29  C   UNL     1      33.796  -4.899 -25.707  0.00  0.00    -0.000 C 
ATOM     30  C   UNL     1      31.189  -4.281 -23.178  0.00  0.00    +0.125 C 
ATOM     31  C   UNL     1      31.924  -3.317 -25.626  0.00  0.00    +0.021 C 
ATOM     32  C   UNL     1      30.836  -2.828 -24.920  0.00  0.00    +0.100 C 
ATOM     33  H   UNL     1      29.996  -4.366 -21.461  0.00  0.00    +0.144 HD
ATOM     34  H   UNL     1      31.283  -5.484 -21.469  0.00  0.00    +0.144 HD
ENDBRANCH  21  24
ENDBRANCH   2  21
TORSDOF 5
ENDMDL
