MODEL 1
REMARK VINA RESULT:     -11.7      0.000      0.000
REMARK  Name = 3822
REMARK  5 active torsions:
REMARK  status: ('A' for Active; 'I' for Inactive)
REMARK    1  A    between atoms: N_1  and  C_17
REMARK    2  A    between atoms: C_2  and  C_9
REMARK    3  A    between atoms: C_9  and  C_11
REMARK    4  A    between atoms: C_17  and  C_18
REMARK    5  A    between atoms: C_18  and  N_21
REMARK                            x       y       z     vdW  Elec       q    Type
REMARK                         _______ _______ _______ _____ _____    ______ ____
ROOT
ATOM      1  N   UNL     1      35.901 -20.300 -20.905  0.00  0.00    +0.388 N 
ATOM      2  C   UNL     1      35.780 -18.365 -23.112  0.00  0.00    +0.058 C 
ATOM      3  C   UNL     1      37.086 -18.718 -22.400  0.00  0.00    -0.015 C 
ATOM      4  C   UNL     1      34.719 -19.444 -22.903  0.00  0.00    -0.015 C 
ATOM      5  C   UNL     1      36.871 -19.199 -20.962  0.00  0.00    -0.077 C 
ATOM      6  C   UNL     1      34.600 -19.880 -21.440  0.00  0.00    -0.077 C 
ATOM      7  H   UNL     1      36.252 -21.062 -21.486  0.00  0.00    -0.080 HD
ENDROOT
BRANCH   2   9
ATOM      8  O   UNL     1      35.409 -16.654 -21.502  0.00  0.00    -0.291 OA
ATOM      9  C   UNL     1      35.260 -17.031 -22.662  0.00  0.00    +0.172 C 
BRANCH   9  11
ATOM     10  F   UNL     1      32.615 -13.769 -26.342  0.00  0.00    -0.204 F 
ATOM     11  C   UNL     1      34.554 -16.160 -23.645  0.00  0.00    +0.035 C 
ATOM     12  C   UNL     1      34.291 -16.659 -24.901  0.00  0.00    +0.005 C 
ATOM     13  C   UNL     1      34.190 -14.889 -23.259  0.00  0.00    +0.005 C 
ATOM     14  C   UNL     1      33.630 -15.844 -25.820  0.00  0.00    +0.030 C 
ATOM     15  C   UNL     1      33.530 -14.074 -24.179  0.00  0.00    +0.030 C 
ATOM     16  C   UNL     1      33.250 -14.551 -25.459  0.00  0.00    +0.140 C 
ENDBRANCH   9  11
ENDBRANCH   2   9
BRANCH   1  17
ATOM     17  C   UNL     1      35.757 -20.784 -19.532  0.00  0.00    -0.052 C 
BRANCH  17  18
ATOM     18  C   UNL     1      35.416 -22.267 -19.527  0.00  0.00    +0.091 C 
BRANCH  18  21
ATOM     19  O   UNL     1      36.035 -23.127 -16.966  0.00  0.00    -0.267 OA
ATOM     20  O   UNL     1      32.659 -22.023 -20.006  0.00  0.00    -0.246 OA
ATOM     21  N   UNL     1      34.408 -22.566 -18.548  0.00  0.00    -0.251 N 
ATOM     22  N   UNL     1      32.118 -22.716 -17.906  0.00  0.00    -0.306 N 
ATOM     23  C   UNL     1      34.852 -23.000 -17.274  0.00  0.00    +0.265 A 
ATOM     24  C   UNL     1      33.038 -22.409 -18.896  0.00  0.00    +0.330 A 
ATOM     25  C   UNL     1      33.807 -23.306 -16.277  0.00  0.00    +0.072 A 
ATOM     26  C   UNL     1      32.469 -23.154 -16.627  0.00  0.00    +0.065 A 
ATOM     27  C   UNL     1      34.151 -23.744 -14.995  0.00  0.00    +0.006 C 
ATOM     28  C   UNL     1      31.464 -23.439 -15.698  0.00  0.00    +0.017 C 
ATOM     29  C   UNL     1      33.148 -24.029 -14.067  0.00  0.00    +0.000 C 
ATOM     30  C   UNL     1      31.807 -23.876 -14.418  0.00  0.00    +0.001 C 
ATOM     31  H   UNL     1      31.161 -22.618 -18.117  0.00  0.00    +0.170 HD
ENDBRANCH  18  21
ENDBRANCH  17  18
ENDBRANCH   1  17
TORSDOF 5
ENDMDL
MODEL 2
REMARK VINA RESULT:     -11.4      0.676      2.025
REMARK  Name = 3822
REMARK  5 active torsions:
REMARK  status: ('A' for Active; 'I' for Inactive)
REMARK    1  A    between atoms: N_1  and  C_17
REMARK    2  A    between atoms: C_2  and  C_9
REMARK    3  A    between atoms: C_9  and  C_11
REMARK    4  A    between atoms: C_17  and  C_18
REMARK    5  A    between atoms: C_18  and  N_21
REMARK                            x       y       z     vdW  Elec       q    Type
REMARK                         _______ _______ _______ _____ _____    ______ ____
ROOT
ATOM      1  N   UNL     1      35.850 -20.285 -20.927  0.00  0.00    +0.388 N 
ATOM      2  C   UNL     1      35.707 -18.377 -23.155  0.00  0.00    +0.058 C 
ATOM      3  C   UNL     1      37.026 -18.760 -22.486  0.00  0.00    -0.015 C 
ATOM      4  C   UNL     1      34.622 -19.420 -22.892  0.00  0.00    -0.015 C 
ATOM      5  C   UNL     1      36.850 -19.215 -21.034  0.00  0.00    -0.077 C 
ATOM      6  C   UNL     1      34.543 -19.833 -21.420  0.00  0.00    -0.077 C 
ATOM      7  H   UNL     1      36.156 -21.066 -21.509  0.00  0.00    -0.080 HD
ENDROOT
BRANCH   2   9
ATOM      8  O   UNL     1      35.443 -16.636 -21.557  0.00  0.00    -0.291 OA
ATOM      9  C   UNL     1      35.243 -17.021 -22.705  0.00  0.00    +0.172 C 
BRANCH   9  11
ATOM     10  F   UNL     1      32.584 -13.724 -26.343  0.00  0.00    -0.204 F 
ATOM     11  C   UNL     1      34.533 -16.141 -23.676  0.00  0.00    +0.035 C 
ATOM     12  C   UNL     1      34.197 -14.864 -23.288  0.00  0.00    +0.005 C 
ATOM     13  C   UNL     1      34.240 -16.638 -24.927  0.00  0.00    +0.005 C 
ATOM     14  C   UNL     1      33.532 -14.040 -24.196  0.00  0.00    +0.030 C 
ATOM     15  C   UNL     1      33.576 -15.814 -25.836  0.00  0.00    +0.030 C 
ATOM     16  C   UNL     1      33.222 -14.515 -25.471  0.00  0.00    +0.140 C 
ENDBRANCH   9  11
ENDBRANCH   2   9
BRANCH   1  17
ATOM     17  C   UNL     1      35.742 -20.747 -19.542  0.00  0.00    -0.052 C 
BRANCH  17  18
ATOM     18  C   UNL     1      35.414 -22.232 -19.505  0.00  0.00    +0.091 C 
BRANCH  18  21
ATOM     19  O   UNL     1      32.665 -22.466 -19.234  0.00  0.00    -0.267 OA
ATOM     20  O   UNL     1      36.837 -22.787 -17.148  0.00  0.00    -0.246 OA
ATOM     21  N   UNL     1      34.788 -22.596 -18.263  0.00  0.00    -0.251 N 
ATOM     22  N   UNL     1      34.938 -23.200 -15.963  0.00  0.00    -0.306 N 
ATOM     23  C   UNL     1      33.374 -22.680 -18.252  0.00  0.00    +0.265 A 
ATOM     24  C   UNL     1      35.605 -22.856 -17.128  0.00  0.00    +0.330 A 
ATOM     25  C   UNL     1      32.743 -23.053 -16.971  0.00  0.00    +0.072 A 
ATOM     26  C   UNL     1      33.548 -23.301 -15.863  0.00  0.00    +0.065 A 
ATOM     27  C   UNL     1      31.353 -23.157 -16.864  0.00  0.00    +0.006 C 
ATOM     28  C   UNL     1      32.969 -23.655 -14.641  0.00  0.00    +0.017 C 
ATOM     29  C   UNL     1      30.775 -23.509 -15.643  0.00  0.00    +0.000 C 
ATOM     30  C   UNL     1      31.583 -23.759 -14.533  0.00  0.00    +0.001 C 
ATOM     31  H   UNL     1      35.475 -23.385 -15.159  0.00  0.00    +0.170 HD
ENDBRANCH  18  21
ENDBRANCH  17  18
ENDBRANCH   1  17
TORSDOF 5
ENDMDL
MODEL 3
REMARK VINA RESULT:     -11.0      4.947     10.814
REMARK  Name = 3822
REMARK  5 active torsions:
REMARK  status: ('A' for Active; 'I' for Inactive)
REMARK    1  A    between atoms: N_1  and  C_17
REMARK    2  A    between atoms: C_2  and  C_9
REMARK    3  A    between atoms: C_9  and  C_11
REMARK    4  A    between atoms: C_17  and  C_18
REMARK    5  A    between atoms: C_18  and  N_21
REMARK                            x       y       z     vdW  Elec       q    Type
REMARK                         _______ _______ _______ _____ _____    ______ ____
ROOT
ATOM      1  N   UNL     1      34.594 -15.124 -22.026  0.00  0.00    +0.388 N 
ATOM      2  C   UNL     1      35.751 -17.770 -22.557  0.00  0.00    +0.058 C 
ATOM      3  C   UNL     1      35.580 -16.715 -23.649  0.00  0.00    -0.015 C 
ATOM      4  C   UNL     1      35.734 -17.143 -21.164  0.00  0.00    -0.015 C 
ATOM      5  C   UNL     1      34.445 -15.730 -23.356  0.00  0.00    -0.077 C 
ATOM      6  C   UNL     1      34.583 -16.151 -20.978  0.00  0.00    -0.077 C 
ATOM      7  H   UNL     1      35.496 -14.647 -21.993  0.00  0.00    -0.080 HD
ENDROOT
BRANCH   2   9
ATOM      8  O   UNL     1      33.955 -18.894 -23.638  0.00  0.00    -0.291 OA
ATOM      9  C   UNL     1      34.697 -18.834 -22.661  0.00  0.00    +0.172 C 
BRANCH   9  11
ATOM     10  F   UNL     1      34.181 -22.551 -18.526  0.00  0.00    -0.204 F 
ATOM     11  C   UNL     1      34.559 -19.826 -21.557  0.00  0.00    +0.035 C 
ATOM     12  C   UNL     1      33.296 -20.164 -21.125  0.00  0.00    +0.005 C 
ATOM     13  C   UNL     1      35.701 -20.370 -21.011  0.00  0.00    +0.005 C 
ATOM     14  C   UNL     1      33.167 -21.092 -20.092  0.00  0.00    +0.030 C 
ATOM     15  C   UNL     1      35.572 -21.298 -19.978  0.00  0.00    +0.030 C 
ATOM     16  C   UNL     1      34.305 -21.660 -19.518  0.00  0.00    +0.140 C 
ENDBRANCH   9  11
ENDBRANCH   2   9
BRANCH   1  17
ATOM     17  C   UNL     1      33.535 -14.141 -21.790  0.00  0.00    -0.052 C 
BRANCH  17  18
ATOM     18  C   UNL     1      33.154 -13.453 -23.092  0.00  0.00    +0.091 C 
BRANCH  18  21
ATOM     19  O   UNL     1      34.694 -11.595 -24.458  0.00  0.00    -0.267 OA
ATOM     20  O   UNL     1      31.276 -12.306 -21.348  0.00  0.00    -0.246 OA
ATOM     21  N   UNL     1      33.000 -12.036 -22.907  0.00  0.00    -0.251 N 
ATOM     22  N   UNL     1      31.922 -10.185 -21.864  0.00  0.00    -0.306 N 
ATOM     23  C   UNL     1      33.849 -11.189 -23.662  0.00  0.00    +0.265 A 
ATOM     24  C   UNL     1      32.017 -11.561 -21.996  0.00  0.00    +0.330 A 
ATOM     25  C   UNL     1      33.683  -9.736 -23.461  0.00  0.00    +0.072 A 
ATOM     26  C   UNL     1      32.722  -9.279 -22.565  0.00  0.00    +0.065 A 
ATOM     27  C   UNL     1      34.479  -8.824 -24.160  0.00  0.00    +0.006 C 
ATOM     28  C   UNL     1      32.549  -7.907 -22.360  0.00  0.00    +0.017 C 
ATOM     29  C   UNL     1      34.307  -7.454 -23.955  0.00  0.00    +0.000 C 
ATOM     30  C   UNL     1      33.343  -6.997 -23.057  0.00  0.00    +0.001 C 
ATOM     31  H   UNL     1      31.251  -9.825 -21.239  0.00  0.00    +0.170 HD
ENDBRANCH  18  21
ENDBRANCH  17  18
ENDBRANCH   1  17
TORSDOF 5
ENDMDL
MODEL 4
REMARK VINA RESULT:     -10.9      6.510      9.550
REMARK  Name = 3822
REMARK  5 active torsions:
REMARK  status: ('A' for Active; 'I' for Inactive)
REMARK    1  A    between atoms: N_1  and  C_17
REMARK    2  A    between atoms: C_2  and  C_9
REMARK    3  A    between atoms: C_9  and  C_11
REMARK    4  A    between atoms: C_17  and  C_18
REMARK    5  A    between atoms: C_18  and  N_21
REMARK                            x       y       z     vdW  Elec       q    Type
REMARK                         _______ _______ _______ _____ _____    ______ ____
ROOT
ATOM      1  N   UNL     1      32.324 -12.375 -21.851  0.00  0.00    +0.388 N 
ATOM      2  C   UNL     1      31.361  -9.618 -21.536  0.00  0.00    +0.058 C 
ATOM      3  C   UNL     1      31.629 -10.242 -22.905  0.00  0.00    -0.015 C 
ATOM      4  C   UNL     1      31.168 -10.686 -20.461  0.00  0.00    -0.015 C 
ATOM      5  C   UNL     1      32.672 -11.362 -22.857  0.00  0.00    -0.077 C 
ATOM      6  C   UNL     1      32.241 -11.777 -20.513  0.00  0.00    -0.077 C 
ATOM      7  H   UNL     1      31.406 -12.754 -22.087  0.00  0.00    -0.080 HD
ENDROOT
BRANCH   2   9
ATOM      8  O   UNL     1      32.883  -8.646 -19.988  0.00  0.00    -0.291 OA
ATOM      9  C   UNL     1      32.464  -8.678 -21.142  0.00  0.00    +0.172 C 
BRANCH   9  11
ATOM     10  F   UNL     1      34.663  -5.305 -25.010  0.00  0.00    -0.204 F 
ATOM     11  C   UNL     1      33.051  -7.778 -22.175  0.00  0.00    +0.035 C 
ATOM     12  C   UNL     1      32.301  -6.717 -22.631  0.00  0.00    +0.005 C 
ATOM     13  C   UNL     1      34.323  -8.040 -22.634  0.00  0.00    +0.005 C 
ATOM     14  C   UNL     1      32.850  -5.874 -23.597  0.00  0.00    +0.030 C 
ATOM     15  C   UNL     1      34.872  -7.197 -23.601  0.00  0.00    +0.030 C 
ATOM     16  C   UNL     1      34.136  -6.114 -24.082  0.00  0.00    +0.140 C 
ENDBRANCH   9  11
ENDBRANCH   2   9
BRANCH   1  17
ATOM     17  C   UNL     1      33.300 -13.465 -21.865  0.00  0.00    -0.052 C 
BRANCH  17  18
ATOM     18  C   UNL     1      34.093 -13.448 -23.163  0.00  0.00    +0.091 C 
BRANCH  18  21
ATOM     19  O   UNL     1      35.234 -15.766 -22.158  0.00  0.00    -0.267 OA
ATOM     20  O   UNL     1      32.749 -13.812 -25.602  0.00  0.00    -0.246 OA
ATOM     21  N   UNL     1      34.005 -14.711 -23.844  0.00  0.00    -0.251 N 
ATOM     22  N   UNL     1      33.253 -16.030 -25.680  0.00  0.00    -0.306 N 
ATOM     23  C   UNL     1      34.632 -15.822 -23.228  0.00  0.00    +0.265 A 
ATOM     24  C   UNL     1      33.299 -14.784 -25.077  0.00  0.00    +0.330 A 
ATOM     25  C   UNL     1      34.535 -17.113 -23.937  0.00  0.00    +0.072 A 
ATOM     26  C   UNL     1      33.847 -17.176 -25.145  0.00  0.00    +0.065 A 
ATOM     27  C   UNL     1      35.127 -18.264 -23.408  0.00  0.00    +0.006 C 
ATOM     28  C   UNL     1      33.746 -18.389 -25.833  0.00  0.00    +0.017 C 
ATOM     29  C   UNL     1      35.026 -19.475 -24.095  0.00  0.00    +0.000 C 
ATOM     30  C   UNL     1      34.335 -19.537 -25.305  0.00  0.00    +0.001 C 
ATOM     31  H   UNL     1      32.773 -16.113 -26.536  0.00  0.00    +0.170 HD
ENDBRANCH  18  21
ENDBRANCH  17  18
ENDBRANCH   1  17
TORSDOF 5
ENDMDL
MODEL 5
REMARK VINA RESULT:     -10.8      6.704     10.655
REMARK  Name = 3822
REMARK  5 active torsions:
REMARK  status: ('A' for Active; 'I' for Inactive)
REMARK    1  A    between atoms: N_1  and  C_17
REMARK    2  A    between atoms: C_2  and  C_9
REMARK    3  A    between atoms: C_9  and  C_11
REMARK    4  A    between atoms: C_17  and  C_18
REMARK    5  A    between atoms: C_18  and  N_21
REMARK                            x       y       z     vdW  Elec       q    Type
REMARK                         _______ _______ _______ _____ _____    ______ ____
ROOT
ATOM      1  N   UNL     1      34.015 -10.336 -23.313  0.00  0.00    +0.388 N 
ATOM      2  C   UNL     1      33.086  -7.630 -22.652  0.00  0.00    +0.058 C 
ATOM      3  C   UNL     1      32.555  -8.876 -21.944  0.00  0.00    -0.015 C 
ATOM      4  C   UNL     1      34.432  -7.898 -23.323  0.00  0.00    -0.015 C 
ATOM      5  C   UNL     1      32.651 -10.139 -22.805  0.00  0.00    -0.077 C 
ATOM      6  C   UNL     1      34.439  -9.196 -24.134  0.00  0.00    -0.077 C 
ATOM      7  H   UNL     1      34.646 -10.402 -22.513  0.00  0.00    -0.080 HD
ENDROOT
BRANCH   2   9
ATOM      8  O   UNL     1      31.225  -7.845 -24.116  0.00  0.00    -0.291 OA
ATOM      9  C   UNL     1      32.098  -7.113 -23.657  0.00  0.00    +0.172 C 
BRANCH   9  11
ATOM     10  F   UNL     1      32.430  -1.786 -25.297  0.00  0.00    -0.204 F 
ATOM     11  C   UNL     1      32.187  -5.691 -24.095  0.00  0.00    +0.035 C 
ATOM     12  C   UNL     1      32.859  -5.399 -25.260  0.00  0.00    +0.005 C 
ATOM     13  C   UNL     1      31.592  -4.722 -23.317  0.00  0.00    +0.005 C 
ATOM     14  C   UNL     1      32.942  -4.068 -25.670  0.00  0.00    +0.030 C 
ATOM     15  C   UNL     1      31.675  -3.391 -23.727  0.00  0.00    +0.030 C 
ATOM     16  C   UNL     1      32.350  -3.064 -24.903  0.00  0.00    +0.140 C 
ENDBRANCH   9  11
ENDBRANCH   2   9
BRANCH   1  17
ATOM     17  C   UNL     1      34.100 -11.579 -24.081  0.00  0.00    -0.052 C 
BRANCH  17  18
ATOM     18  C   UNL     1      33.096 -12.594 -23.555  0.00  0.00    +0.091 C 
BRANCH  18  21
ATOM     19  O   UNL     1      34.393 -14.042 -21.578  0.00  0.00    -0.267 OA
ATOM     20  O   UNL     1      32.766 -14.005 -25.961  0.00  0.00    -0.246 OA
ATOM     21  N   UNL     1      33.560 -13.939 -23.760  0.00  0.00    -0.251 N 
ATOM     22  N   UNL     1      33.813 -15.857 -25.152  0.00  0.00    -0.306 N 
ATOM     23  C   UNL     1      34.211 -14.572 -22.672  0.00  0.00    +0.265 A 
ATOM     24  C   UNL     1      33.340 -14.561 -25.021  0.00  0.00    +0.330 A 
ATOM     25  C   UNL     1      34.684 -15.952 -22.896  0.00  0.00    +0.072 A 
ATOM     26  C   UNL     1      34.469 -16.552 -24.133  0.00  0.00    +0.065 A 
ATOM     27  C   UNL     1      35.340 -16.655 -21.882  0.00  0.00    +0.006 C 
ATOM     28  C   UNL     1      34.910 -17.858 -24.366  0.00  0.00    +0.017 C 
ATOM     29  C   UNL     1      35.781 -17.959 -22.114  0.00  0.00    +0.000 C 
ATOM     30  C   UNL     1      35.565 -18.559 -23.354  0.00  0.00    +0.001 C 
ATOM     31  H   UNL     1      33.678 -16.314 -26.014  0.00  0.00    +0.170 HD
ENDBRANCH  18  21
ENDBRANCH  17  18
ENDBRANCH   1  17
TORSDOF 5
ENDMDL
MODEL 6
REMARK VINA RESULT:     -10.8      1.354      2.042
REMARK  Name = 3822
REMARK  5 active torsions:
REMARK  status: ('A' for Active; 'I' for Inactive)
REMARK    1  A    between atoms: N_1  and  C_17
REMARK    2  A    between atoms: C_2  and  C_9
REMARK    3  A    between atoms: C_9  and  C_11
REMARK    4  A    between atoms: C_17  and  C_18
REMARK    5  A    between atoms: C_18  and  N_21
REMARK                            x       y       z     vdW  Elec       q    Type
REMARK                         _______ _______ _______ _____ _____    ______ ____
ROOT
ATOM      1  N   UNL     1      34.974 -20.187 -21.250  0.00  0.00    +0.388 N 
ATOM      2  C   UNL     1      35.735 -18.085 -23.156  0.00  0.00    +0.058 C 
ATOM      3  C   UNL     1      36.701 -18.627 -22.102  0.00  0.00    -0.015 C 
ATOM      4  C   UNL     1      34.588 -19.060 -23.419  0.00  0.00    -0.015 C 
ATOM      5  C   UNL     1      35.986 -19.192 -20.871  0.00  0.00    -0.077 C 
ATOM      6  C   UNL     1      33.959 -19.593 -22.128  0.00  0.00    -0.077 C 
ATOM      7  H   UNL     1      35.440 -20.935 -21.765  0.00  0.00    -0.080 HD
ENDROOT
BRANCH   2   9
ATOM      8  O   UNL     1      35.343 -16.317 -21.615  0.00  0.00    -0.291 OA
ATOM      9  C   UNL     1      35.195 -16.742 -22.757  0.00  0.00    +0.172 C 
BRANCH   9  11
ATOM     10  F   UNL     1      32.485 -13.677 -26.557  0.00  0.00    -0.204 F 
ATOM     11  C   UNL     1      34.471 -15.924 -23.771  0.00  0.00    +0.035 C 
ATOM     12  C   UNL     1      34.048 -14.661 -23.423  0.00  0.00    +0.005 C 
ATOM     13  C   UNL     1      34.254 -16.462 -25.021  0.00  0.00    +0.005 C 
ATOM     14  C   UNL     1      33.371 -13.895 -24.372  0.00  0.00    +0.030 C 
ATOM     15  C   UNL     1      33.577 -15.696 -25.970  0.00  0.00    +0.030 C 
ATOM     16  C   UNL     1      33.135 -14.413 -25.646  0.00  0.00    +0.140 C 
ENDBRANCH   9  11
ENDBRANCH   2   9
BRANCH   1  17
ATOM     17  C   UNL     1      34.347 -20.758 -20.058  0.00  0.00    -0.052 C 
BRANCH  17  18
ATOM     18  C   UNL     1      34.774 -22.207 -19.879  0.00  0.00    +0.091 C 
BRANCH  18  21
ATOM     19  O   UNL     1      37.081 -22.026 -18.352  0.00  0.00    -0.267 OA
ATOM     20  O   UNL     1      32.543 -23.143 -18.454  0.00  0.00    -0.246 OA
ATOM     21  N   UNL     1      34.812 -22.571 -18.489  0.00  0.00    -0.251 N 
ATOM     22  N   UNL     1      33.727 -23.370 -16.524  0.00  0.00    -0.306 N 
ATOM     23  C   UNL     1      36.053 -22.435 -17.818  0.00  0.00    +0.265 A 
ATOM     24  C   UNL     1      33.621 -23.035 -17.864  0.00  0.00    +0.330 A 
ATOM     25  C   UNL     1      36.078 -22.814 -16.392  0.00  0.00    +0.072 A 
ATOM     26  C   UNL     1      34.911 -23.272 -15.788  0.00  0.00    +0.065 A 
ATOM     27  C   UNL     1      37.259 -22.718 -15.649  0.00  0.00    +0.006 C 
ATOM     28  C   UNL     1      34.915 -23.636 -14.439  0.00  0.00    +0.017 C 
ATOM     29  C   UNL     1      37.263 -23.082 -14.302  0.00  0.00    +0.000 C 
ATOM     30  C   UNL     1      36.092 -23.540 -13.698  0.00  0.00    +0.001 C 
ATOM     31  H   UNL     1      32.920 -23.696 -16.063  0.00  0.00    +0.170 HD
ENDBRANCH  18  21
ENDBRANCH  17  18
ENDBRANCH   1  17
TORSDOF 5
ENDMDL
MODEL 7
REMARK VINA RESULT:     -10.6      6.184      9.688
REMARK  Name = 3822
REMARK  5 active torsions:
REMARK  status: ('A' for Active; 'I' for Inactive)
REMARK    1  A    between atoms: N_1  and  C_17
REMARK    2  A    between atoms: C_2  and  C_9
REMARK    3  A    between atoms: C_9  and  C_11
REMARK    4  A    between atoms: C_17  and  C_18
REMARK    5  A    between atoms: C_18  and  N_21
REMARK                            x       y       z     vdW  Elec       q    Type
REMARK                         _______ _______ _______ _____ _____    ______ ____
ROOT
ATOM      1  N   UNL     1      31.805 -11.640 -21.432  0.00  0.00    +0.388 N 
ATOM      2  C   UNL     1      31.430  -8.740 -21.161  0.00  0.00    +0.058 C 
ATOM      3  C   UNL     1      31.287  -9.465 -22.499  0.00  0.00    -0.015 C 
ATOM      4  C   UNL     1      31.285  -9.703 -19.984  0.00  0.00    -0.015 C 
ATOM      5  C   UNL     1      32.103 -10.758 -22.568  0.00  0.00    -0.077 C 
ATOM      6  C   UNL     1      32.114 -10.978 -20.159  0.00  0.00    -0.077 C 
ATOM      7  H   UNL     1      30.806 -11.849 -21.446  0.00  0.00    -0.080 HD
ENDROOT
BRANCH   2   9
ATOM      8  O   UNL     1      33.399  -8.016 -20.041  0.00  0.00    -0.291 OA
ATOM      9  C   UNL     1      32.739  -8.009 -21.077  0.00  0.00    +0.172 C 
BRANCH   9  11
ATOM     10  F   UNL     1      34.589  -5.238 -25.557  0.00  0.00    -0.204 F 
ATOM     11  C   UNL     1      33.233  -7.269 -22.272  0.00  0.00    +0.035 C 
ATOM     12  C   UNL     1      34.414  -7.669 -22.856  0.00  0.00    +0.005 C 
ATOM     13  C   UNL     1      32.489  -6.213 -22.750  0.00  0.00    +0.005 C 
ATOM     14  C   UNL     1      34.876  -6.977 -23.976  0.00  0.00    +0.030 C 
ATOM     15  C   UNL     1      32.951  -5.521 -23.870  0.00  0.00    +0.030 C 
ATOM     16  C   UNL     1      34.145  -5.902 -24.483  0.00  0.00    +0.140 C 
ENDBRANCH   9  11
ENDBRANCH   2   9
BRANCH   1  17
ATOM     17  C   UNL     1      32.549 -12.895 -21.550  0.00  0.00    -0.052 C 
BRANCH  17  18
ATOM     18  C   UNL     1      33.481 -12.846 -22.751  0.00  0.00    +0.091 C 
BRANCH  18  21
ATOM     19  O   UNL     1      34.818 -14.643 -21.118  0.00  0.00    -0.267 OA
ATOM     20  O   UNL     1      32.885 -13.858 -25.302  0.00  0.00    -0.246 OA
ATOM     21  N   UNL     1      33.838 -14.168 -23.187  0.00  0.00    -0.251 N 
ATOM     22  N   UNL     1      33.864 -15.865 -24.859  0.00  0.00    -0.306 N 
ATOM     23  C   UNL     1      34.522 -14.992 -22.259  0.00  0.00    +0.265 A 
ATOM     24  C   UNL     1      33.488 -14.580 -24.503  0.00  0.00    +0.330 A 
ATOM     25  C   UNL     1      34.886 -16.346 -22.719  0.00  0.00    +0.072 A 
ATOM     26  C   UNL     1      34.544 -16.741 -24.009  0.00  0.00    +0.065 A 
ATOM     27  C   UNL     1      35.566 -17.228 -21.874  0.00  0.00    +0.006 C 
ATOM     28  C   UNL     1      34.879 -18.019 -24.464  0.00  0.00    +0.017 C 
ATOM     29  C   UNL     1      35.902 -18.505 -22.329  0.00  0.00    +0.000 C 
ATOM     30  C   UNL     1      35.558 -18.899 -23.622  0.00  0.00    +0.001 C 
ATOM     31  H   UNL     1      33.636 -16.180 -25.764  0.00  0.00    +0.170 HD
ENDBRANCH  18  21
ENDBRANCH  17  18
ENDBRANCH   1  17
TORSDOF 5
ENDMDL
MODEL 8
REMARK VINA RESULT:     -10.6      4.816     10.428
REMARK  Name = 3822
REMARK  5 active torsions:
REMARK  status: ('A' for Active; 'I' for Inactive)
REMARK    1  A    between atoms: N_1  and  C_17
REMARK    2  A    between atoms: C_2  and  C_9
REMARK    3  A    between atoms: C_9  and  C_11
REMARK    4  A    between atoms: C_17  and  C_18
REMARK    5  A    between atoms: C_18  and  N_21
REMARK                            x       y       z     vdW  Elec       q    Type
REMARK                         _______ _______ _______ _____ _____    ______ ____
ROOT
ATOM      1  N   UNL     1      34.504 -23.313 -14.133  0.00  0.00    +0.388 N 
ATOM      2  C   UNL     1      36.488 -23.912 -12.052  0.00  0.00    +0.058 C 
ATOM      3  C   UNL     1      36.833 -23.114 -13.310  0.00  0.00    -0.015 C 
ATOM      4  C   UNL     1      34.984 -23.907 -11.781  0.00  0.00    -0.015 C 
ATOM      5  C   UNL     1      35.922 -23.445 -14.495  0.00  0.00    -0.077 C 
ATOM      6  C   UNL     1      34.158 -24.218 -13.032  0.00  0.00    -0.077 C 
ATOM      7  H   UNL     1      34.345 -22.355 -13.820  0.00  0.00    -0.080 HD
ENDROOT
BRANCH   2   9
ATOM      8  O   UNL     1      36.551 -26.202 -11.414  0.00  0.00    -0.291 OA
ATOM      9  C   UNL     1      36.995 -25.322 -12.147  0.00  0.00    +0.172 C 
BRANCH   9  11
ATOM     10  F   UNL     1      40.948 -26.538 -15.898  0.00  0.00    -0.204 F 
ATOM     11  C   UNL     1      38.050 -25.646 -13.148  0.00  0.00    +0.035 C 
ATOM     12  C   UNL     1      39.299 -25.086 -12.999  0.00  0.00    +0.005 C 
ATOM     13  C   UNL     1      37.737 -26.496 -14.186  0.00  0.00    +0.005 C 
ATOM     14  C   UNL     1      40.287 -25.389 -13.936  0.00  0.00    +0.030 C 
ATOM     15  C   UNL     1      38.725 -26.799 -15.124  0.00  0.00    +0.030 C 
ATOM     16  C   UNL     1      39.999 -26.246 -14.999  0.00  0.00    +0.140 C 
ENDBRANCH   9  11
ENDBRANCH   2   9
BRANCH   1  17
ATOM     17  C   UNL     1      33.654 -23.573 -15.296  0.00  0.00    -0.052 C 
BRANCH  17  18
ATOM     18  C   UNL     1      34.508 -23.892 -16.514  0.00  0.00    +0.091 C 
BRANCH  18  21
ATOM     19  O   UNL     1      36.454 -22.584 -17.993  0.00  0.00    -0.267 OA
ATOM     20  O   UNL     1      31.887 -23.376 -17.381  0.00  0.00    -0.246 OA
ATOM     21  N   UNL     1      34.189 -23.025 -17.615  0.00  0.00    -0.251 N 
ATOM     22  N   UNL     1      32.588 -21.983 -19.039  0.00  0.00    -0.306 N 
ATOM     23  C   UNL     1      35.274 -22.413 -18.291  0.00  0.00    +0.265 A 
ATOM     24  C   UNL     1      32.825 -22.832 -17.970  0.00  0.00    +0.330 A 
ATOM     25  C   UNL     1      34.933 -21.523 -19.418  0.00  0.00    +0.072 A 
ATOM     26  C   UNL     1      33.596 -21.335 -19.757  0.00  0.00    +0.065 A 
ATOM     27  C   UNL     1      35.936 -20.872 -20.141  0.00  0.00    +0.006 C 
ATOM     28  C   UNL     1      33.253 -20.496 -20.821  0.00  0.00    +0.017 C 
ATOM     29  C   UNL     1      35.594 -20.033 -21.204  0.00  0.00    +0.000 C 
ATOM     30  C   UNL     1      34.254 -19.847 -21.543  0.00  0.00    +0.001 C 
ATOM     31  H   UNL     1      31.653 -21.828 -19.309  0.00  0.00    +0.170 HD
ENDBRANCH  18  21
ENDBRANCH  17  18
ENDBRANCH   1  17
TORSDOF 5
ENDMDL
MODEL 9
REMARK VINA RESULT:     -10.5      1.685      2.812
REMARK  Name = 3822
REMARK  5 active torsions:
REMARK  status: ('A' for Active; 'I' for Inactive)
REMARK    1  A    between atoms: N_1  and  C_17
REMARK    2  A    between atoms: C_2  and  C_9
REMARK    3  A    between atoms: C_9  and  C_11
REMARK    4  A    between atoms: C_17  and  C_18
REMARK    5  A    between atoms: C_18  and  N_21
REMARK                            x       y       z     vdW  Elec       q    Type
REMARK                         _______ _______ _______ _____ _____    ______ ____
ROOT
ATOM      1  N   UNL     1      34.006 -21.447 -20.257  0.00  0.00    +0.388 N 
ATOM      2  C   UNL     1      35.440 -19.565 -21.997  0.00  0.00    +0.058 C 
ATOM      3  C   UNL     1      36.116 -20.787 -21.376  0.00  0.00    -0.015 C 
ATOM      4  C   UNL     1      33.920 -19.720 -22.026  0.00  0.00    -0.015 C 
ATOM      5  C   UNL     1      35.449 -21.242 -20.075  0.00  0.00    -0.077 C 
ATOM      6  C   UNL     1      33.351 -20.207 -20.690  0.00  0.00    -0.077 C 
ATOM      7  H   UNL     1      33.874 -22.147 -20.986  0.00  0.00    -0.080 HD
ENDROOT
BRANCH   2   9
ATOM      8  O   UNL     1      36.545 -18.345 -20.281  0.00  0.00    -0.291 OA
ATOM      9  C   UNL     1      35.821 -18.307 -21.272  0.00  0.00    +0.172 C 
BRANCH   9  11
ATOM     10  F   UNL     1      33.897 -13.411 -23.146  0.00  0.00    -0.204 F 
ATOM     11  C   UNL     1      35.308 -17.000 -21.773  0.00  0.00    +0.035 C 
ATOM     12  C   UNL     1      35.225 -16.799 -23.132  0.00  0.00    +0.005 C 
ATOM     13  C   UNL     1      34.934 -16.042 -20.856  0.00  0.00    +0.005 C 
ATOM     14  C   UNL     1      34.744 -15.576 -23.600  0.00  0.00    +0.030 C 
ATOM     15  C   UNL     1      34.454 -14.819 -21.324  0.00  0.00    +0.030 C 
ATOM     16  C   UNL     1      34.359 -14.585 -22.696  0.00  0.00    +0.140 C 
ENDBRANCH   9  11
ENDBRANCH   2   9
BRANCH   1  17
ATOM     17  C   UNL     1      33.400 -21.939 -19.019  0.00  0.00    -0.052 C 
BRANCH  17  18
ATOM     18  C   UNL     1      34.431 -22.684 -18.185  0.00  0.00    +0.091 C 
BRANCH  18  21
ATOM     19  O   UNL     1      31.688 -22.763 -17.792  0.00  0.00    -0.267 OA
ATOM     20  O   UNL     1      35.910 -23.834 -16.092  0.00  0.00    -0.246 OA
ATOM     21  N   UNL     1      33.835 -23.255 -17.009  0.00  0.00    -0.251 N 
ATOM     22  N   UNL     1      34.040 -24.344 -14.899  0.00  0.00    -0.306 N 
ATOM     23  C   UNL     1      32.421 -23.233 -16.924  0.00  0.00    +0.265 A 
ATOM     24  C   UNL     1      34.679 -23.812 -16.007  0.00  0.00    +0.330 A 
ATOM     25  C   UNL     1      31.821 -23.821 -15.710  0.00  0.00    +0.072 A 
ATOM     26  C   UNL     1      32.653 -24.359 -14.733  0.00  0.00    +0.065 A 
ATOM     27  C   UNL     1      30.434 -23.839 -15.538  0.00  0.00    +0.006 C 
ATOM     28  C   UNL     1      32.104 -24.919 -13.576  0.00  0.00    +0.017 C 
ATOM     29  C   UNL     1      29.886 -24.399 -14.381  0.00  0.00    +0.000 C 
ATOM     30  C   UNL     1      30.721 -24.938 -13.403  0.00  0.00    +0.001 C 
ATOM     31  H   UNL     1      34.597 -24.735 -14.187  0.00  0.00    +0.170 HD
ENDBRANCH  18  21
ENDBRANCH  17  18
ENDBRANCH   1  17
TORSDOF 5
ENDMDL
