MODEL 1
REMARK VINA RESULT:     -12.0      0.000      0.000
REMARK  Name = 11978813
REMARK  7 active torsions:
REMARK  status: ('A' for Active; 'I' for Inactive)
REMARK    1  A    between atoms: C_1  and  N_2
REMARK    2  A    between atoms: C_1  and  C_18
REMARK    3  A    between atoms: N_3  and  C_10
REMARK    4  A    between atoms: C_18  and  C_19
REMARK    5  A    between atoms: C_19  and  C_20
REMARK    6  A    between atoms: C_20  and  O_21
REMARK    7  A    between atoms: O_21  and  C_24
REMARK                            x       y       z     vdW  Elec       q    Type
REMARK                         _______ _______ _______ _____ _____    ______ ____
ROOT
ATOM      1  C   UNL     1      34.430 -17.607 -25.082  0.00  0.00    -0.077 C 
ENDROOT
BRANCH   1   2
ATOM      2  N   UNL     1      33.900 -16.330 -24.605  0.00  0.00    +0.389 N 
ATOM      3  N   UNL     1      33.870 -13.501 -24.217  0.00  0.00    -0.312 N 
ATOM      4  C   UNL     1      34.839 -15.700 -23.670  0.00  0.00    -0.055 C 
ATOM      5  C   UNL     1      33.637 -15.429 -25.733  0.00  0.00    -0.055 C 
ATOM      6  C   UNL     1      34.270 -14.390 -23.120  0.00  0.00    +0.068 C 
ATOM      7  C   UNL     1      33.028 -14.109 -25.252  0.00  0.00    +0.068 C 
ATOM      8  H   UNL     1      33.022 -16.513 -24.118  0.00  0.00    -0.080 HD
BRANCH   3  10
ATOM      9  S   UNL     1      31.671  -9.848 -21.495  0.00  0.00    -0.086 S 
ATOM     10  C   UNL     1      33.759 -12.132 -23.947  0.00  0.00    +0.048 C 
ATOM     11  C   UNL     1      32.867 -11.619 -22.950  0.00  0.00    +0.020 C 
ATOM     12  C   UNL     1      34.546 -11.214 -24.676  0.00  0.00    +0.015 C 
ATOM     13  C   UNL     1      32.805 -10.238 -22.733  0.00  0.00    +0.031 C 
ATOM     14  C   UNL     1      31.967 -12.321 -22.081  0.00  0.00    +0.009 C 
ATOM     15  C   UNL     1      34.468  -9.848 -24.443  0.00  0.00    +0.002 C 
ATOM     16  C   UNL     1      33.600  -9.341 -23.472  0.00  0.00    +0.007 C 
ATOM     17  C   UNL     1      31.265 -11.484 -21.248  0.00  0.00    +0.035 C 
ENDBRANCH   3  10
ENDBRANCH   1   2
BRANCH   1  18
ATOM     18  C   UNL     1      34.233 -18.692 -24.024  0.00  0.00    -0.019 C 
BRANCH  18  19
ATOM     19  C   UNL     1      35.550 -19.027 -23.325  0.00  0.00    +0.045 C 
BRANCH  19  20
ATOM     20  C   UNL     1      35.352 -19.248 -21.831  0.00  0.00    +0.205 C 
BRANCH  20  21
ATOM     21  O   UNL     1      34.296 -20.175 -21.617  0.00  0.00    -0.475 OA
BRANCH  21  24
ATOM     22  O   UNL     1      31.050 -23.643 -16.320  0.00  0.00    -0.270 OA
ATOM     23  N   UNL     1      32.084 -22.514 -18.040  0.00  0.00    -0.280 N 
ATOM     24  C   UNL     1      34.361 -20.934 -20.477  0.00  0.00    +0.140 C 
ATOM     25  C   UNL     1      33.187 -21.330 -19.848  0.00  0.00    +0.052 C 
ATOM     26  C   UNL     1      33.264 -22.104 -18.688  0.00  0.00    +0.054 C 
ATOM     27  C   UNL     1      35.602 -21.297 -19.964  0.00  0.00    +0.037 C 
ATOM     28  C   UNL     1      34.504 -22.477 -18.160  0.00  0.00    +0.014 C 
ATOM     29  C   UNL     1      35.677 -22.071 -18.804  0.00  0.00    +0.004 C 
ATOM     30  C   UNL     1      34.541 -23.288 -16.944  0.00  0.00    +0.006 C 
ATOM     31  C   UNL     1      32.077 -23.280 -16.891  0.00  0.00    +0.250 C 
ATOM     32  C   UNL     1      33.406 -23.667 -16.344  0.00  0.00    +0.058 C 
ATOM     33  H   UNL     1      31.220 -22.241 -18.425  0.00  0.00    +0.155 HD
ENDBRANCH  21  24
ENDBRANCH  20  21
ENDBRANCH  19  20
ENDBRANCH  18  19
ENDBRANCH   1  18
TORSDOF 7
ENDMDL
MODEL 2
REMARK VINA RESULT:     -11.9      0.962      1.895
REMARK  Name = 11978813
REMARK  7 active torsions:
REMARK  status: ('A' for Active; 'I' for Inactive)
REMARK    1  A    between atoms: C_1  and  N_2
REMARK    2  A    between atoms: C_1  and  C_18
REMARK    3  A    between atoms: N_3  and  C_10
REMARK    4  A    between atoms: C_18  and  C_19
REMARK    5  A    between atoms: C_19  and  C_20
REMARK    6  A    between atoms: C_20  and  O_21
REMARK    7  A    between atoms: O_21  and  C_24
REMARK                            x       y       z     vdW  Elec       q    Type
REMARK                         _______ _______ _______ _____ _____    ______ ____
ROOT
ATOM      1  C   UNL     1      34.969 -16.886 -24.630  0.00  0.00    -0.077 C 
ENDROOT
BRANCH   1   2
ATOM      2  N   UNL     1      34.081 -15.903 -24.011  0.00  0.00    +0.389 N 
ATOM      3  N   UNL     1      33.253 -13.304 -23.165  0.00  0.00    -0.312 N 
ATOM      4  C   UNL     1      34.750 -15.241 -22.885  0.00  0.00    -0.055 C 
ATOM      5  C   UNL     1      33.653 -14.903 -24.996  0.00  0.00    -0.055 C 
ATOM      6  C   UNL     1      33.810 -14.252 -22.192  0.00  0.00    +0.068 C 
ATOM      7  C   UNL     1      32.677 -13.901 -24.374  0.00  0.00    +0.068 C 
ATOM      8  H   UNL     1      33.258 -16.395 -23.662  0.00  0.00    -0.080 HD
BRANCH   3  10
ATOM      9  S   UNL     1      33.507  -8.252 -23.248  0.00  0.00    -0.086 S 
ATOM     10  C   UNL     1      32.754 -12.087 -22.686  0.00  0.00    +0.048 C 
ATOM     11  C   UNL     1      33.276 -10.824 -23.115  0.00  0.00    +0.020 C 
ATOM     12  C   UNL     1      31.699 -12.090 -21.748  0.00  0.00    +0.015 C 
ATOM     13  C   UNL     1      32.730  -9.646 -22.595  0.00  0.00    +0.031 C 
ATOM     14  C   UNL     1      34.331 -10.540 -24.046  0.00  0.00    +0.009 C 
ATOM     15  C   UNL     1      31.173 -10.907 -21.246  0.00  0.00    +0.002 C 
ATOM     16  C   UNL     1      31.678  -9.672 -21.659  0.00  0.00    +0.007 C 
ATOM     17  C   UNL     1      34.555  -9.194 -24.207  0.00  0.00    +0.035 C 
ENDBRANCH   3  10
ENDBRANCH   1   2
BRANCH   1  18
ATOM     18  C   UNL     1      34.234 -18.209 -24.840  0.00  0.00    -0.019 C 
BRANCH  18  19
ATOM     19  C   UNL     1      34.945 -19.356 -24.123  0.00  0.00    +0.045 C 
BRANCH  19  20
ATOM     20  C   UNL     1      34.993 -19.133 -22.617  0.00  0.00    +0.205 C 
BRANCH  20  21
ATOM     21  O   UNL     1      33.882 -19.770 -22.001  0.00  0.00    -0.475 OA
BRANCH  21  24
ATOM     22  O   UNL     1      31.599 -23.665 -16.502  0.00  0.00    -0.270 OA
ATOM     23  N   UNL     1      32.320 -22.400 -18.285  0.00  0.00    -0.280 N 
ATOM     24  C   UNL     1      34.147 -20.555 -20.908  0.00  0.00    +0.140 C 
ATOM     25  C   UNL     1      33.094 -21.070 -20.162  0.00  0.00    +0.052 C 
ATOM     26  C   UNL     1      33.374 -21.870 -19.051  0.00  0.00    +0.054 C 
ATOM     27  C   UNL     1      35.466 -20.824 -20.561  0.00  0.00    +0.037 C 
ATOM     28  C   UNL     1      34.696 -22.150 -18.688  0.00  0.00    +0.014 C 
ATOM     29  C   UNL     1      35.745 -21.624 -19.450  0.00  0.00    +0.004 C 
ATOM     30  C   UNL     1      34.946 -22.990 -17.520  0.00  0.00    +0.006 C 
ATOM     31  C   UNL     1      32.515 -23.198 -17.175  0.00  0.00    +0.250 C 
ATOM     32  C   UNL     1      33.928 -23.484 -16.805  0.00  0.00    +0.058 C 
ATOM     33  H   UNL     1      31.396 -22.191 -18.554  0.00  0.00    +0.155 HD
ENDBRANCH  21  24
ENDBRANCH  20  21
ENDBRANCH  19  20
ENDBRANCH  18  19
ENDBRANCH   1  18
TORSDOF 7
ENDMDL
MODEL 3
REMARK VINA RESULT:     -11.8      1.960      2.964
REMARK  Name = 11978813
REMARK  7 active torsions:
REMARK  status: ('A' for Active; 'I' for Inactive)
REMARK    1  A    between atoms: C_1  and  N_2
REMARK    2  A    between atoms: C_1  and  C_18
REMARK    3  A    between atoms: N_3  and  C_10
REMARK    4  A    between atoms: C_18  and  C_19
REMARK    5  A    between atoms: C_19  and  C_20
REMARK    6  A    between atoms: C_20  and  O_21
REMARK    7  A    between atoms: O_21  and  C_24
REMARK                            x       y       z     vdW  Elec       q    Type
REMARK                         _______ _______ _______ _____ _____    ______ ____
ROOT
ATOM      1  C   UNL     1      34.935 -17.521 -24.271  0.00  0.00    -0.077 C 
ENDROOT
BRANCH   1   2
ATOM      2  N   UNL     1      34.746 -16.088 -24.050  0.00  0.00    +0.389 N 
ATOM      3  N   UNL     1      33.397 -13.749 -23.118  0.00  0.00    -0.312 N 
ATOM      4  C   UNL     1      33.524 -15.621 -24.716  0.00  0.00    -0.055 C 
ATOM      5  C   UNL     1      34.676 -15.793 -22.614  0.00  0.00    -0.055 C 
ATOM      6  C   UNL     1      33.345 -14.111 -24.540  0.00  0.00    +0.068 C 
ATOM      7  C   UNL     1      34.534 -14.290 -22.367  0.00  0.00    +0.068 C 
ATOM      8  H   UNL     1      35.546 -15.597 -24.448  0.00  0.00    -0.080 HD
BRANCH   3  10
ATOM      9  S   UNL     1      33.405  -8.703 -23.480  0.00  0.00    -0.086 S 
ATOM     10  C   UNL     1      32.821 -12.535 -22.727  0.00  0.00    +0.048 C 
ATOM     11  C   UNL     1      33.296 -11.272 -23.210  0.00  0.00    +0.020 C 
ATOM     12  C   UNL     1      31.733 -12.540 -21.827  0.00  0.00    +0.015 C 
ATOM     13  C   UNL     1      32.674 -10.097 -22.777  0.00  0.00    +0.031 C 
ATOM     14  C   UNL     1      34.369 -10.986 -24.118  0.00  0.00    +0.009 C 
ATOM     15  C   UNL     1      31.131 -11.360 -21.411  0.00  0.00    +0.002 C 
ATOM     16  C   UNL     1      31.590 -10.126 -21.877  0.00  0.00    +0.007 C 
ATOM     17  C   UNL     1      34.532  -9.642 -24.347  0.00  0.00    +0.035 C 
ENDBRANCH   3  10
ENDBRANCH   1   2
BRANCH   1  18
ATOM     18  C   UNL     1      35.547 -18.174 -23.033  0.00  0.00    -0.019 C 
BRANCH  18  19
ATOM     19  C   UNL     1      34.822 -19.471 -22.677  0.00  0.00    +0.045 C 
BRANCH  19  20
ATOM     20  C   UNL     1      34.820 -19.719 -21.174  0.00  0.00    +0.205 C 
BRANCH  20  21
ATOM     21  O   UNL     1      35.660 -20.823 -20.866  0.00  0.00    -0.475 OA
BRANCH  21  24
ATOM     22  O   UNL     1      37.801 -23.399 -14.589  0.00  0.00    -0.270 OA
ATOM     23  N   UNL     1      37.125 -22.560 -16.625  0.00  0.00    -0.280 N 
ATOM     24  C   UNL     1      35.392 -21.500 -19.705  0.00  0.00    +0.140 C 
ATOM     25  C   UNL     1      36.400 -21.680 -18.767  0.00  0.00    +0.052 C 
ATOM     26  C   UNL     1      36.116 -22.370 -17.585  0.00  0.00    +0.054 C 
ATOM     27  C   UNL     1      34.112 -21.998 -19.482  0.00  0.00    +0.037 C 
ATOM     28  C   UNL     1      34.834 -22.878 -17.347  0.00  0.00    +0.014 C 
ATOM     29  C   UNL     1      33.830 -22.689 -18.301  0.00  0.00    +0.004 C 
ATOM     30  C   UNL     1      34.579 -23.594 -16.099  0.00  0.00    +0.006 C 
ATOM     31  C   UNL     1      36.924 -23.230 -15.434  0.00  0.00    +0.250 C 
ATOM     32  C   UNL     1      35.555 -23.763 -15.198  0.00  0.00    +0.058 C 
ATOM     33  H   UNL     1      38.022 -22.197 -16.810  0.00  0.00    +0.155 HD
ENDBRANCH  21  24
ENDBRANCH  20  21
ENDBRANCH  19  20
ENDBRANCH  18  19
ENDBRANCH   1  18
TORSDOF 7
ENDMDL
MODEL 4
REMARK VINA RESULT:     -11.8      1.809      2.186
REMARK  Name = 11978813
REMARK  7 active torsions:
REMARK  status: ('A' for Active; 'I' for Inactive)
REMARK    1  A    between atoms: C_1  and  N_2
REMARK    2  A    between atoms: C_1  and  C_18
REMARK    3  A    between atoms: N_3  and  C_10
REMARK    4  A    between atoms: C_18  and  C_19
REMARK    5  A    between atoms: C_19  and  C_20
REMARK    6  A    between atoms: C_20  and  O_21
REMARK    7  A    between atoms: O_21  and  C_24
REMARK                            x       y       z     vdW  Elec       q    Type
REMARK                         _______ _______ _______ _____ _____    ______ ____
ROOT
ATOM      1  C   UNL     1      34.618 -17.602 -24.450  0.00  0.00    -0.077 C 
ENDROOT
BRANCH   1   2
ATOM      2  N   UNL     1      34.046 -16.304 -24.096  0.00  0.00    +0.389 N 
ATOM      3  N   UNL     1      33.940 -13.453 -23.946  0.00  0.00    -0.312 N 
ATOM      4  C   UNL     1      34.944 -15.574 -23.192  0.00  0.00    -0.055 C 
ATOM      5  C   UNL     1      33.793 -15.506 -25.301  0.00  0.00    -0.055 C 
ATOM      6  C   UNL     1      34.329 -14.238 -22.768  0.00  0.00    +0.068 C 
ATOM      7  C   UNL     1      33.141 -14.167 -24.948  0.00  0.00    +0.068 C 
ATOM      8  H   UNL     1      33.159 -16.468 -23.617  0.00  0.00    -0.080 HD
BRANCH   3  10
ATOM      9  S   UNL     1      31.561  -9.645 -21.617  0.00  0.00    -0.086 S 
ATOM     10  C   UNL     1      33.789 -12.071 -23.795  0.00  0.00    +0.048 C 
ATOM     11  C   UNL     1      32.848 -11.499 -22.877  0.00  0.00    +0.020 C 
ATOM     12  C   UNL     1      34.584 -11.196 -24.567  0.00  0.00    +0.015 C 
ATOM     13  C   UNL     1      32.749 -10.108 -22.777  0.00  0.00    +0.031 C 
ATOM     14  C   UNL     1      31.931 -12.150 -21.985  0.00  0.00    +0.009 C 
ATOM     15  C   UNL     1      34.467  -9.818 -24.451  0.00  0.00    +0.002 C 
ATOM     16  C   UNL     1      33.553  -9.254 -23.558  0.00  0.00    +0.007 C 
ATOM     17  C   UNL     1      31.180 -11.265 -21.251  0.00  0.00    +0.035 C 
ENDBRANCH   3  10
ENDBRANCH   1   2
BRANCH   1  18
ATOM     18  C   UNL     1      35.342 -18.209 -23.249  0.00  0.00    -0.019 C 
BRANCH  18  19
ATOM     19  C   UNL     1      34.691 -19.522 -22.818  0.00  0.00    +0.045 C 
BRANCH  19  20
ATOM     20  C   UNL     1      34.759 -19.713 -21.308  0.00  0.00    +0.205 C 
BRANCH  20  21
ATOM     21  O   UNL     1      35.609 -20.809 -20.999  0.00  0.00    -0.475 OA
BRANCH  21  24
ATOM     22  O   UNL     1      37.918 -23.419 -14.795  0.00  0.00    -0.270 OA
ATOM     23  N   UNL     1      37.188 -22.570 -16.808  0.00  0.00    -0.280 N 
ATOM     24  C   UNL     1      35.365 -21.468 -19.821  0.00  0.00    +0.140 C 
ATOM     25  C   UNL     1      36.405 -21.679 -18.924  0.00  0.00    +0.052 C 
ATOM     26  C   UNL     1      36.146 -22.349 -17.727  0.00  0.00    +0.054 C 
ATOM     27  C   UNL     1      34.079 -21.917 -19.540  0.00  0.00    +0.037 C 
ATOM     28  C   UNL     1      34.858 -22.808 -17.429  0.00  0.00    +0.014 C 
ATOM     29  C   UNL     1      33.822 -22.588 -18.342  0.00  0.00    +0.004 C 
ATOM     30  C   UNL     1      34.630 -23.504 -16.166  0.00  0.00    +0.006 C 
ATOM     31  C   UNL     1      37.012 -23.224 -15.604  0.00  0.00    +0.250 C 
ATOM     32  C   UNL     1      35.636 -23.703 -15.305  0.00  0.00    +0.058 C 
ATOM     33  H   UNL     1      38.089 -22.242 -17.034  0.00  0.00    +0.155 HD
ENDBRANCH  21  24
ENDBRANCH  20  21
ENDBRANCH  19  20
ENDBRANCH  18  19
ENDBRANCH   1  18
TORSDOF 7
ENDMDL
MODEL 5
REMARK VINA RESULT:     -11.6      3.265      5.858
REMARK  Name = 11978813
REMARK  7 active torsions:
REMARK  status: ('A' for Active; 'I' for Inactive)
REMARK    1  A    between atoms: C_1  and  N_2
REMARK    2  A    between atoms: C_1  and  C_18
REMARK    3  A    between atoms: N_3  and  C_10
REMARK    4  A    between atoms: C_18  and  C_19
REMARK    5  A    between atoms: C_19  and  C_20
REMARK    6  A    between atoms: C_20  and  O_21
REMARK    7  A    between atoms: O_21  and  C_24
REMARK                            x       y       z     vdW  Elec       q    Type
REMARK                         _______ _______ _______ _____ _____    ______ ____
ROOT
ATOM      1  C   UNL     1      36.818 -21.737 -19.262  0.00  0.00    -0.077 C 
ENDROOT
BRANCH   1   2
ATOM      2  N   UNL     1      36.222 -20.566 -19.902  0.00  0.00    +0.389 N 
ATOM      3  N   UNL     1      35.388 -18.932 -22.092  0.00  0.00    -0.312 N 
ATOM      4  C   UNL     1      37.215 -19.870 -20.729  0.00  0.00    -0.055 C 
ATOM      5  C   UNL     1      35.073 -20.958 -20.726  0.00  0.00    -0.055 C 
ATOM      6  C   UNL     1      36.618 -18.609 -21.359  0.00  0.00    +0.068 C 
ATOM      7  C   UNL     1      34.404 -19.734 -21.357  0.00  0.00    +0.068 C 
ATOM      8  H   UNL     1      35.901 -19.933 -19.169  0.00  0.00    -0.080 HD
BRANCH   3  10
ATOM      9  S   UNL     1      34.161 -14.180 -23.316  0.00  0.00    -0.086 S 
ATOM     10  C   UNL     1      34.957 -18.040 -23.080  0.00  0.00    +0.048 C 
ATOM     11  C   UNL     1      34.761 -16.645 -22.818  0.00  0.00    +0.020 C 
ATOM     12  C   UNL     1      34.702 -18.517 -24.384  0.00  0.00    +0.015 C 
ATOM     13  C   UNL     1      34.328 -15.809 -23.853  0.00  0.00    +0.031 C 
ATOM     14  C   UNL     1      34.944 -15.909 -21.600  0.00  0.00    +0.009 C 
ATOM     15  C   UNL     1      34.272 -17.668 -25.395  0.00  0.00    +0.002 C 
ATOM     16  C   UNL     1      34.080 -16.307 -25.147  0.00  0.00    +0.007 C 
ATOM     17  C   UNL     1      34.655 -14.573 -21.733  0.00  0.00    +0.035 C 
ENDBRANCH   3  10
ENDBRANCH   1   2
BRANCH   1  18
ATOM     18  C   UNL     1      36.108 -22.042 -17.944  0.00  0.00    -0.019 C 
BRANCH  18  19
ATOM     19  C   UNL     1      37.103 -22.134 -16.788  0.00  0.00    +0.045 C 
BRANCH  19  20
ATOM     20  C   UNL     1      36.560 -22.983 -15.646  0.00  0.00    +0.205 C 
BRANCH  20  21
ATOM     21  O   UNL     1      35.661 -23.959 -16.157  0.00  0.00    -0.475 OA
BRANCH  21  24
ATOM     22  O   UNL     1      28.762 -22.653 -17.301  0.00  0.00    -0.270 OA
ATOM     23  N   UNL     1      30.999 -23.069 -16.947  0.00  0.00    -0.280 N 
ATOM     24  C   UNL     1      34.369 -23.908 -15.701  0.00  0.00    +0.140 C 
ATOM     25  C   UNL     1      33.353 -23.513 -16.562  0.00  0.00    +0.052 C 
ATOM     26  C   UNL     1      32.039 -23.466 -16.088  0.00  0.00    +0.054 C 
ATOM     27  C   UNL     1      34.093 -24.253 -14.382  0.00  0.00    +0.037 C 
ATOM     28  C   UNL     1      31.745 -23.809 -14.764  0.00  0.00    +0.014 C 
ATOM     29  C   UNL     1      32.779 -24.204 -13.910  0.00  0.00    +0.004 C 
ATOM     30  C   UNL     1      30.359 -23.746 -14.309  0.00  0.00    +0.006 C 
ATOM     31  C   UNL     1      29.677 -22.997 -16.555  0.00  0.00    +0.250 C 
ATOM     32  C   UNL     1      29.384 -23.366 -15.144  0.00  0.00    +0.058 C 
ATOM     33  H   UNL     1      31.224 -22.830 -17.876  0.00  0.00    +0.155 HD
ENDBRANCH  21  24
ENDBRANCH  20  21
ENDBRANCH  19  20
ENDBRANCH  18  19
ENDBRANCH   1  18
TORSDOF 7
ENDMDL
MODEL 6
REMARK VINA RESULT:     -11.4      1.648      2.681
REMARK  Name = 11978813
REMARK  7 active torsions:
REMARK  status: ('A' for Active; 'I' for Inactive)
REMARK    1  A    between atoms: C_1  and  N_2
REMARK    2  A    between atoms: C_1  and  C_18
REMARK    3  A    between atoms: N_3  and  C_10
REMARK    4  A    between atoms: C_18  and  C_19
REMARK    5  A    between atoms: C_19  and  C_20
REMARK    6  A    between atoms: C_20  and  O_21
REMARK    7  A    between atoms: O_21  and  C_24
REMARK                            x       y       z     vdW  Elec       q    Type
REMARK                         _______ _______ _______ _____ _____    ______ ____
ROOT
ATOM      1  C   UNL     1      33.307 -15.202 -26.278  0.00  0.00    -0.077 C 
ENDROOT
BRANCH   1   2
ATOM      2  N   UNL     1      33.810 -14.002 -25.612  0.00  0.00    +0.389 N 
ATOM      3  N   UNL     1      33.615 -11.490 -24.265  0.00  0.00    -0.312 N 
ATOM      4  C   UNL     1      33.401 -12.797 -26.344  0.00  0.00    -0.055 C 
ATOM      5  C   UNL     1      33.323 -13.936 -24.229  0.00  0.00    -0.055 C 
ATOM      6  C   UNL     1      33.970 -11.536 -25.689  0.00  0.00    +0.068 C 
ATOM      7  C   UNL     1      33.888 -12.713 -23.503  0.00  0.00    +0.068 C 
ATOM      8  H   UNL     1      34.829 -14.049 -25.600  0.00  0.00    -0.080 HD
BRANCH   3  10
ATOM      9  S   UNL     1      31.848  -8.575 -20.528  0.00  0.00    -0.086 S 
ATOM     10  C   UNL     1      33.645 -10.249 -23.619  0.00  0.00    +0.048 C 
ATOM     11  C   UNL     1      32.830  -9.962 -22.476  0.00  0.00    +0.020 C 
ATOM     12  C   UNL     1      34.503  -9.236 -24.100  0.00  0.00    +0.015 C 
ATOM     13  C   UNL     1      32.910  -8.699 -21.880  0.00  0.00    +0.031 C 
ATOM     14  C   UNL     1      31.885 -10.798 -21.794  0.00  0.00    +0.009 C 
ATOM     15  C   UNL     1      34.565  -7.990 -23.492  0.00  0.00    +0.002 C 
ATOM     16  C   UNL     1      33.773  -7.703 -22.377  0.00  0.00    +0.007 C 
ATOM     17  C   UNL     1      31.288 -10.172 -20.727  0.00  0.00    +0.035 C 
ENDBRANCH   3  10
ENDBRANCH   1   2
BRANCH   1  18
ATOM     18  C   UNL     1      33.283 -16.380 -25.303  0.00  0.00    -0.019 C 
BRANCH  18  19
ATOM     19  C   UNL     1      34.583 -17.179 -25.371  0.00  0.00    +0.045 C 
BRANCH  19  20
ATOM     20  C   UNL     1      34.605 -18.304 -24.344  0.00  0.00    +0.205 C 
BRANCH  20  21
ATOM     21  O   UNL     1      35.197 -17.842 -23.137  0.00  0.00    -0.475 OA
BRANCH  21  24
ATOM     22  O   UNL     1      32.745 -22.791 -18.653  0.00  0.00    -0.270 OA
ATOM     23  N   UNL     1      33.521 -21.185 -20.109  0.00  0.00    -0.280 N 
ATOM     24  C   UNL     1      35.422 -18.778 -22.161  0.00  0.00    +0.140 C 
ATOM     25  C   UNL     1      34.353 -19.496 -21.640  0.00  0.00    +0.052 C 
ATOM     26  C   UNL     1      34.593 -20.449 -20.647  0.00  0.00    +0.054 C 
ATOM     27  C   UNL     1      36.718 -18.997 -21.706  0.00  0.00    +0.037 C 
ATOM     28  C   UNL     1      35.890 -20.681 -20.178  0.00  0.00    +0.014 C 
ATOM     29  C   UNL     1      36.956 -19.950 -20.713  0.00  0.00    +0.004 C 
ATOM     30  C   UNL     1      36.098 -21.686 -19.139  0.00  0.00    +0.006 C 
ATOM     31  C   UNL     1      33.676 -22.144 -19.127  0.00  0.00    +0.250 C 
ATOM     32  C   UNL     1      35.064 -22.375 -18.641  0.00  0.00    +0.058 C 
ATOM     33  H   UNL     1      32.614 -21.008 -20.450  0.00  0.00    +0.155 HD
ENDBRANCH  21  24
ENDBRANCH  20  21
ENDBRANCH  19  20
ENDBRANCH  18  19
ENDBRANCH   1  18
TORSDOF 7
ENDMDL
MODEL 7
REMARK VINA RESULT:     -11.3      3.238      5.787
REMARK  Name = 11978813
REMARK  7 active torsions:
REMARK  status: ('A' for Active; 'I' for Inactive)
REMARK    1  A    between atoms: C_1  and  N_2
REMARK    2  A    between atoms: C_1  and  C_18
REMARK    3  A    between atoms: N_3  and  C_10
REMARK    4  A    between atoms: C_18  and  C_19
REMARK    5  A    between atoms: C_19  and  C_20
REMARK    6  A    between atoms: C_20  and  O_21
REMARK    7  A    between atoms: O_21  and  C_24
REMARK                            x       y       z     vdW  Elec       q    Type
REMARK                         _______ _______ _______ _____ _____    ______ ____
ROOT
ATOM      1  C   UNL     1      36.731 -22.057 -19.788  0.00  0.00    -0.077 C 
ENDROOT
BRANCH   1   2
ATOM      2  N   UNL     1      36.353 -20.978 -20.700  0.00  0.00    +0.389 N 
ATOM      3  N   UNL     1      35.528 -18.340 -21.419  0.00  0.00    -0.312 N 
ATOM      4  C   UNL     1      34.983 -20.528 -20.425  0.00  0.00    -0.055 C 
ATOM      5  C   UNL     1      37.283 -19.850 -20.579  0.00  0.00    -0.055 C 
ATOM      6  C   UNL     1      34.555 -19.439 -21.411  0.00  0.00    +0.068 C 
ATOM      7  C   UNL     1      36.932 -18.737 -21.568  0.00  0.00    +0.068 C 
ATOM      8  H   UNL     1      36.396 -21.339 -21.653  0.00  0.00    -0.080 HD
BRANCH   3  10
ATOM      9  S   UNL     1      33.971 -15.556 -25.346  0.00  0.00    -0.086 S 
ATOM     10  C   UNL     1      35.107 -17.091 -21.890  0.00  0.00    +0.048 C 
ATOM     11  C   UNL     1      34.755 -16.868 -23.261  0.00  0.00    +0.020 C 
ATOM     12  C   UNL     1      35.020 -16.004 -20.993  0.00  0.00    +0.015 C 
ATOM     13  C   UNL     1      34.343 -15.594 -23.663  0.00  0.00    +0.031 C 
ATOM     14  C   UNL     1      34.754 -17.786 -24.364  0.00  0.00    +0.009 C 
ATOM     15  C   UNL     1      34.608 -14.747 -21.415  0.00  0.00    +0.002 C 
ATOM     16  C   UNL     1      34.264 -14.523 -22.750  0.00  0.00    +0.007 C 
ATOM     17  C   UNL     1      34.352 -17.205 -25.542  0.00  0.00    +0.035 C 
ENDBRANCH   3  10
ENDBRANCH   1   2
BRANCH   1  18
ATOM     18  C   UNL     1      36.001 -21.905 -18.454  0.00  0.00    -0.019 C 
BRANCH  18  19
ATOM     19  C   UNL     1      36.966 -22.049 -17.278  0.00  0.00    +0.045 C 
BRANCH  19  20
ATOM     20  C   UNL     1      36.285 -22.671 -16.066  0.00  0.00    +0.205 C 
BRANCH  20  21
ATOM     21  O   UNL     1      35.473 -23.764 -16.478  0.00  0.00    -0.475 OA
BRANCH  21  24
ATOM     22  O   UNL     1      28.498 -22.619 -17.290  0.00  0.00    -0.270 OA
ATOM     23  N   UNL     1      30.759 -22.981 -17.043  0.00  0.00    -0.280 N 
ATOM     24  C   UNL     1      34.196 -23.806 -15.982  0.00  0.00    +0.140 C 
ATOM     25  C   UNL     1      33.139 -23.370 -16.771  0.00  0.00    +0.052 C 
ATOM     26  C   UNL     1      31.840 -23.419 -16.257  0.00  0.00    +0.054 C 
ATOM     27  C   UNL     1      33.975 -24.287 -14.696  0.00  0.00    +0.037 C 
ATOM     28  C   UNL     1      31.602 -23.899 -14.965  0.00  0.00    +0.014 C 
ATOM     29  C   UNL     1      32.676 -24.335 -14.184  0.00  0.00    +0.004 C 
ATOM     30  C   UNL     1      30.229 -23.934 -14.466  0.00  0.00    +0.006 C 
ATOM     31  C   UNL     1      29.448 -22.999 -16.608  0.00  0.00    +0.250 C 
ATOM     32  C   UNL     1      29.215 -23.512 -15.231  0.00  0.00    +0.058 C 
ATOM     33  H   UNL     1      30.946 -22.646 -17.950  0.00  0.00    +0.155 HD
ENDBRANCH  21  24
ENDBRANCH  20  21
ENDBRANCH  19  20
ENDBRANCH  18  19
ENDBRANCH   1  18
TORSDOF 7
ENDMDL
MODEL 8
REMARK VINA RESULT:     -11.1      2.480      4.144
REMARK  Name = 11978813
REMARK  7 active torsions:
REMARK  status: ('A' for Active; 'I' for Inactive)
REMARK    1  A    between atoms: C_1  and  N_2
REMARK    2  A    between atoms: C_1  and  C_18
REMARK    3  A    between atoms: N_3  and  C_10
REMARK    4  A    between atoms: C_18  and  C_19
REMARK    5  A    between atoms: C_19  and  C_20
REMARK    6  A    between atoms: C_20  and  O_21
REMARK    7  A    between atoms: O_21  and  C_24
REMARK                            x       y       z     vdW  Elec       q    Type
REMARK                         _______ _______ _______ _____ _____    ______ ____
ROOT
ATOM      1  C   UNL     1      33.256 -14.177 -23.189  0.00  0.00    -0.077 C 
ENDROOT
BRANCH   1   2
ATOM      2  N   UNL     1      32.725 -12.818 -23.099  0.00  0.00    +0.389 N 
ATOM      3  N   UNL     1      32.569 -10.138 -22.123  0.00  0.00    -0.312 N 
ATOM      4  C   UNL     1      32.225 -12.549 -21.746  0.00  0.00    -0.055 C 
ATOM      5  C   UNL     1      33.757 -11.837 -23.455  0.00  0.00    -0.055 C 
ATOM      6  C   UNL     1      31.613 -11.149 -21.654  0.00  0.00    +0.068 C 
ATOM      7  C   UNL     1      33.198 -10.412 -23.419  0.00  0.00    +0.068 C 
ATOM      8  H   UNL     1      31.951 -12.735 -23.759  0.00  0.00    -0.080 HD
BRANCH   3  10
ATOM      9  S   UNL     1      31.057  -5.459 -23.314  0.00  0.00    -0.086 S 
ATOM     10  C   UNL     1      32.383  -8.814 -21.709  0.00  0.00    +0.048 C 
ATOM     11  C   UNL     1      31.859  -7.806 -22.581  0.00  0.00    +0.020 C 
ATOM     12  C   UNL     1      32.720  -8.446 -20.388  0.00  0.00    +0.015 C 
ATOM     13  C   UNL     1      31.700  -6.502 -22.100  0.00  0.00    +0.031 C 
ATOM     14  C   UNL     1      31.443  -7.908 -23.950  0.00  0.00    +0.009 C 
ATOM     15  C   UNL     1      32.553  -7.145 -19.933  0.00  0.00    +0.002 C 
ATOM     16  C   UNL     1      32.043  -6.157 -20.778  0.00  0.00    +0.007 C 
ATOM     17  C   UNL     1      30.991  -6.716 -24.463  0.00  0.00    +0.035 C 
ENDBRANCH   3  10
ENDBRANCH   1   2
BRANCH   1  18
ATOM     18  C   UNL     1      33.447 -14.577 -24.652  0.00  0.00    -0.019 C 
BRANCH  18  19
ATOM     19  C   UNL     1      34.181 -15.912 -24.768  0.00  0.00    +0.045 C 
BRANCH  19  20
ATOM     20  C   UNL     1      34.653 -16.414 -23.409  0.00  0.00    +0.205 C 
BRANCH  20  21
ATOM     21  O   UNL     1      35.637 -17.424 -23.584  0.00  0.00    -0.475 OA
BRANCH  21  24
ATOM     22  O   UNL     1      32.575 -22.258 -19.356  0.00  0.00    -0.270 OA
ATOM     23  N   UNL     1      33.549 -20.688 -20.730  0.00  0.00    -0.280 N 
ATOM     24  C   UNL     1      35.732 -18.372 -22.598  0.00  0.00    +0.140 C 
ATOM     25  C   UNL     1      34.589 -19.039 -22.175  0.00  0.00    +0.052 C 
ATOM     26  C   UNL     1      34.696 -20.004 -21.170  0.00  0.00    +0.054 C 
ATOM     27  C   UNL     1      36.972 -18.653 -22.034  0.00  0.00    +0.037 C 
ATOM     28  C   UNL     1      35.936 -20.298 -20.593  0.00  0.00    +0.014 C 
ATOM     29  C   UNL     1      37.077 -19.618 -21.030  0.00  0.00    +0.004 C 
ATOM     30  C   UNL     1      36.006 -21.314 -19.545  0.00  0.00    +0.006 C 
ATOM     31  C   UNL     1      33.573 -21.654 -19.744  0.00  0.00    +0.250 C 
ATOM     32  C   UNL     1      34.901 -21.953 -19.142  0.00  0.00    +0.058 C 
ATOM     33  H   UNL     1      32.684 -20.468 -21.147  0.00  0.00    +0.155 HD
ENDBRANCH  21  24
ENDBRANCH  20  21
ENDBRANCH  19  20
ENDBRANCH  18  19
ENDBRANCH   1  18
TORSDOF 7
ENDMDL
MODEL 9
REMARK VINA RESULT:     -11.1      4.345     11.377
REMARK  Name = 11978813
REMARK  7 active torsions:
REMARK  status: ('A' for Active; 'I' for Inactive)
REMARK    1  A    between atoms: C_1  and  N_2
REMARK    2  A    between atoms: C_1  and  C_18
REMARK    3  A    between atoms: N_3  and  C_10
REMARK    4  A    between atoms: C_18  and  C_19
REMARK    5  A    between atoms: C_19  and  C_20
REMARK    6  A    between atoms: C_20  and  O_21
REMARK    7  A    between atoms: O_21  and  C_24
REMARK                            x       y       z     vdW  Elec       q    Type
REMARK                         _______ _______ _______ _____ _____    ______ ____
ROOT
ATOM      1  C   UNL     1      34.271 -16.115 -25.268  0.00  0.00    -0.077 C 
ENDROOT
BRANCH   1   2
ATOM      2  N   UNL     1      34.971 -17.106 -24.452  0.00  0.00    +0.389 N 
ATOM      3  N   UNL     1      35.308 -18.924 -22.275  0.00  0.00    -0.312 N 
ATOM      4  C   UNL     1      35.172 -16.602 -23.089  0.00  0.00    -0.055 C 
ATOM      5  C   UNL     1      34.219 -18.366 -24.413  0.00  0.00    -0.055 C 
ATOM      6  C   UNL     1      35.955 -17.607 -22.241  0.00  0.00    +0.068 C 
ATOM      7  C   UNL     1      34.968 -19.430 -23.609  0.00  0.00    +0.068 C 
ATOM      8  H   UNL     1      35.882 -17.280 -24.877  0.00  0.00    -0.080 HD
BRANCH   3  10
ATOM      9  S   UNL     1      33.545 -22.244 -18.889  0.00  0.00    -0.086 S 
ATOM     10  C   UNL     1      35.594 -19.825 -21.243  0.00  0.00    +0.048 C 
ATOM     11  C   UNL     1      34.571 -20.572 -20.574  0.00  0.00    +0.020 C 
ATOM     12  C   UNL     1      36.933 -20.014 -20.837  0.00  0.00    +0.015 C 
ATOM     13  C   UNL     1      34.928 -21.456 -19.550  0.00  0.00    +0.031 C 
ATOM     14  C   UNL     1      33.152 -20.570 -20.785  0.00  0.00    +0.009 C 
ATOM     15  C   UNL     1      37.264 -20.897 -19.818  0.00  0.00    +0.002 C 
ATOM     16  C   UNL     1      36.271 -21.628 -19.161  0.00  0.00    +0.007 C 
ATOM     17  C   UNL     1      32.484 -21.426 -19.943  0.00  0.00    +0.035 C 
ENDBRANCH   3  10
ENDBRANCH   1   2
BRANCH   1  18
ATOM     18  C   UNL     1      33.537 -15.115 -24.375  0.00  0.00    -0.019 C 
BRANCH  18  19
ATOM     19  C   UNL     1      33.091 -13.889 -25.170  0.00  0.00    +0.045 C 
BRANCH  19  20
ATOM     20  C   UNL     1      33.904 -12.655 -24.801  0.00  0.00    +0.205 C 
BRANCH  20  21
ATOM     21  O   UNL     1      33.317 -12.009 -23.679  0.00  0.00    -0.475 OA
BRANCH  21  24
ATOM     22  O   UNL     1      30.446  -5.684 -22.140  0.00  0.00    -0.270 OA
ATOM     23  N   UNL     1      31.359  -7.739 -22.634  0.00  0.00    -0.280 N 
ATOM     24  C   UNL     1      33.406 -10.642 -23.636  0.00  0.00    +0.140 C 
ATOM     25  C   UNL     1      32.334  -9.899 -23.158  0.00  0.00    +0.052 C 
ATOM     26  C   UNL     1      32.435  -8.506 -23.116  0.00  0.00    +0.054 C 
ATOM     27  C   UNL     1      34.570 -10.016 -24.072  0.00  0.00    +0.037 C 
ATOM     28  C   UNL     1      33.599  -7.862 -23.551  0.00  0.00    +0.014 C 
ATOM     29  C   UNL     1      34.669  -8.623 -24.030  0.00  0.00    +0.004 C 
ATOM     30  C   UNL     1      33.664  -6.404 -23.491  0.00  0.00    +0.006 C 
ATOM     31  C   UNL     1      31.382  -6.360 -22.561  0.00  0.00    +0.250 C 
ATOM     32  C   UNL     1      32.628  -5.693 -23.029  0.00  0.00    +0.058 C 
ATOM     33  H   UNL     1      30.548  -8.209 -22.333  0.00  0.00    +0.155 HD
ENDBRANCH  21  24
ENDBRANCH  20  21
ENDBRANCH  19  20
ENDBRANCH  18  19
ENDBRANCH   1  18
TORSDOF 7
ENDMDL
