MODEL 1
REMARK VINA RESULT:     -10.0      0.000      0.000
REMARK  Name = 9931954
REMARK  3 active torsions:
REMARK  status: ('A' for Active; 'I' for Inactive)
REMARK    1  A    between atoms: C_8  and  C_18
REMARK    2  A    between atoms: C_21  and  C_24
REMARK    3  A    between atoms: C_24  and  N_25
REMARK                            x       y       z     vdW  Elec       q    Type
REMARK                         _______ _______ _______ _____ _____    ______ ____
ROOT
ATOM      1  F   UNL     1      34.522  -6.460 -23.956  0.00  0.00    -0.204 F 
ATOM      2  O   UNL     1      31.983  -8.279 -20.108  0.00  0.00    -0.270 OA
ATOM      3  N   UNL     1      34.371 -11.290 -24.468  0.00  0.00    -0.353 N 
ATOM      4  N   UNL     1      31.120 -10.299 -20.694  0.00  0.00    -0.301 N 
ATOM      5  C   UNL     1      32.953 -11.644 -22.793  0.00  0.00    -0.003 A 
ATOM      6  C   UNL     1      33.212 -10.241 -22.870  0.00  0.00    +0.018 A 
ATOM      7  C   UNL     1      32.016 -12.301 -21.844  0.00  0.00    +0.049 C 
ATOM      8  C   UNL     1      33.691 -12.258 -23.782  0.00  0.00    +0.053 A 
ATOM      9  C   UNL     1      34.089 -10.051 -23.943  0.00  0.00    +0.059 A 
ATOM     10  C   UNL     1      32.782  -9.113 -22.135  0.00  0.00    +0.057 C 
ATOM     11  C   UNL     1      30.807 -11.416 -21.573  0.00  0.00    +0.094 C 
ATOM     12  C   UNL     1      31.933  -9.205 -20.921  0.00  0.00    +0.246 C 
ATOM     13  C   UNL     1      34.549  -8.791 -24.338  0.00  0.00    +0.047 C 
ATOM     14  C   UNL     1      33.245  -7.840 -22.528  0.00  0.00    +0.034 C 
ATOM     15  C   UNL     1      34.106  -7.686 -23.612  0.00  0.00    +0.142 C 
ATOM     16  H   UNL     1      34.973 -11.457 -25.228  0.00  0.00    +0.166 HD
ATOM     17  H   UNL     1      30.692 -10.328 -19.808  0.00  0.00    +0.150 HD
ENDROOT
BRANCH   8  18
ATOM     18  C   UNL     1      33.804 -13.651 -24.147  0.00  0.00    +0.015 C 
ATOM     19  C   UNL     1      34.441 -14.545 -23.288  0.00  0.00    +0.001 C 
ATOM     20  C   UNL     1      33.275 -14.099 -25.357  0.00  0.00    +0.001 C 
ATOM     21  C   UNL     1      34.021 -16.340 -24.850  0.00  0.00    -0.044 C 
ATOM     22  C   UNL     1      34.549 -15.890 -23.640  0.00  0.00    -0.006 C 
ATOM     23  C   UNL     1      33.384 -15.444 -25.708  0.00  0.00    -0.006 C 
BRANCH  21  24
ATOM     24  C   UNL     1      34.137 -17.778 -25.226  0.00  0.00    -0.054 C 
BRANCH  24  25
ATOM     25  N   UNL     1      33.742 -18.658 -24.155  0.00  0.00    +0.385 N 
ATOM     26  C   UNL     1      34.879 -19.416 -23.636  0.00  0.00    -0.105 C 
ATOM     27  H   UNL     1      33.040 -19.311 -24.505  0.00  0.00    -0.084 HD
ATOM     28  H   UNL     1      33.364 -18.090 -23.397  0.00  0.00    -0.084 HD
ENDBRANCH  24  25
ENDBRANCH  21  24
ENDBRANCH   8  18
TORSDOF 3
ENDMDL
MODEL 2
REMARK VINA RESULT:      -9.4      9.509     13.589
REMARK  Name = 9931954
REMARK  3 active torsions:
REMARK  status: ('A' for Active; 'I' for Inactive)
REMARK    1  A    between atoms: C_8  and  C_18
REMARK    2  A    between atoms: C_21  and  C_24
REMARK    3  A    between atoms: C_24  and  N_25
REMARK                            x       y       z     vdW  Elec       q    Type
REMARK                         _______ _______ _______ _____ _____    ______ ____
ROOT
ATOM      1  F   UNL     1      36.485 -24.978 -12.451  0.00  0.00    -0.204 F 
ATOM      2  O   UNL     1      31.792 -25.852 -13.785  0.00  0.00    -0.270 OA
ATOM      3  N   UNL     1      35.766 -22.809 -16.740  0.00  0.00    -0.353 N 
ATOM      4  N   UNL     1      31.129 -24.223 -15.225  0.00  0.00    -0.301 N 
ATOM      5  C   UNL     1      33.574 -23.171 -16.804  0.00  0.00    -0.003 A 
ATOM      6  C   UNL     1      34.087 -23.749 -15.602  0.00  0.00    +0.018 A 
ATOM      7  C   UNL     1      32.144 -23.142 -17.209  0.00  0.00    +0.049 C 
ATOM      8  C   UNL     1      34.636 -22.613 -17.483  0.00  0.00    +0.053 A 
ATOM      9  C   UNL     1      35.461 -23.487 -15.583  0.00  0.00    +0.059 A 
ATOM     10  C   UNL     1      33.516 -24.465 -14.525  0.00  0.00    +0.057 C 
ATOM     11  C   UNL     1      31.237 -22.992 -15.994  0.00  0.00    +0.094 C 
ATOM     12  C   UNL     1      32.093 -24.884 -14.487  0.00  0.00    +0.246 C 
ATOM     13  C   UNL     1      36.299 -23.885 -14.536  0.00  0.00    +0.047 C 
ATOM     14  C   UNL     1      34.357 -24.870 -13.468  0.00  0.00    +0.034 C 
ATOM     15  C   UNL     1      35.719 -24.578 -13.475  0.00  0.00    +0.142 C 
ATOM     16  H   UNL     1      36.667 -22.507 -16.995  0.00  0.00    +0.166 HD
ATOM     17  H   UNL     1      30.241 -24.646 -15.232  0.00  0.00    +0.150 HD
ENDROOT
BRANCH   8  18
ATOM     18  C   UNL     1      34.683 -21.909 -18.744  0.00  0.00    +0.015 C 
ATOM     19  C   UNL     1      35.913 -21.598 -19.321  0.00  0.00    +0.001 C 
ATOM     20  C   UNL     1      33.498 -21.543 -19.381  0.00  0.00    +0.001 C 
ATOM     21  C   UNL     1      34.773 -20.552 -21.176  0.00  0.00    -0.044 C 
ATOM     22  C   UNL     1      35.958 -20.919 -20.538  0.00  0.00    -0.006 C 
ATOM     23  C   UNL     1      33.544 -20.864 -20.598  0.00  0.00    -0.006 C 
BRANCH  21  24
ATOM     24  C   UNL     1      34.822 -19.826 -22.478  0.00  0.00    -0.054 C 
BRANCH  24  25
ATOM     25  N   UNL     1      35.715 -18.695 -22.441  0.00  0.00    +0.385 N 
ATOM     26  C   UNL     1      35.210 -17.586 -23.250  0.00  0.00    -0.105 C 
ATOM     27  H   UNL     1      36.626 -18.981 -22.802  0.00  0.00    -0.084 HD
ATOM     28  H   UNL     1      35.790 -18.378 -21.475  0.00  0.00    -0.084 HD
ENDBRANCH  24  25
ENDBRANCH  21  24
ENDBRANCH   8  18
TORSDOF 3
ENDMDL
MODEL 3
REMARK VINA RESULT:      -9.3      1.878      3.151
REMARK  Name = 9931954
REMARK  3 active torsions:
REMARK  status: ('A' for Active; 'I' for Inactive)
REMARK    1  A    between atoms: C_8  and  C_18
REMARK    2  A    between atoms: C_21  and  C_24
REMARK    3  A    between atoms: C_24  and  N_25
REMARK                            x       y       z     vdW  Elec       q    Type
REMARK                         _______ _______ _______ _____ _____    ______ ____
ROOT
ATOM      1  F   UNL     1      30.850  -9.181 -19.275  0.00  0.00    -0.204 F 
ATOM      2  O   UNL     1      32.781  -7.239 -23.406  0.00  0.00    -0.270 OA
ATOM      3  N   UNL     1      32.438 -12.871 -22.011  0.00  0.00    -0.353 N 
ATOM      4  N   UNL     1      34.279  -8.712 -24.273  0.00  0.00    -0.301 N 
ATOM      5  C   UNL     1      33.450 -11.599 -23.528  0.00  0.00    -0.003 A 
ATOM      6  C   UNL     1      32.842 -10.741 -22.560  0.00  0.00    +0.018 A 
ATOM      7  C   UNL     1      34.272 -11.154 -24.683  0.00  0.00    +0.049 C 
ATOM      8  C   UNL     1      33.170 -12.899 -23.165  0.00  0.00    +0.053 A 
ATOM      9  C   UNL     1      32.233 -11.570 -21.612  0.00  0.00    +0.059 A 
ATOM     10  C   UNL     1      32.756  -9.340 -22.393  0.00  0.00    +0.057 C 
ATOM     11  C   UNL     1      35.090  -9.920 -24.327  0.00  0.00    +0.094 C 
ATOM     12  C   UNL     1      33.277  -8.367 -23.385  0.00  0.00    +0.246 C 
ATOM     13  C   UNL     1      31.555 -11.078 -20.492  0.00  0.00    +0.047 C 
ATOM     14  C   UNL     1      32.072  -8.839 -21.267  0.00  0.00    +0.034 C 
ATOM     15  C   UNL     1      31.490  -9.695 -20.334  0.00  0.00    +0.142 C 
ATOM     16  H   UNL     1      32.106 -13.665 -21.534  0.00  0.00    +0.166 HD
ATOM     17  H   UNL     1      34.472  -8.045 -24.969  0.00  0.00    +0.150 HD
ENDROOT
BRANCH   8  18
ATOM     18  C   UNL     1      33.535 -14.151 -23.788  0.00  0.00    +0.015 C 
ATOM     19  C   UNL     1      33.012 -14.484 -25.036  0.00  0.00    +0.001 C 
ATOM     20  C   UNL     1      34.409 -15.021 -23.139  0.00  0.00    +0.001 C 
ATOM     21  C   UNL     1      34.239 -16.565 -24.989  0.00  0.00    -0.044 C 
ATOM     22  C   UNL     1      33.364 -15.692 -25.637  0.00  0.00    -0.006 C 
ATOM     23  C   UNL     1      34.761 -16.229 -23.741  0.00  0.00    -0.006 C 
BRANCH  21  24
ATOM     24  C   UNL     1      34.616 -17.856 -25.632  0.00  0.00    -0.054 C 
BRANCH  24  25
ATOM     25  N   UNL     1      33.974 -18.986 -25.009  0.00  0.00    +0.385 N 
ATOM     26  C   UNL     1      34.728 -19.459 -23.849  0.00  0.00    -0.105 C 
ATOM     27  H   UNL     1      33.904 -19.744 -25.689  0.00  0.00    -0.084 HD
ATOM     28  H   UNL     1      33.050 -18.695 -24.692  0.00  0.00    -0.084 HD
ENDBRANCH  24  25
ENDBRANCH  21  24
ENDBRANCH   8  18
TORSDOF 3
ENDMDL
MODEL 4
REMARK VINA RESULT:      -9.3      9.381     13.491
REMARK  Name = 9931954
REMARK  3 active torsions:
REMARK  status: ('A' for Active; 'I' for Inactive)
REMARK    1  A    between atoms: C_8  and  C_18
REMARK    2  A    between atoms: C_21  and  C_24
REMARK    3  A    between atoms: C_24  and  N_25
REMARK                            x       y       z     vdW  Elec       q    Type
REMARK                         _______ _______ _______ _____ _____    ______ ____
ROOT
ATOM      1  F   UNL     1      36.948 -24.718 -12.618  0.00  0.00    -0.204 F 
ATOM      2  O   UNL     1      32.263 -25.832 -13.789  0.00  0.00    -0.270 OA
ATOM      3  N   UNL     1      35.986 -22.634 -16.901  0.00  0.00    -0.353 N 
ATOM      4  N   UNL     1      31.475 -24.253 -15.222  0.00  0.00    -0.301 N 
ATOM      5  C   UNL     1      33.813 -23.102 -16.890  0.00  0.00    -0.003 A 
ATOM      6  C   UNL     1      34.392 -23.641 -15.700  0.00  0.00    +0.018 A 
ATOM      7  C   UNL     1      32.371 -23.147 -17.248  0.00  0.00    +0.049 C 
ATOM      8  C   UNL     1      34.825 -22.501 -17.609  0.00  0.00    +0.053 A 
ATOM      9  C   UNL     1      35.752 -23.313 -15.729  0.00  0.00    +0.059 A 
ATOM     10  C   UNL     1      33.892 -24.372 -14.598  0.00  0.00    +0.057 C 
ATOM     11  C   UNL     1      31.498 -23.027 -16.006  0.00  0.00    +0.094 C 
ATOM     12  C   UNL     1      32.493 -24.858 -14.509  0.00  0.00    +0.246 C 
ATOM     13  C   UNL     1      36.641 -23.659 -14.706  0.00  0.00    +0.047 C 
ATOM     14  C   UNL     1      34.785 -24.724 -13.566  0.00  0.00    +0.034 C 
ATOM     15  C   UNL     1      36.131 -24.367 -13.620  0.00  0.00    +0.142 C 
ATOM     16  H   UNL     1      36.863 -22.292 -17.189  0.00  0.00    +0.166 HD
ATOM     17  H   UNL     1      30.609 -24.718 -15.196  0.00  0.00    +0.150 HD
ENDROOT
BRANCH   8  18
ATOM     18  C   UNL     1      34.797 -21.810 -18.878  0.00  0.00    +0.015 C 
ATOM     19  C   UNL     1      33.576 -21.448 -19.445  0.00  0.00    +0.001 C 
ATOM     20  C   UNL     1      35.990 -21.507 -19.531  0.00  0.00    +0.001 C 
ATOM     21  C   UNL     1      34.743 -20.477 -21.325  0.00  0.00    -0.044 C 
ATOM     22  C   UNL     1      33.549 -20.781 -20.670  0.00  0.00    -0.006 C 
ATOM     23  C   UNL     1      35.962 -20.840 -20.756  0.00  0.00    -0.006 C 
BRANCH  21  24
ATOM     24  C   UNL     1      34.714 -19.764 -22.634  0.00  0.00    -0.054 C 
BRANCH  24  25
ATOM     25  N   UNL     1      35.589 -18.619 -22.654  0.00  0.00    +0.385 N 
ATOM     26  C   UNL     1      35.086 -17.575 -23.545  0.00  0.00    -0.105 C 
ATOM     27  H   UNL     1      36.512 -18.913 -22.975  0.00  0.00    -0.084 HD
ATOM     28  H   UNL     1      35.638 -18.237 -21.709  0.00  0.00    -0.084 HD
ENDBRANCH  24  25
ENDBRANCH  21  24
ENDBRANCH   8  18
TORSDOF 3
ENDMDL
MODEL 5
REMARK VINA RESULT:      -8.9      3.820      7.882
REMARK  Name = 9931954
REMARK  3 active torsions:
REMARK  status: ('A' for Active; 'I' for Inactive)
REMARK    1  A    between atoms: C_8  and  C_18
REMARK    2  A    between atoms: C_21  and  C_24
REMARK    3  A    between atoms: C_24  and  N_25
REMARK                            x       y       z     vdW  Elec       q    Type
REMARK                         _______ _______ _______ _____ _____    ______ ____
ROOT
ATOM      1  F   UNL     1      35.908 -18.058 -21.033  0.00  0.00    -0.204 F 
ATOM      2  O   UNL     1      35.181 -17.565 -25.911  0.00  0.00    -0.270 OA
ATOM      3  N   UNL     1      34.062 -13.626 -21.787  0.00  0.00    -0.353 N 
ATOM      4  N   UNL     1      33.574 -15.993 -26.253  0.00  0.00    -0.301 N 
ATOM      5  C   UNL     1      33.624 -13.935 -23.944  0.00  0.00    -0.003 A 
ATOM      6  C   UNL     1      34.225 -15.127 -23.435  0.00  0.00    +0.018 A 
ATOM      7  C   UNL     1      33.128 -13.739 -25.332  0.00  0.00    +0.049 C 
ATOM      8  C   UNL     1      33.551 -13.030 -22.906  0.00  0.00    +0.053 A 
ATOM      9  C   UNL     1      34.469 -14.907 -22.076  0.00  0.00    +0.059 A 
ATOM     10  C   UNL     1      34.579 -16.375 -23.997  0.00  0.00    +0.057 C 
ATOM     11  C   UNL     1      32.545 -15.031 -25.889  0.00  0.00    +0.094 C 
ATOM     12  C   UNL     1      34.458 -16.682 -25.444  0.00  0.00    +0.246 C 
ATOM     13  C   UNL     1      35.033 -15.874 -21.236  0.00  0.00    +0.047 C 
ATOM     14  C   UNL     1      35.150 -17.351 -23.156  0.00  0.00    +0.034 C 
ATOM     15  C   UNL     1      35.365 -17.104 -21.801  0.00  0.00    +0.142 C 
ATOM     16  H   UNL     1      34.128 -13.200 -20.902  0.00  0.00    +0.166 HD
ATOM     17  H   UNL     1      33.652 -16.181 -27.216  0.00  0.00    +0.150 HD
ENDROOT
BRANCH   8  18
ATOM     18  C   UNL     1      33.039 -11.680 -22.867  0.00  0.00    +0.015 C 
ATOM     19  C   UNL     1      33.633 -10.689 -23.647  0.00  0.00    +0.001 C 
ATOM     20  C   UNL     1      31.953 -11.371 -22.049  0.00  0.00    +0.001 C 
ATOM     21  C   UNL     1      32.052  -9.075 -22.791  0.00  0.00    -0.044 C 
ATOM     22  C   UNL     1      33.138  -9.385 -23.609  0.00  0.00    -0.006 C 
ATOM     23  C   UNL     1      31.460 -10.067 -22.012  0.00  0.00    -0.006 C 
BRANCH  21  24
ATOM     24  C   UNL     1      31.524  -7.681 -22.751  0.00  0.00    -0.054 C 
BRANCH  24  25
ATOM     25  N   UNL     1      32.437  -6.767 -22.113  0.00  0.00    +0.385 N 
ATOM     26  C   UNL     1      32.230  -6.725 -20.666  0.00  0.00    -0.105 C 
ATOM     27  H   UNL     1      32.292  -5.832 -22.495  0.00  0.00    -0.084 HD
ATOM     28  H   UNL     1      33.388  -7.089 -22.290  0.00  0.00    -0.084 HD
ENDBRANCH  24  25
ENDBRANCH  21  24
ENDBRANCH   8  18
TORSDOF 3
ENDMDL
MODEL 6
REMARK VINA RESULT:      -8.9      6.724     10.745
REMARK  Name = 9931954
REMARK  3 active torsions:
REMARK  status: ('A' for Active; 'I' for Inactive)
REMARK    1  A    between atoms: C_8  and  C_18
REMARK    2  A    between atoms: C_21  and  C_24
REMARK    3  A    between atoms: C_24  and  N_25
REMARK                            x       y       z     vdW  Elec       q    Type
REMARK                         _______ _______ _______ _____ _____    ______ ____
ROOT
ATOM      1  F   UNL     1      38.085 -22.639 -16.385  0.00  0.00    -0.204 F 
ATOM      2  O   UNL     1      33.534 -24.232 -17.531  0.00  0.00    -0.270 OA
ATOM      3  N   UNL     1      36.597 -20.117 -20.262  0.00  0.00    -0.353 N 
ATOM      4  N   UNL     1      32.455 -22.592 -18.676  0.00  0.00    -0.301 N 
ATOM      5  C   UNL     1      34.512 -20.888 -20.239  0.00  0.00    -0.003 A 
ATOM      6  C   UNL     1      35.229 -21.506 -19.167  0.00  0.00    +0.018 A 
ATOM      7  C   UNL     1      33.071 -21.087 -20.544  0.00  0.00    +0.049 C 
ATOM      8  C   UNL     1      35.388 -20.051 -20.896  0.00  0.00    +0.053 A 
ATOM      9  C   UNL     1      36.527 -20.985 -19.198  0.00  0.00    +0.059 A 
ATOM     10  C   UNL     1      34.899 -22.452 -18.171  0.00  0.00    +0.057 C 
ATOM     11  C   UNL     1      32.265 -21.275 -19.266  0.00  0.00    +0.094 C 
ATOM     12  C   UNL     1      33.586 -23.142 -18.103  0.00  0.00    +0.246 C 
ATOM     13  C   UNL     1      37.514 -21.344 -18.274  0.00  0.00    +0.047 C 
ATOM     14  C   UNL     1      35.891 -22.818 -17.239  0.00  0.00    +0.034 C 
ATOM     15  C   UNL     1      37.170 -22.268 -17.289  0.00  0.00    +0.142 C 
ATOM     16  H   UNL     1      37.400 -19.615 -20.528  0.00  0.00    +0.166 HD
ATOM     17  H   UNL     1      31.663 -23.176 -18.688  0.00  0.00    +0.150 HD
ENDROOT
BRANCH   8  18
ATOM     18  C   UNL     1      35.191 -19.195 -22.044  0.00  0.00    +0.015 C 
ATOM     19  C   UNL     1      35.497 -17.838 -21.959  0.00  0.00    +0.001 C 
ATOM     20  C   UNL     1      34.695 -19.729 -23.233  0.00  0.00    +0.001 C 
ATOM     21  C   UNL     1      34.811 -17.544 -24.257  0.00  0.00    -0.044 C 
ATOM     22  C   UNL     1      35.307 -17.012 -23.066  0.00  0.00    -0.006 C 
ATOM     23  C   UNL     1      34.506 -18.901 -24.340  0.00  0.00    -0.006 C 
BRANCH  21  24
ATOM     24  C   UNL     1      34.608 -16.660 -25.440  0.00  0.00    -0.054 C 
BRANCH  24  25
ATOM     25  N   UNL     1      33.248 -16.193 -25.549  0.00  0.00    +0.385 N 
ATOM     26  C   UNL     1      33.177 -14.734 -25.501  0.00  0.00    -0.105 C 
ATOM     27  H   UNL     1      32.704 -16.577 -24.776  0.00  0.00    -0.084 HD
ATOM     28  H   UNL     1      32.875 -16.503 -26.446  0.00  0.00    -0.084 HD
ENDBRANCH  24  25
ENDBRANCH  21  24
ENDBRANCH   8  18
TORSDOF 3
ENDMDL
MODEL 7
REMARK VINA RESULT:      -8.6      3.718      6.216
REMARK  Name = 9931954
REMARK  3 active torsions:
REMARK  status: ('A' for Active; 'I' for Inactive)
REMARK    1  A    between atoms: C_8  and  C_18
REMARK    2  A    between atoms: C_21  and  C_24
REMARK    3  A    between atoms: C_24  and  N_25
REMARK                            x       y       z     vdW  Elec       q    Type
REMARK                         _______ _______ _______ _____ _____    ______ ____
ROOT
ATOM      1  F   UNL     1      33.134 -14.561 -27.490  0.00  0.00    -0.204 F 
ATOM      2  O   UNL     1      33.883 -11.896 -23.378  0.00  0.00    -0.270 OA
ATOM      3  N   UNL     1      34.759 -17.601 -24.064  0.00  0.00    -0.353 N 
ATOM      4  N   UNL     1      33.768 -13.283 -21.580  0.00  0.00    -0.301 N 
ATOM      5  C   UNL     1      34.666 -16.128 -22.402  0.00  0.00    -0.003 A 
ATOM      6  C   UNL     1      34.245 -15.475 -23.601  0.00  0.00    +0.018 A 
ATOM      7  C   UNL     1      34.701 -15.514 -21.049  0.00  0.00    +0.049 C 
ATOM      8  C   UNL     1      34.986 -17.428 -22.727  0.00  0.00    +0.053 A 
ATOM      9  C   UNL     1      34.296 -16.431 -24.620  0.00  0.00    +0.059 A 
ATOM     10  C   UNL     1      33.819 -14.165 -23.919  0.00  0.00    +0.057 C 
ATOM     11  C   UNL     1      33.551 -14.532 -20.867  0.00  0.00    +0.094 C 
ATOM     12  C   UNL     1      33.820 -13.047 -22.942  0.00  0.00    +0.246 C 
ATOM     13  C   UNL     1      33.927 -16.158 -25.941  0.00  0.00    +0.047 C 
ATOM     14  C   UNL     1      33.448 -13.884 -25.249  0.00  0.00    +0.034 C 
ATOM     15  C   UNL     1      33.496 -14.866 -26.237  0.00  0.00    +0.142 C 
ATOM     16  H   UNL     1      34.906 -18.440 -24.557  0.00  0.00    +0.166 HD
ATOM     17  H   UNL     1      33.897 -12.490 -21.012  0.00  0.00    +0.150 HD
ENDROOT
BRANCH   8  18
ATOM     18  C   UNL     1      35.466 -18.515 -21.904  0.00  0.00    +0.015 C 
ATOM     19  C   UNL     1      36.823 -18.611 -21.602  0.00  0.00    +0.001 C 
ATOM     20  C   UNL     1      34.570 -19.465 -21.415  0.00  0.00    +0.001 C 
ATOM     21  C   UNL     1      36.390 -20.611 -20.317  0.00  0.00    -0.044 C 
ATOM     22  C   UNL     1      37.286 -19.660 -20.807  0.00  0.00    -0.006 C 
ATOM     23  C   UNL     1      35.034 -20.513 -20.620  0.00  0.00    -0.006 C 
BRANCH  21  24
ATOM     24  C   UNL     1      36.885 -21.732 -19.468  0.00  0.00    -0.054 C 
BRANCH  24  25
ATOM     25  N   UNL     1      36.115 -21.886 -18.259  0.00  0.00    +0.385 N 
ATOM     26  C   UNL     1      36.978 -21.996 -17.083  0.00  0.00    -0.105 C 
ATOM     27  H   UNL     1      35.547 -22.729 -18.333  0.00  0.00    -0.084 HD
ATOM     28  H   UNL     1      35.527 -21.060 -18.148  0.00  0.00    -0.084 HD
ENDBRANCH  24  25
ENDBRANCH  21  24
ENDBRANCH   8  18
TORSDOF 3
ENDMDL
MODEL 8
REMARK VINA RESULT:      -8.5      3.613      8.196
REMARK  Name = 9931954
REMARK  3 active torsions:
REMARK  status: ('A' for Active; 'I' for Inactive)
REMARK    1  A    between atoms: C_8  and  C_18
REMARK    2  A    between atoms: C_21  and  C_24
REMARK    3  A    between atoms: C_24  and  N_25
REMARK                            x       y       z     vdW  Elec       q    Type
REMARK                         _______ _______ _______ _____ _____    ______ ____
ROOT
ATOM      1  F   UNL     1      31.885 -14.482 -19.742  0.00  0.00    -0.204 F 
ATOM      2  O   UNL     1      34.596 -14.935 -23.866  0.00  0.00    -0.270 OA
ATOM      3  N   UNL     1      32.121 -10.093 -21.814  0.00  0.00    -0.353 N 
ATOM      4  N   UNL     1      34.034 -13.258 -25.295  0.00  0.00    -0.301 N 
ATOM      5  C   UNL     1      33.105 -10.786 -23.683  0.00  0.00    -0.003 A 
ATOM      6  C   UNL     1      32.922 -11.917 -22.830  0.00  0.00    +0.018 A 
ATOM      7  C   UNL     1      33.680 -10.819 -25.053  0.00  0.00    +0.049 C 
ATOM      8  C   UNL     1      32.613  -9.681 -23.021  0.00  0.00    +0.053 A 
ATOM      9  C   UNL     1      32.284 -11.452 -21.675  0.00  0.00    +0.059 A 
ATOM     10  C   UNL     1      33.230 -13.293 -22.929  0.00  0.00    +0.057 C 
ATOM     11  C   UNL     1      33.291 -12.103 -25.775  0.00  0.00    +0.094 C 
ATOM     12  C   UNL     1      33.990 -13.879 -24.061  0.00  0.00    +0.246 C 
ATOM     13  C   UNL     1      31.919 -12.289 -20.615  0.00  0.00    +0.047 C 
ATOM     14  C   UNL     1      32.865 -14.140 -21.863  0.00  0.00    +0.034 C 
ATOM     15  C   UNL     1      32.217 -13.645 -20.733  0.00  0.00    +0.142 C 
ATOM     16  H   UNL     1      31.710  -9.503 -21.143  0.00  0.00    +0.166 HD
ATOM     17  H   UNL     1      34.660 -13.655 -25.942  0.00  0.00    +0.150 HD
ENDROOT
BRANCH   8  18
ATOM     18  C   UNL     1      32.550  -8.294 -23.420  0.00  0.00    +0.015 C 
ATOM     19  C   UNL     1      31.315  -7.696 -23.663  0.00  0.00    +0.001 C 
ATOM     20  C   UNL     1      33.725  -7.557 -23.561  0.00  0.00    +0.001 C 
ATOM     21  C   UNL     1      32.429  -5.618 -24.190  0.00  0.00    -0.044 C 
ATOM     22  C   UNL     1      31.254  -6.357 -24.048  0.00  0.00    -0.006 C 
ATOM     23  C   UNL     1      33.663  -6.218 -23.946  0.00  0.00    -0.006 C 
BRANCH  21  24
ATOM     24  C   UNL     1      32.364  -4.186 -24.601  0.00  0.00    -0.054 C 
BRANCH  24  25
ATOM     25  N   UNL     1      31.175  -3.531 -24.118  0.00  0.00    +0.385 N 
ATOM     26  C   UNL     1      31.500  -2.355 -23.313  0.00  0.00    -0.105 C 
ATOM     27  H   UNL     1      30.643  -4.188 -23.546  0.00  0.00    -0.084 HD
ATOM     28  H   UNL     1      30.629  -3.225 -24.923  0.00  0.00    -0.084 HD
ENDBRANCH  24  25
ENDBRANCH  21  24
ENDBRANCH   8  18
TORSDOF 3
ENDMDL
MODEL 9
REMARK VINA RESULT:      -8.4      4.028      7.959
REMARK  Name = 9931954
REMARK  3 active torsions:
REMARK  status: ('A' for Active; 'I' for Inactive)
REMARK    1  A    between atoms: C_8  and  C_18
REMARK    2  A    between atoms: C_21  and  C_24
REMARK    3  A    between atoms: C_24  and  N_25
REMARK                            x       y       z     vdW  Elec       q    Type
REMARK                         _______ _______ _______ _____ _____    ______ ____
ROOT
ATOM      1  F   UNL     1      32.279 -13.515 -22.174  0.00  0.00    -0.204 F 
ATOM      2  O   UNL     1      30.804 -10.137 -18.860  0.00  0.00    -0.270 OA
ATOM      3  N   UNL     1      33.049  -9.132 -24.126  0.00  0.00    -0.353 N 
ATOM      4  N   UNL     1      31.900  -8.188 -19.270  0.00  0.00    -0.301 N 
ATOM      5  C   UNL     1      32.569  -7.984 -22.284  0.00  0.00    -0.003 A 
ATOM      6  C   UNL     1      32.398  -9.374 -22.001  0.00  0.00    +0.018 A 
ATOM      7  C   UNL     1      32.401  -6.875 -21.309  0.00  0.00    +0.049 C 
ATOM      8  C   UNL     1      32.957  -7.873 -23.602  0.00  0.00    +0.053 A 
ATOM      9  C   UNL     1      32.726 -10.067 -23.171  0.00  0.00    +0.059 A 
ATOM     10  C   UNL     1      32.002 -10.111 -20.862  0.00  0.00    +0.057 C 
ATOM     11  C   UNL     1      32.854  -7.300 -19.918  0.00  0.00    +0.094 C 
ATOM     12  C   UNL     1      31.538  -9.480 -19.602  0.00  0.00    +0.246 C 
ATOM     13  C   UNL     1      32.699 -11.462 -23.264  0.00  0.00    +0.047 C 
ATOM     14  C   UNL     1      31.971 -11.518 -20.951  0.00  0.00    +0.034 C 
ATOM     15  C   UNL     1      32.319 -12.176 -22.128  0.00  0.00    +0.142 C 
ATOM     16  H   UNL     1      33.309  -9.338 -25.052  0.00  0.00    +0.166 HD
ATOM     17  H   UNL     1      31.447  -7.814 -18.480  0.00  0.00    +0.150 HD
ENDROOT
BRANCH   8  18
ATOM     18  C   UNL     1      33.260  -6.707 -24.400  0.00  0.00    +0.015 C 
ATOM     19  C   UNL     1      34.576  -6.447 -24.780  0.00  0.00    +0.001 C 
ATOM     20  C   UNL     1      32.236  -5.844 -24.788  0.00  0.00    +0.001 C 
ATOM     21  C   UNL     1      33.844  -4.458 -25.939  0.00  0.00    -0.044 C 
ATOM     22  C   UNL     1      34.868  -5.322 -25.550  0.00  0.00    -0.006 C 
ATOM     23  C   UNL     1      32.529  -4.719 -25.558  0.00  0.00    -0.006 C 
BRANCH  21  24
ATOM     24  C   UNL     1      34.157  -3.255 -26.763  0.00  0.00    -0.054 C 
BRANCH  24  25
ATOM     25  N   UNL     1      33.478  -3.269 -28.034  0.00  0.00    +0.385 N 
ATOM     26  C   UNL     1      34.209  -4.060 -29.023  0.00  0.00    -0.105 C 
ATOM     27  H   UNL     1      33.391  -2.312 -28.375  0.00  0.00    -0.084 HD
ATOM     28  H   UNL     1      32.560  -3.693 -27.902  0.00  0.00    -0.084 HD
ENDBRANCH  24  25
ENDBRANCH  21  24
ENDBRANCH   8  18
TORSDOF 3
ENDMDL
