MODEL 1
REMARK VINA RESULT:     -11.1      0.000      0.000
REMARK  Name = 5326866
REMARK  5 active torsions:
REMARK  status: ('A' for Active; 'I' for Inactive)
REMARK    1  A    between atoms: N_5  and  C_14
REMARK    2  A    between atoms: C_6  and  C_28
REMARK    3  A    between atoms: C_15  and  C_20
REMARK    4  A    between atoms: C_20  and  O_21
REMARK    5  A    between atoms: O_21  and  C_23
REMARK                            x       y       z     vdW  Elec       q    Type
REMARK                         _______ _______ _______ _____ _____    ______ ____
ROOT
ATOM      1  O   UNL     1      32.462 -13.751 -22.852  0.00  0.00    -0.252 OA
ATOM      2  N   UNL     1      31.778  -9.708 -21.879  0.00  0.00    -0.239 N 
ATOM      3  N   UNL     1      32.040 -10.978 -22.234  0.00  0.00    -0.166 NA
ATOM      4  N   UNL     1      33.518 -11.916 -23.858  0.00  0.00    -0.252 N 
ATOM      5  N   UNL     1      34.047 -14.055 -24.543  0.00  0.00    -0.268 N 
ATOM      6  C   UNL     1      32.501  -8.857 -22.594  0.00  0.00    +0.045 C 
ATOM      7  C   UNL     1      33.276  -9.495 -23.455  0.00  0.00    +0.048 C 
ATOM      8  C   UNL     1      32.955 -10.842 -23.197  0.00  0.00    +0.154 C 
ATOM      9  C   UNL     1      33.258 -13.294 -23.665  0.00  0.00    +0.309 C 
ATOM     10  H   UNL     1      31.135  -9.445 -21.181  0.00  0.00    +0.174 HD
ATOM     11  H   UNL     1      34.184 -11.695 -24.548  0.00  0.00    +0.158 HD
ATOM     12  H   UNL     1      34.642 -13.546 -25.141  0.00  0.00    +0.156 HD
ENDROOT
BRANCH   5  14
ATOM     13 CL   UNL     1      34.218 -19.934 -25.133  0.00  0.00    -0.082 Cl
ATOM     14  C   UNL     1      34.093 -15.462 -24.676  0.00  0.00    +0.051 C 
ATOM     15  C   UNL     1      34.862 -17.596 -23.891  0.00  0.00    +0.033 C 
ATOM     16  C   UNL     1      34.816 -16.207 -23.759  0.00  0.00    +0.015 C 
ATOM     17  C   UNL     1      33.416 -16.067 -25.722  0.00  0.00    +0.016 C 
ATOM     18  C   UNL     1      34.185 -18.219 -24.939  0.00  0.00    +0.057 C 
ATOM     19  C   UNL     1      33.462 -17.454 -25.854  0.00  0.00    +0.012 C 
BRANCH  15  20
ATOM     20  C   UNL     1      35.648 -18.378 -22.888  0.00  0.00    +0.233 C 
BRANCH  20  21
ATOM     21  O   UNL     1      34.883 -18.516 -21.698  0.00  0.00    -0.469 OA
BRANCH  21  23
ATOM     22  N   UNL     1      36.612 -21.122 -19.825  0.00  0.00    -0.239 NA
ATOM     23  C   UNL     1      35.083 -19.657 -20.966  0.00  0.00    +0.158 C 
ATOM     24  C   UNL     1      34.016 -20.474 -20.636  0.00  0.00    +0.040 C 
ATOM     25  C   UNL     1      36.347 -20.011 -20.548  0.00  0.00    +0.136 C 
ATOM     26  C   UNL     1      34.248 -21.627 -19.894  0.00  0.00    +0.024 C 
ATOM     27  C   UNL     1      35.552 -21.903 -19.516  0.00  0.00    +0.099 C 
ENDBRANCH  21  23
ENDBRANCH  20  21
ENDBRANCH  15  20
ENDBRANCH   5  14
BRANCH   6  28
ATOM     28  C   UNL     1      32.350  -7.337 -22.344  0.00  0.00    +0.033 C 
ATOM     29  C   UNL     1      33.435  -6.566 -23.126  0.00  0.00    +0.006 C 
ATOM     30  C   UNL     1      32.493  -7.036 -20.836  0.00  0.00    +0.006 C 
ATOM     31  C   UNL     1      30.982  -6.776 -22.791  0.00  0.00    +0.006 C 
ENDBRANCH   6  28
TORSDOF 5
ENDMDL
MODEL 2
REMARK VINA RESULT:     -10.9      3.042     11.121
REMARK  Name = 5326866
REMARK  5 active torsions:
REMARK  status: ('A' for Active; 'I' for Inactive)
REMARK    1  A    between atoms: N_5  and  C_14
REMARK    2  A    between atoms: C_6  and  C_28
REMARK    3  A    between atoms: C_15  and  C_20
REMARK    4  A    between atoms: C_20  and  O_21
REMARK    5  A    between atoms: O_21  and  C_23
REMARK                            x       y       z     vdW  Elec       q    Type
REMARK                         _______ _______ _______ _____ _____    ______ ____
ROOT
ATOM      1  O   UNL     1      34.404 -21.216 -20.017  0.00  0.00    -0.252 OA
ATOM      2  N   UNL     1      35.231 -23.506 -16.578  0.00  0.00    -0.239 N 
ATOM      3  N   UNL     1      35.027 -22.751 -17.671  0.00  0.00    -0.166 NA
ATOM      4  N   UNL     1      36.426 -21.203 -18.833  0.00  0.00    -0.252 N 
ATOM      5  N   UNL     1      36.188 -19.868 -20.701  0.00  0.00    -0.268 N 
ATOM      6  C   UNL     1      36.450 -23.319 -16.092  0.00  0.00    +0.045 C 
ATOM      7  C   UNL     1      37.125 -22.443 -16.819  0.00  0.00    +0.048 C 
ATOM      8  C   UNL     1      36.187 -22.103 -17.814  0.00  0.00    +0.154 C 
ATOM      9  C   UNL     1      35.549 -20.804 -19.870  0.00  0.00    +0.309 C 
ATOM     10  H   UNL     1      34.563 -24.116 -16.190  0.00  0.00    +0.174 HD
ATOM     11  H   UNL     1      37.319 -20.788 -18.840  0.00  0.00    +0.158 HD
ATOM     12  H   UNL     1      37.112 -19.634 -20.456  0.00  0.00    +0.156 HD
ENDROOT
BRANCH   5  14
ATOM     13 CL   UNL     1      33.999 -17.203 -25.501  0.00  0.00    -0.082 Cl
ATOM     14  C   UNL     1      35.667 -19.222 -21.846  0.00  0.00    +0.051 C 
ATOM     15  C   UNL     1      35.137 -17.200 -23.025  0.00  0.00    +0.033 C 
ATOM     16  C   UNL     1      35.653 -17.838 -21.896  0.00  0.00    +0.015 C 
ATOM     17  C   UNL     1      35.179 -19.987 -22.893  0.00  0.00    +0.016 C 
ATOM     18  C   UNL     1      34.643 -17.956 -24.088  0.00  0.00    +0.057 C 
ATOM     19  C   UNL     1      34.664 -19.350 -24.021  0.00  0.00    +0.012 C 
BRANCH  15  20
ATOM     20  C   UNL     1      35.134 -15.706 -23.057  0.00  0.00    +0.233 C 
BRANCH  20  21
ATOM     21  O   UNL     1      34.557 -15.213 -21.855  0.00  0.00    -0.469 OA
BRANCH  21  23
ATOM     22  N   UNL     1      33.080 -12.166 -23.203  0.00  0.00    -0.239 NA
ATOM     23  C   UNL     1      33.736 -14.121 -21.967  0.00  0.00    +0.158 C 
ATOM     24  C   UNL     1      32.775 -13.866 -21.005  0.00  0.00    +0.040 C 
ATOM     25  C   UNL     1      33.856 -13.260 -23.035  0.00  0.00    +0.136 C 
ATOM     26  C   UNL     1      31.958 -12.749 -21.143  0.00  0.00    +0.024 C 
ATOM     27  C   UNL     1      32.148 -11.938 -22.250  0.00  0.00    +0.099 C 
ENDBRANCH  21  23
ENDBRANCH  20  21
ENDBRANCH  15  20
ENDBRANCH   5  14
BRANCH   6  28
ATOM     28  C   UNL     1      36.890 -24.095 -14.828  0.00  0.00    +0.033 C 
ATOM     29  C   UNL     1      38.380 -24.485 -14.943  0.00  0.00    +0.006 C 
ATOM     30  C   UNL     1      36.037 -25.373 -14.672  0.00  0.00    +0.006 C 
ATOM     31  C   UNL     1      36.732 -23.281 -13.525  0.00  0.00    +0.006 C 
ENDBRANCH   6  28
TORSDOF 5
ENDMDL
MODEL 3
REMARK VINA RESULT:     -10.4      0.958      1.284
REMARK  Name = 5326866
REMARK  5 active torsions:
REMARK  status: ('A' for Active; 'I' for Inactive)
REMARK    1  A    between atoms: N_5  and  C_14
REMARK    2  A    between atoms: C_6  and  C_28
REMARK    3  A    between atoms: C_15  and  C_20
REMARK    4  A    between atoms: C_20  and  O_21
REMARK    5  A    between atoms: O_21  and  C_23
REMARK                            x       y       z     vdW  Elec       q    Type
REMARK                         _______ _______ _______ _____ _____    ______ ____
ROOT
ATOM      1  O   UNL     1      32.411 -12.760 -22.599  0.00  0.00    -0.252 OA
ATOM      2  N   UNL     1      31.624  -8.737 -21.625  0.00  0.00    -0.239 N 
ATOM      3  N   UNL     1      31.914  -9.999 -21.984  0.00  0.00    -0.166 NA
ATOM      4  N   UNL     1      33.297 -10.897 -23.711  0.00  0.00    -0.252 N 
ATOM      5  N   UNL     1      33.866 -13.021 -24.411  0.00  0.00    -0.268 N 
ATOM      6  C   UNL     1      32.247  -7.866 -22.406  0.00  0.00    +0.045 C 
ATOM      7  C   UNL     1      32.978  -8.483 -23.321  0.00  0.00    +0.048 C 
ATOM      8  C   UNL     1      32.741  -9.839 -23.020  0.00  0.00    +0.154 C 
ATOM      9  C   UNL     1      33.117 -12.282 -23.481  0.00  0.00    +0.309 C 
ATOM     10  H   UNL     1      31.029  -8.492 -20.879  0.00  0.00    +0.174 HD
ATOM     11  H   UNL     1      33.894 -10.658 -24.457  0.00  0.00    +0.158 HD
ATOM     12  H   UNL     1      34.386 -12.495 -25.061  0.00  0.00    +0.156 HD
ENDROOT
BRANCH   5  14
ATOM     13 CL   UNL     1      34.262 -18.895 -24.942  0.00  0.00    -0.082 Cl
ATOM     14  C   UNL     1      33.965 -14.427 -24.529  0.00  0.00    +0.051 C 
ATOM     15  C   UNL     1      34.752 -16.529 -23.681  0.00  0.00    +0.033 C 
ATOM     16  C   UNL     1      34.653 -15.142 -23.563  0.00  0.00    +0.015 C 
ATOM     17  C   UNL     1      33.374 -15.059 -25.611  0.00  0.00    +0.016 C 
ATOM     18  C   UNL     1      34.161 -17.181 -24.764  0.00  0.00    +0.057 C 
ATOM     19  C   UNL     1      33.473 -16.445 -25.728  0.00  0.00    +0.012 C 
BRANCH  15  20
ATOM     20  C   UNL     1      35.498 -17.279 -22.625  0.00  0.00    +0.233 C 
BRANCH  20  21
ATOM     21  O   UNL     1      34.695 -18.355 -22.157  0.00  0.00    -0.469 OA
BRANCH  21  23
ATOM     22  N   UNL     1      37.280 -19.974 -20.163  0.00  0.00    -0.239 NA
ATOM     23  C   UNL     1      35.302 -19.265 -21.332  0.00  0.00    +0.158 C 
ATOM     24  C   UNL     1      34.598 -20.354 -20.852  0.00  0.00    +0.040 C 
ATOM     25  C   UNL     1      36.622 -19.112 -20.971  0.00  0.00    +0.136 C 
ATOM     26  C   UNL     1      35.240 -21.263 -20.018  0.00  0.00    +0.024 C 
ATOM     27  C   UNL     1      36.570 -21.030 -19.706  0.00  0.00    +0.099 C 
ENDBRANCH  21  23
ENDBRANCH  20  21
ENDBRANCH  15  20
ENDBRANCH   5  14
BRANCH   6  28
ATOM     28  C   UNL     1      32.047  -6.350 -22.164  0.00  0.00    +0.033 C 
ATOM     29  C   UNL     1      32.504  -5.982 -20.737  0.00  0.00    +0.006 C 
ATOM     30  C   UNL     1      30.557  -5.983 -22.336  0.00  0.00    +0.006 C 
ATOM     31  C   UNL     1      32.849  -5.464 -23.142  0.00  0.00    +0.006 C 
ENDBRANCH   6  28
TORSDOF 5
ENDMDL
MODEL 4
REMARK VINA RESULT:      -9.3      7.354     11.500
REMARK  Name = 5326866
REMARK  5 active torsions:
REMARK  status: ('A' for Active; 'I' for Inactive)
REMARK    1  A    between atoms: N_5  and  C_14
REMARK    2  A    between atoms: C_6  and  C_28
REMARK    3  A    between atoms: C_15  and  C_20
REMARK    4  A    between atoms: C_20  and  O_21
REMARK    5  A    between atoms: O_21  and  C_23
REMARK                            x       y       z     vdW  Elec       q    Type
REMARK                         _______ _______ _______ _____ _____    ______ ____
ROOT
ATOM      1  O   UNL     1      35.243 -22.936 -17.388  0.00  0.00    -0.252 OA
ATOM      2  N   UNL     1      34.641 -20.437 -20.727  0.00  0.00    -0.239 N 
ATOM      3  N   UNL     1      34.894 -21.212 -19.658  0.00  0.00    -0.166 NA
ATOM      4  N   UNL     1      36.855 -21.521 -18.331  0.00  0.00    -0.252 N 
ATOM      5  N   UNL     1      37.400 -22.806 -16.494  0.00  0.00    -0.268 N 
ATOM      6  C   UNL     1      35.711 -19.733 -21.067  0.00  0.00    +0.045 C 
ATOM      7  C   UNL     1      36.728 -19.990 -20.261  0.00  0.00    +0.048 C 
ATOM      8  C   UNL     1      36.171 -20.936 -19.378  0.00  0.00    +0.154 C 
ATOM      9  C   UNL     1      36.379 -22.473 -17.399  0.00  0.00    +0.309 C 
ATOM     10  H   UNL     1      33.775 -20.397 -21.194  0.00  0.00    +0.174 HD
ATOM     11  H   UNL     1      37.792 -21.239 -18.219  0.00  0.00    +0.158 HD
ATOM     12  H   UNL     1      38.262 -22.351 -16.629  0.00  0.00    +0.156 HD
ENDROOT
BRANCH   5  14
ATOM     13 CL   UNL     1      37.198 -26.610 -11.974  0.00  0.00    -0.082 Cl
ATOM     14  C   UNL     1      37.342 -23.715 -15.411  0.00  0.00    +0.051 C 
ATOM     15  C   UNL     1      36.106 -24.740 -13.628  0.00  0.00    +0.033 C 
ATOM     16  C   UNL     1      36.162 -23.845 -14.697  0.00  0.00    +0.015 C 
ATOM     17  C   UNL     1      38.467 -24.453 -15.086  0.00  0.00    +0.016 C 
ATOM     18  C   UNL     1      37.231 -25.492 -13.289  0.00  0.00    +0.057 C 
ATOM     19  C   UNL     1      38.411 -25.348 -14.018  0.00  0.00    +0.012 C 
BRANCH  15  20
ATOM     20  C   UNL     1      34.822 -24.864 -12.873  0.00  0.00    +0.233 C 
BRANCH  20  21
ATOM     21  O   UNL     1      33.967 -23.785 -13.222  0.00  0.00    -0.469 OA
BRANCH  21  23
ATOM     22  N   UNL     1      30.912 -25.507 -14.217  0.00  0.00    -0.239 NA
ATOM     23  C   UNL     1      32.840 -24.096 -13.937  0.00  0.00    +0.158 C 
ATOM     24  C   UNL     1      32.494 -23.360 -15.056  0.00  0.00    +0.040 C 
ATOM     25  C   UNL     1      32.035 -25.147 -13.555  0.00  0.00    +0.136 C 
ATOM     26  C   UNL     1      31.346 -23.700 -15.763  0.00  0.00    +0.024 C 
ATOM     27  C   UNL     1      30.596 -24.772 -15.306  0.00  0.00    +0.099 C 
ENDBRANCH  21  23
ENDBRANCH  20  21
ENDBRANCH  15  20
ENDBRANCH   5  14
BRANCH   6  28
ATOM     28  C   UNL     1      35.634 -18.773 -22.279  0.00  0.00    +0.033 C 
ATOM     29  C   UNL     1      37.043 -18.565 -22.874  0.00  0.00    +0.006 C 
ATOM     30  C   UNL     1      35.060 -17.410 -21.833  0.00  0.00    +0.006 C 
ATOM     31  C   UNL     1      34.732 -19.296 -23.418  0.00  0.00    +0.006 C 
ENDBRANCH   6  28
TORSDOF 5
ENDMDL
MODEL 5
REMARK VINA RESULT:      -9.2      3.352      5.767
REMARK  Name = 5326866
REMARK  5 active torsions:
REMARK  status: ('A' for Active; 'I' for Inactive)
REMARK    1  A    between atoms: N_5  and  C_14
REMARK    2  A    between atoms: C_6  and  C_28
REMARK    3  A    between atoms: C_15  and  C_20
REMARK    4  A    between atoms: C_20  and  O_21
REMARK    5  A    between atoms: O_21  and  C_23
REMARK                            x       y       z     vdW  Elec       q    Type
REMARK                         _______ _______ _______ _____ _____    ______ ____
ROOT
ATOM      1  O   UNL     1      32.623  -8.281 -21.271  0.00  0.00    -0.252 OA
ATOM      2  N   UNL     1      31.998  -4.223 -22.221  0.00  0.00    -0.239 N 
ATOM      3  N   UNL     1      32.168  -5.534 -21.974  0.00  0.00    -0.166 NA
ATOM      4  N   UNL     1      31.553  -7.489 -23.199  0.00  0.00    -0.252 N 
ATOM      5  N   UNL     1      31.792  -9.761 -22.878  0.00  0.00    -0.268 N 
ATOM      6  C   UNL     1      31.366  -4.035 -23.371  0.00  0.00    +0.045 C 
ATOM      7  C   UNL     1      31.080  -5.189 -23.953  0.00  0.00    +0.048 C 
ATOM      8  C   UNL     1      31.604  -6.119 -23.034  0.00  0.00    +0.154 C 
ATOM      9  C   UNL     1      32.051  -8.492 -22.335  0.00  0.00    +0.309 C 
ATOM     10  H   UNL     1      32.303  -3.500 -21.627  0.00  0.00    +0.174 HD
ATOM     11  H   UNL     1      31.115  -7.807 -24.022  0.00  0.00    +0.158 HD
ATOM     12  H   UNL     1      31.323  -9.772 -23.744  0.00  0.00    +0.156 HD
ENDROOT
BRANCH   5  14
ATOM     13 CL   UNL     1      33.145 -15.038 -20.582  0.00  0.00    -0.082 Cl
ATOM     14  C   UNL     1      32.123 -11.025 -22.336  0.00  0.00    +0.051 C 
ATOM     15  C   UNL     1      33.354 -13.080 -22.467  0.00  0.00    +0.033 C 
ATOM     16  C   UNL     1      33.030 -11.833 -23.002  0.00  0.00    +0.015 C 
ATOM     17  C   UNL     1      31.530 -11.430 -21.151  0.00  0.00    +0.016 C 
ATOM     18  C   UNL     1      32.767 -13.502 -21.274  0.00  0.00    +0.057 C 
ATOM     19  C   UNL     1      31.854 -12.676 -20.617  0.00  0.00    +0.012 C 
BRANCH  15  20
ATOM     20  C   UNL     1      34.336 -13.934 -23.203  0.00  0.00    +0.233 C 
BRANCH  20  21
ATOM     21  O   UNL     1      33.746 -14.392 -24.412  0.00  0.00    -0.469 OA
BRANCH  21  23
ATOM     22  N   UNL     1      33.338 -17.583 -26.125  0.00  0.00    -0.239 NA
ATOM     23  C   UNL     1      33.889 -15.723 -24.703  0.00  0.00    +0.158 C 
ATOM     24  C   UNL     1      34.687 -16.532 -23.913  0.00  0.00    +0.040 C 
ATOM     25  C   UNL     1      33.241 -16.278 -25.784  0.00  0.00    +0.136 C 
ATOM     26  C   UNL     1      34.812 -17.880 -24.231  0.00  0.00    +0.024 C 
ATOM     27  C   UNL     1      34.124 -18.352 -25.337  0.00  0.00    +0.099 C 
ENDBRANCH  21  23
ENDBRANCH  20  21
ENDBRANCH  15  20
ENDBRANCH   5  14
BRANCH   6  28
ATOM     28  C   UNL     1      31.067  -2.592 -23.846  0.00  0.00    +0.033 C 
ATOM     29  C   UNL     1      30.422  -1.786 -22.698  0.00  0.00    +0.006 C 
ATOM     30  C   UNL     1      30.104  -2.626 -25.053  0.00  0.00    +0.006 C 
ATOM     31  C   UNL     1      32.328  -1.822 -24.292  0.00  0.00    +0.006 C 
ENDBRANCH   6  28
TORSDOF 5
ENDMDL
MODEL 6
REMARK VINA RESULT:      -9.0      4.102     12.175
REMARK  Name = 5326866
REMARK  5 active torsions:
REMARK  status: ('A' for Active; 'I' for Inactive)
REMARK    1  A    between atoms: N_5  and  C_14
REMARK    2  A    between atoms: C_6  and  C_28
REMARK    3  A    between atoms: C_15  and  C_20
REMARK    4  A    between atoms: C_20  and  O_21
REMARK    5  A    between atoms: O_21  and  C_23
REMARK                            x       y       z     vdW  Elec       q    Type
REMARK                         _______ _______ _______ _____ _____    ______ ____
ROOT
ATOM      1  O   UNL     1      35.037 -22.497 -18.314  0.00  0.00    -0.252 OA
ATOM      2  N   UNL     1      36.214 -24.615 -14.866  0.00  0.00    -0.239 N 
ATOM      3  N   UNL     1      35.896 -23.910 -15.966  0.00  0.00    -0.166 NA
ATOM      4  N   UNL     1      37.106 -22.287 -17.233  0.00  0.00    -0.252 N 
ATOM      5  N   UNL     1      36.670 -21.029 -19.117  0.00  0.00    -0.268 N 
ATOM      6  C   UNL     1      37.435 -24.317 -14.446  0.00  0.00    +0.045 C 
ATOM      7  C   UNL     1      38.000 -23.409 -15.227  0.00  0.00    +0.048 C 
ATOM      8  C   UNL     1      36.990 -23.175 -16.181  0.00  0.00    +0.154 C 
ATOM      9  C   UNL     1      36.151 -21.990 -18.234  0.00  0.00    +0.309 C 
ATOM     10  H   UNL     1      35.617 -25.267 -14.431  0.00  0.00    +0.174 HD
ATOM     11  H   UNL     1      37.960 -21.801 -17.294  0.00  0.00    +0.158 HD
ATOM     12  H   UNL     1      37.582 -20.713 -18.924  0.00  0.00    +0.156 HD
ENDROOT
BRANCH   5  14
ATOM     13 CL   UNL     1      34.029 -18.681 -23.856  0.00  0.00    -0.082 Cl
ATOM     14  C   UNL     1      36.044 -20.459 -20.250  0.00  0.00    +0.051 C 
ATOM     15  C   UNL     1      35.715 -18.589 -21.717  0.00  0.00    +0.033 C 
ATOM     16  C   UNL     1      36.334 -19.151 -20.600  0.00  0.00    +0.015 C 
ATOM     17  C   UNL     1      35.149 -21.221 -20.985  0.00  0.00    +0.016 C 
ATOM     18  C   UNL     1      34.813 -19.343 -22.468  0.00  0.00    +0.057 C 
ATOM     19  C   UNL     1      34.531 -20.659 -22.101  0.00  0.00    +0.012 C 
BRANCH  15  20
ATOM     20  C   UNL     1      36.046 -17.176 -22.076  0.00  0.00    +0.233 C 
BRANCH  20  21
ATOM     21  O   UNL     1      35.283 -16.295 -21.262  0.00  0.00    -0.469 OA
BRANCH  21  23
ATOM     22  N   UNL     1      32.999 -13.502 -21.777  0.00  0.00    -0.239 NA
ATOM     23  C   UNL     1      34.535 -15.347 -21.910  0.00  0.00    +0.158 C 
ATOM     24  C   UNL     1      34.544 -15.272 -23.292  0.00  0.00    +0.040 C 
ATOM     25  C   UNL     1      33.760 -14.458 -21.199  0.00  0.00    +0.136 C 
ATOM     26  C   UNL     1      33.773 -14.302 -23.923  0.00  0.00    +0.024 C 
ATOM     27  C   UNL     1      33.025 -13.448 -23.127  0.00  0.00    +0.099 C 
ENDBRANCH  21  23
ENDBRANCH  20  21
ENDBRANCH  15  20
ENDBRANCH   5  14
BRANCH   6  28
ATOM     28  C   UNL     1      37.997 -25.019 -13.187  0.00  0.00    +0.033 C 
ATOM     29  C   UNL     1      38.035 -24.026 -12.005  0.00  0.00    +0.006 C 
ATOM     30  C   UNL     1      39.425 -25.536 -13.468  0.00  0.00    +0.006 C 
ATOM     31  C   UNL     1      37.155 -26.232 -12.735  0.00  0.00    +0.006 C 
ENDBRANCH   6  28
TORSDOF 5
ENDMDL
MODEL 7
REMARK VINA RESULT:      -9.0      7.228     11.001
REMARK  Name = 5326866
REMARK  5 active torsions:
REMARK  status: ('A' for Active; 'I' for Inactive)
REMARK    1  A    between atoms: N_5  and  C_14
REMARK    2  A    between atoms: C_6  and  C_28
REMARK    3  A    between atoms: C_15  and  C_20
REMARK    4  A    between atoms: C_20  and  O_21
REMARK    5  A    between atoms: O_21  and  C_23
REMARK                            x       y       z     vdW  Elec       q    Type
REMARK                         _______ _______ _______ _____ _____    ______ ____
ROOT
ATOM      1  O   UNL     1      34.031 -22.487 -17.719  0.00  0.00    -0.252 OA
ATOM      2  N   UNL     1      35.788 -20.360 -20.905  0.00  0.00    -0.239 N 
ATOM      3  N   UNL     1      35.169 -21.024 -19.913  0.00  0.00    -0.166 NA
ATOM      4  N   UNL     1      32.860 -21.373 -19.416  0.00  0.00    -0.252 N 
ATOM      5  N   UNL     1      31.694 -22.484 -17.763  0.00  0.00    -0.268 N 
ATOM      6  C   UNL     1      34.908 -19.817 -21.734  0.00  0.00    +0.045 C 
ATOM      7  C   UNL     1      33.668 -20.080 -21.354  0.00  0.00    +0.048 C 
ATOM      8  C   UNL     1      33.875 -20.848 -20.192  0.00  0.00    +0.154 C 
ATOM      9  C   UNL     1      32.973 -22.153 -18.240  0.00  0.00    +0.309 C 
ATOM     10  H   UNL     1      36.765 -20.288 -21.002  0.00  0.00    +0.174 HD
ATOM     11  H   UNL     1      31.943 -21.181 -19.720  0.00  0.00    +0.158 HD
ATOM     12  H   UNL     1      30.935 -22.142 -18.290  0.00  0.00    +0.156 HD
ENDROOT
BRANCH   5  14
ATOM     13 CL   UNL     1      30.265 -25.678 -12.999  0.00  0.00    -0.082 Cl
ATOM     14  C   UNL     1      31.361 -23.247 -16.620  0.00  0.00    +0.051 C 
ATOM     15  C   UNL     1      32.020 -24.313 -14.574  0.00  0.00    +0.033 C 
ATOM     16  C   UNL     1      32.349 -23.559 -15.701  0.00  0.00    +0.015 C 
ATOM     17  C   UNL     1      30.053 -23.669 -16.444  0.00  0.00    +0.016 C 
ATOM     18  C   UNL     1      30.708 -24.745 -14.382  0.00  0.00    +0.057 C 
ATOM     19  C   UNL     1      29.725 -24.422 -15.318  0.00  0.00    +0.012 C 
BRANCH  15  20
ATOM     20  C   UNL     1      33.104 -24.637 -13.596  0.00  0.00    +0.233 C 
BRANCH  20  21
ATOM     21  O   UNL     1      34.365 -24.535 -14.243  0.00  0.00    -0.469 OA
BRANCH  21  23
ATOM     22  N   UNL     1      37.619 -23.152 -13.358  0.00  0.00    -0.239 NA
ATOM     23  C   UNL     1      35.423 -24.125 -13.474  0.00  0.00    +0.158 C 
ATOM     24  C   UNL     1      35.382 -24.259 -12.098  0.00  0.00    +0.040 C 
ATOM     25  C   UNL     1      36.542 -23.575 -14.058  0.00  0.00    +0.136 C 
ATOM     26  C   UNL     1      36.470 -23.836 -11.343  0.00  0.00    +0.024 C 
ATOM     27  C   UNL     1      37.554 -23.294 -12.015  0.00  0.00    +0.099 C 
ENDBRANCH  21  23
ENDBRANCH  20  21
ENDBRANCH  15  20
ENDBRANCH   5  14
BRANCH   6  28
ATOM     28  C   UNL     1      35.413 -19.004 -22.950  0.00  0.00    +0.033 C 
ATOM     29  C   UNL     1      34.962 -19.683 -24.261  0.00  0.00    +0.006 C 
ATOM     30  C   UNL     1      36.955 -18.919 -22.922  0.00  0.00    +0.006 C 
ATOM     31  C   UNL     1      34.879 -17.555 -22.981  0.00  0.00    +0.006 C 
ENDBRANCH   6  28
TORSDOF 5
ENDMDL
MODEL 8
REMARK VINA RESULT:      -8.8      3.631      5.786
REMARK  Name = 5326866
REMARK  5 active torsions:
REMARK  status: ('A' for Active; 'I' for Inactive)
REMARK    1  A    between atoms: N_5  and  C_14
REMARK    2  A    between atoms: C_6  and  C_28
REMARK    3  A    between atoms: C_15  and  C_20
REMARK    4  A    between atoms: C_20  and  O_21
REMARK    5  A    between atoms: O_21  and  C_23
REMARK                            x       y       z     vdW  Elec       q    Type
REMARK                         _______ _______ _______ _____ _____    ______ ____
ROOT
ATOM      1  O   UNL     1      33.948  -8.609 -23.571  0.00  0.00    -0.252 OA
ATOM      2  N   UNL     1      34.253  -4.879 -25.509  0.00  0.00    -0.239 N 
ATOM      3  N   UNL     1      34.092  -6.058 -24.883  0.00  0.00    -0.166 NA
ATOM      4  N   UNL     1      32.173  -7.125 -23.944  0.00  0.00    -0.252 N 
ATOM      5  N   UNL     1      31.781  -9.125 -22.862  0.00  0.00    -0.268 N 
ATOM      6  C   UNL     1      33.103  -4.226 -25.594  0.00  0.00    +0.045 C 
ATOM      7  C   UNL     1      32.120  -4.916 -25.040  0.00  0.00    +0.048 C 
ATOM      8  C   UNL     1      32.787  -6.075 -24.598  0.00  0.00    +0.154 C 
ATOM      9  C   UNL     1      32.761  -8.321 -23.468  0.00  0.00    +0.309 C 
ATOM     10  H   UNL     1      35.112  -4.546 -25.857  0.00  0.00    +0.174 HD
ATOM     11  H   UNL     1      31.206  -7.029 -23.790  0.00  0.00    +0.158 HD
ATOM     12  H   UNL     1      30.867  -8.759 -22.855  0.00  0.00    +0.156 HD
ENDROOT
BRANCH   5  14
ATOM     13 CL   UNL     1      32.449 -14.417 -20.315  0.00  0.00    -0.082 Cl
ATOM     14  C   UNL     1      31.946 -10.395 -22.261  0.00  0.00    +0.051 C 
ATOM     15  C   UNL     1      32.659 -12.681 -22.405  0.00  0.00    +0.033 C 
ATOM     16  C   UNL     1      32.498 -11.428 -22.999  0.00  0.00    +0.015 C 
ATOM     17  C   UNL     1      31.548 -10.578 -20.946  0.00  0.00    +0.016 C 
ATOM     18  C   UNL     1      32.264 -12.882 -21.082  0.00  0.00    +0.057 C 
ATOM     19  C   UNL     1      31.709 -11.830 -20.354  0.00  0.00    +0.012 C 
BRANCH  15  20
ATOM     20  C   UNL     1      33.258 -13.781 -23.221  0.00  0.00    +0.233 C 
BRANCH  20  21
ATOM     21  O   UNL     1      34.430 -14.259 -22.575  0.00  0.00    -0.469 OA
BRANCH  21  23
ATOM     22  N   UNL     1      35.583 -17.642 -21.858  0.00  0.00    -0.239 NA
ATOM     23  C   UNL     1      34.747 -15.578 -22.768  0.00  0.00    +0.158 C 
ATOM     24  C   UNL     1      34.569 -16.168 -24.006  0.00  0.00    +0.040 C 
ATOM     25  C   UNL     1      35.250 -16.337 -21.734  0.00  0.00    +0.136 C 
ATOM     26  C   UNL     1      34.901 -17.507 -24.174  0.00  0.00    +0.024 C 
ATOM     27  C   UNL     1      35.400 -18.194 -23.079  0.00  0.00    +0.099 C 
ENDBRANCH  21  23
ENDBRANCH  20  21
ENDBRANCH  15  20
ENDBRANCH   5  14
BRANCH   6  28
ATOM     28  C   UNL     1      33.067  -2.839 -26.280  0.00  0.00    +0.033 C 
ATOM     29  C   UNL     1      34.493  -2.424 -26.701  0.00  0.00    +0.006 C 
ATOM     30  C   UNL     1      32.494  -1.786 -25.306  0.00  0.00    +0.006 C 
ATOM     31  C   UNL     1      32.190  -2.808 -27.551  0.00  0.00    +0.006 C 
ENDBRANCH   6  28
TORSDOF 5
ENDMDL
MODEL 9
REMARK VINA RESULT:      -8.2      4.906      8.105
REMARK  Name = 5326866
REMARK  5 active torsions:
REMARK  status: ('A' for Active; 'I' for Inactive)
REMARK    1  A    between atoms: N_5  and  C_14
REMARK    2  A    between atoms: C_6  and  C_28
REMARK    3  A    between atoms: C_15  and  C_20
REMARK    4  A    between atoms: C_20  and  O_21
REMARK    5  A    between atoms: O_21  and  C_23
REMARK                            x       y       z     vdW  Elec       q    Type
REMARK                         _______ _______ _______ _____ _____    ______ ____
ROOT
ATOM      1  O   UNL     1      32.289  -5.846 -23.686  0.00  0.00    -0.252 OA
ATOM      2  N   UNL     1      33.566  -3.314 -26.804  0.00  0.00    -0.239 N 
ATOM      3  N   UNL     1      33.213  -4.158 -25.818  0.00  0.00    -0.166 NA
ATOM      4  N   UNL     1      34.261  -6.109 -24.926  0.00  0.00    -0.252 N 
ATOM      5  N   UNL     1      33.754  -7.616 -23.253  0.00  0.00    -0.268 N 
ATOM      6  C   UNL     1      34.718  -3.678 -27.349  0.00  0.00    +0.045 C 
ATOM      7  C   UNL     1      35.197  -4.768 -26.772  0.00  0.00    +0.048 C 
ATOM      8  C   UNL     1      34.212  -5.044 -25.803  0.00  0.00    +0.154 C 
ATOM      9  C   UNL     1      33.323  -6.461 -23.926  0.00  0.00    +0.309 C 
ATOM     10  H   UNL     1      33.040  -2.531 -27.082  0.00  0.00    +0.174 HD
ATOM     11  H   UNL     1      35.047  -6.696 -25.005  0.00  0.00    +0.158 HD
ATOM     12  H   UNL     1      34.609  -7.999 -23.558  0.00  0.00    +0.156 HD
ENDROOT
BRANCH   5  14
ATOM     13 CL   UNL     1      31.079 -10.425 -18.792  0.00  0.00    -0.082 Cl
ATOM     14  C   UNL     1      33.113  -8.296 -22.191  0.00  0.00    +0.051 C 
ATOM     15  C   UNL     1      31.963 -10.232 -21.363  0.00  0.00    +0.033 C 
ATOM     16  C   UNL     1      32.597  -9.562 -22.410  0.00  0.00    +0.015 C 
ATOM     17  C   UNL     1      33.013  -7.680 -20.954  0.00  0.00    +0.016 C 
ATOM     18  C   UNL     1      31.855  -9.626 -20.111  0.00  0.00    +0.057 C 
ATOM     19  C   UNL     1      32.380  -8.349 -19.908  0.00  0.00    +0.012 C 
BRANCH  15  20
ATOM     20  C   UNL     1      31.415 -11.598 -21.623  0.00  0.00    +0.233 C 
BRANCH  20  21
ATOM     21  O   UNL     1      32.266 -12.567 -21.026  0.00  0.00    -0.469 OA
BRANCH  21  23
ATOM     22  N   UNL     1      33.367 -14.137 -24.125  0.00  0.00    -0.239 NA
ATOM     23  C   UNL     1      32.954 -13.393 -21.876  0.00  0.00    +0.158 C 
ATOM     24  C   UNL     1      33.889 -14.285 -21.383  0.00  0.00    +0.040 C 
ATOM     25  C   UNL     1      32.725 -13.350 -23.233  0.00  0.00    +0.136 C 
ATOM     26  C   UNL     1      34.570 -15.112 -22.268  0.00  0.00    +0.024 C 
ATOM     27  C   UNL     1      34.276 -15.000 -23.618  0.00  0.00    +0.099 C 
ENDBRANCH  21  23
ENDBRANCH  20  21
ENDBRANCH  15  20
ENDBRANCH   5  14
BRANCH   6  28
ATOM     28  C   UNL     1      35.307  -2.839 -28.509  0.00  0.00    +0.033 C 
ATOM     29  C   UNL     1      34.277  -1.787 -28.971  0.00  0.00    +0.006 C 
ATOM     30  C   UNL     1      35.665  -3.761 -29.695  0.00  0.00    +0.006 C 
ATOM     31  C   UNL     1      36.593  -2.078 -28.121  0.00  0.00    +0.006 C 
ENDBRANCH   6  28
TORSDOF 5
ENDMDL
