MODEL 1
REMARK VINA RESULT:     -11.2      0.000      0.000
REMARK  Name = 44177328
REMARK  2 active torsions:
REMARK  status: ('A' for Active; 'I' for Inactive)
REMARK    1  A    between atoms: N_1  and  C_15
REMARK    2  A    between atoms: C_6  and  C_23
REMARK                            x       y       z     vdW  Elec       q    Type
REMARK                         _______ _______ _______ _____ _____    ______ ____
ROOT
ATOM      1  N   UNL     1      32.416 -22.823 -18.167  0.00  0.00    -0.286 N 
ATOM      2  N   UNL     1      33.453 -23.664 -16.212  0.00  0.00    -0.386 NA
ATOM      3  N   UNL     1      30.951 -23.747 -14.947  0.00  0.00    -0.246 NA
ATOM      4  N   UNL     1      29.941 -22.905 -16.921  0.00  0.00    -0.340 N 
ATOM      5  C   UNL     1      32.324 -23.279 -16.838  0.00  0.00    +0.214 C 
ATOM      6  C   UNL     1      33.310 -24.092 -14.942  0.00  0.00    +0.135 C 
ATOM      7  C   UNL     1      31.094 -23.320 -16.218  0.00  0.00    +0.166 C 
ATOM      8  C   UNL     1      32.080 -24.132 -14.321  0.00  0.00    +0.185 C 
ATOM      9  H   UNL     1      31.610 -23.000 -18.703  0.00  0.00    +0.155 HD
ATOM     10  H   UNL     1      29.060 -22.932 -16.483  0.00  0.00    +0.144 HD
ATOM     11  H   UNL     1      30.019 -22.588 -17.850  0.00  0.00    +0.144 HD
ENDROOT
BRANCH   1  15
ATOM     12  N   UNL     1      36.249 -20.115 -21.097  0.00  0.00    -0.312 N 
ATOM     13  C   UNL     1      34.129 -20.598 -20.598  0.00  0.00    +0.016 C 
ATOM     14  C   UNL     1      35.457 -20.878 -20.268  0.00  0.00    +0.048 C 
ATOM     15  C   UNL     1      33.441 -22.163 -18.881  0.00  0.00    +0.050 C 
ATOM     16  C   UNL     1      33.102 -21.255 -19.890  0.00  0.00    +0.016 C 
ATOM     17  C   UNL     1      35.810 -21.782 -19.261  0.00  0.00    +0.016 C 
ATOM     18  C   UNL     1      34.774 -22.422 -18.573  0.00  0.00    +0.016 C 
ATOM     19  C   UNL     1      34.153 -19.644 -21.653  0.00  0.00    +0.017 C 
ATOM     20  C   UNL     1      35.470 -19.367 -21.938  0.00  0.00    +0.062 C 
ATOM     21  H   UNL     1      37.234 -20.111 -21.087  0.00  0.00    +0.152 HD
ENDBRANCH   1  15
BRANCH   6  23
ATOM     22  N   UNL     1      36.865 -25.290 -12.975  0.00  0.00    -0.242 NA
ATOM     23  C   UNL     1      34.519 -24.499 -14.274  0.00  0.00    +0.031 C 
ATOM     24  C   UNL     1      35.567 -25.053 -15.001  0.00  0.00    +0.023 C 
ATOM     25  C   UNL     1      34.643 -24.339 -12.897  0.00  0.00    +0.023 C 
ATOM     26  C   UNL     1      36.708 -25.429 -14.311  0.00  0.00    +0.099 C 
ATOM     27  C   UNL     1      35.826 -24.747 -12.301  0.00  0.00    +0.099 C 
ENDBRANCH   6  23
TORSDOF 2
ENDMDL
MODEL 2
REMARK VINA RESULT:     -11.1      1.285      2.045
REMARK  Name = 44177328
REMARK  2 active torsions:
REMARK  status: ('A' for Active; 'I' for Inactive)
REMARK    1  A    between atoms: N_1  and  C_15
REMARK    2  A    between atoms: C_6  and  C_23
REMARK                            x       y       z     vdW  Elec       q    Type
REMARK                         _______ _______ _______ _____ _____    ______ ____
ROOT
ATOM      1  N   UNL     1      32.715 -22.508 -18.682  0.00  0.00    -0.286 N 
ATOM      2  N   UNL     1      34.232 -23.300 -17.047  0.00  0.00    -0.386 NA
ATOM      3  N   UNL     1      32.071 -23.885 -15.357  0.00  0.00    -0.246 NA
ATOM      4  N   UNL     1      30.576 -23.085 -17.016  0.00  0.00    -0.340 N 
ATOM      5  C   UNL     1      32.956 -23.064 -17.412  0.00  0.00    +0.214 C 
ATOM      6  C   UNL     1      34.409 -23.833 -15.822  0.00  0.00    +0.135 C 
ATOM      7  C   UNL     1      31.894 -23.351 -16.583  0.00  0.00    +0.166 C 
ATOM      8  C   UNL     1      33.347 -24.120 -14.992  0.00  0.00    +0.185 C 
ATOM      9  H   UNL     1      31.854 -22.777 -19.075  0.00  0.00    +0.155 HD
ATOM     10  H   UNL     1      29.813 -23.288 -16.427  0.00  0.00    +0.144 HD
ATOM     11  H   UNL     1      30.420 -22.695 -17.907  0.00  0.00    +0.144 HD
ENDROOT
BRANCH   1  15
ATOM     12  N   UNL     1      35.874 -19.189 -21.784  0.00  0.00    -0.312 N 
ATOM     13  C   UNL     1      35.605 -20.726 -20.189  0.00  0.00    +0.016 C 
ATOM     14  C   UNL     1      34.926 -19.934 -21.118  0.00  0.00    +0.048 C 
ATOM     15  C   UNL     1      33.468 -21.639 -19.503  0.00  0.00    +0.050 C 
ATOM     16  C   UNL     1      34.860 -21.595 -19.366  0.00  0.00    +0.016 C 
ATOM     17  C   UNL     1      33.536 -19.969 -21.267  0.00  0.00    +0.016 C 
ATOM     18  C   UNL     1      32.818 -20.838 -20.439  0.00  0.00    +0.016 C 
ATOM     19  C   UNL     1      36.990 -20.429 -20.320  0.00  0.00    +0.017 C 
ATOM     20  C   UNL     1      37.124 -19.481 -21.308  0.00  0.00    +0.062 C 
ATOM     21  H   UNL     1      35.680 -18.540 -22.497  0.00  0.00    +0.152 HD
ENDBRANCH   1  15
BRANCH   6  23
ATOM     22  N   UNL     1      38.422 -24.560 -14.677  0.00  0.00    -0.242 NA
ATOM     23  C   UNL     1      35.773 -24.081 -15.432  0.00  0.00    +0.031 C 
ATOM     24  C   UNL     1      36.084 -25.177 -14.636  0.00  0.00    +0.023 C 
ATOM     25  C   UNL     1      36.785 -23.224 -15.853  0.00  0.00    +0.023 C 
ATOM     26  C   UNL     1      37.411 -25.371 -14.289  0.00  0.00    +0.099 C 
ATOM     27  C   UNL     1      38.081 -23.505 -15.451  0.00  0.00    +0.099 C 
ENDBRANCH   6  23
TORSDOF 2
ENDMDL
MODEL 3
REMARK VINA RESULT:     -10.3      1.832      6.682
REMARK  Name = 44177328
REMARK  2 active torsions:
REMARK  status: ('A' for Active; 'I' for Inactive)
REMARK    1  A    between atoms: N_1  and  C_15
REMARK    2  A    between atoms: C_6  and  C_23
REMARK                            x       y       z     vdW  Elec       q    Type
REMARK                         _______ _______ _______ _____ _____    ______ ____
ROOT
ATOM      1  N   UNL     1      34.830 -24.721 -13.606  0.00  0.00    -0.286 N 
ATOM      2  N   UNL     1      34.534 -23.686 -15.715  0.00  0.00    -0.386 NA
ATOM      3  N   UNL     1      31.780 -24.192 -15.552  0.00  0.00    -0.246 NA
ATOM      4  N   UNL     1      32.108 -25.222 -13.440  0.00  0.00    -0.340 N 
ATOM      5  C   UNL     1      33.985 -24.313 -14.655  0.00  0.00    +0.214 C 
ATOM      6  C   UNL     1      33.682 -23.317 -16.692  0.00  0.00    +0.135 C 
ATOM      7  C   UNL     1      32.633 -24.562 -14.575  0.00  0.00    +0.166 C 
ATOM      8  C   UNL     1      32.330 -23.566 -16.611  0.00  0.00    +0.185 C 
ATOM      9  H   UNL     1      34.392 -24.728 -12.725  0.00  0.00    +0.155 HD
ATOM     10  H   UNL     1      31.143 -25.403 -13.378  0.00  0.00    +0.144 HD
ATOM     11  H   UNL     1      32.710 -25.502 -12.713  0.00  0.00    +0.144 HD
ENDROOT
BRANCH   1  15
ATOM     12  N   UNL     1      40.163 -26.189 -13.700  0.00  0.00    -0.312 N 
ATOM     13  C   UNL     1      38.358 -25.266 -14.631  0.00  0.00    +0.016 C 
ATOM     14  C   UNL     1      38.832 -25.908 -13.485  0.00  0.00    +0.048 C 
ATOM     15  C   UNL     1      36.185 -25.121 -13.571  0.00  0.00    +0.050 C 
ATOM     16  C   UNL     1      37.008 -24.865 -14.673  0.00  0.00    +0.016 C 
ATOM     17  C   UNL     1      38.021 -26.169 -12.375  0.00  0.00    +0.016 C 
ATOM     18  C   UNL     1      36.685 -25.763 -12.441  0.00  0.00    +0.016 C 
ATOM     19  C   UNL     1      39.449 -25.172 -15.539  0.00  0.00    +0.017 C 
ATOM     20  C   UNL     1      40.545 -25.749 -14.939  0.00  0.00    +0.062 C 
ATOM     21  H   UNL     1      40.754 -26.643 -13.056  0.00  0.00    +0.152 HD
ENDBRANCH   1  15
BRANCH   6  23
ATOM     22  N   UNL     1      35.419 -21.358 -20.022  0.00  0.00    -0.242 NA
ATOM     23  C   UNL     1      34.272 -22.650 -17.824  0.00  0.00    +0.031 C 
ATOM     24  C   UNL     1      33.470 -22.204 -18.868  0.00  0.00    +0.023 C 
ATOM     25  C   UNL     1      35.648 -22.450 -17.877  0.00  0.00    +0.023 C 
ATOM     26  C   UNL     1      34.086 -21.570 -19.934  0.00  0.00    +0.099 C 
ATOM     27  C   UNL     1      36.167 -21.805 -18.988  0.00  0.00    +0.099 C 
ENDBRANCH   6  23
TORSDOF 2
ENDMDL
MODEL 4
REMARK VINA RESULT:     -10.2      1.768      6.724
REMARK  Name = 44177328
REMARK  2 active torsions:
REMARK  status: ('A' for Active; 'I' for Inactive)
REMARK    1  A    between atoms: N_1  and  C_15
REMARK    2  A    between atoms: C_6  and  C_23
REMARK                            x       y       z     vdW  Elec       q    Type
REMARK                         _______ _______ _______ _____ _____    ______ ____
ROOT
ATOM      1  N   UNL     1      34.126 -24.673 -14.396  0.00  0.00    -0.286 N 
ATOM      2  N   UNL     1      35.000 -23.427 -16.209  0.00  0.00    -0.386 NA
ATOM      3  N   UNL     1      37.385 -23.059 -14.781  0.00  0.00    -0.246 NA
ATOM      4  N   UNL     1      36.483 -24.313 -12.980  0.00  0.00    -0.340 N 
ATOM      5  C   UNL     1      35.177 -23.936 -14.974  0.00  0.00    +0.214 C 
ATOM      6  C   UNL     1      36.036 -22.731 -16.718  0.00  0.00    +0.135 C 
ATOM      7  C   UNL     1      36.349 -23.757 -14.272  0.00  0.00    +0.166 C 
ATOM      8  C   UNL     1      37.207 -22.551 -16.016  0.00  0.00    +0.185 C 
ATOM      9  H   UNL     1      34.430 -25.373 -13.773  0.00  0.00    +0.155 HD
ATOM     10  H   UNL     1      37.318 -24.187 -12.473  0.00  0.00    +0.144 HD
ATOM     11  H   UNL     1      35.741 -24.826 -12.586  0.00  0.00    +0.144 HD
ENDROOT
BRANCH   1  15
ATOM     12  N   UNL     1      28.660 -24.243 -15.132  0.00  0.00    -0.312 N 
ATOM     13  C   UNL     1      30.765 -23.729 -15.663  0.00  0.00    +0.016 C 
ATOM     14  C   UNL     1      29.973 -24.481 -14.792  0.00  0.00    +0.048 C 
ATOM     15  C   UNL     1      32.722 -24.604 -14.534  0.00  0.00    +0.050 C 
ATOM     16  C   UNL     1      32.167 -23.793 -15.530  0.00  0.00    +0.016 C 
ATOM     17  C   UNL     1      30.515 -25.297 -13.793  0.00  0.00    +0.016 C 
ATOM     18  C   UNL     1      31.908 -25.343 -13.679  0.00  0.00    +0.016 C 
ATOM     19  C   UNL     1      29.883 -23.033 -16.535  0.00  0.00    +0.017 C 
ATOM     20  C   UNL     1      28.596 -23.368 -16.183  0.00  0.00    +0.062 C 
ATOM     21  H   UNL     1      27.881 -24.642 -14.682  0.00  0.00    +0.152 HD
ENDBRANCH   1  15
BRANCH   6  23
ATOM     22  N   UNL     1      35.464 -21.125 -20.596  0.00  0.00    -0.242 NA
ATOM     23  C   UNL     1      35.842 -22.185 -18.037  0.00  0.00    +0.031 C 
ATOM     24  C   UNL     1      36.911 -21.619 -18.723  0.00  0.00    +0.023 C 
ATOM     25  C   UNL     1      34.584 -22.222 -18.629  0.00  0.00    +0.023 C 
ATOM     26  C   UNL     1      36.672 -21.108 -19.988  0.00  0.00    +0.099 C 
ATOM     27  C   UNL     1      34.449 -21.683 -19.899  0.00  0.00    +0.099 C 
ENDBRANCH   6  23
TORSDOF 2
ENDMDL
MODEL 5
REMARK VINA RESULT:      -9.9      1.842      2.800
REMARK  Name = 44177328
REMARK  2 active torsions:
REMARK  status: ('A' for Active; 'I' for Inactive)
REMARK    1  A    between atoms: N_1  and  C_15
REMARK    2  A    between atoms: C_6  and  C_23
REMARK                            x       y       z     vdW  Elec       q    Type
REMARK                         _______ _______ _______ _____ _____    ______ ____
ROOT
ATOM      1  N   UNL     1      33.949 -23.449 -16.869  0.00  0.00    -0.286 N 
ATOM      2  N   UNL     1      35.897 -24.169 -15.733  0.00  0.00    -0.386 NA
ATOM      3  N   UNL     1      34.366 -24.602 -13.424  0.00  0.00    -0.246 NA
ATOM      4  N   UNL     1      32.431 -23.876 -14.588  0.00  0.00    -0.340 N 
ATOM      5  C   UNL     1      34.571 -23.930 -15.701  0.00  0.00    +0.214 C 
ATOM      6  C   UNL     1      36.444 -24.628 -14.590  0.00  0.00    +0.135 C 
ATOM      7  C   UNL     1      33.818 -24.143 -14.568  0.00  0.00    +0.166 C 
ATOM      8  C   UNL     1      35.691 -24.841 -13.456  0.00  0.00    +0.185 C 
ATOM      9  H   UNL     1      33.008 -23.724 -16.958  0.00  0.00    +0.155 HD
ATOM     10  H   UNL     1      31.888 -24.026 -13.781  0.00  0.00    +0.144 HD
ATOM     11  H   UNL     1      32.007 -23.540 -15.411  0.00  0.00    +0.144 HD
ENDROOT
BRANCH   1  15
ATOM     12  N   UNL     1      35.517 -20.273 -21.119  0.00  0.00    -0.312 N 
ATOM     13  C   UNL     1      33.954 -21.255 -19.866  0.00  0.00    +0.016 C 
ATOM     14  C   UNL     1      35.332 -21.085 -20.022  0.00  0.00    +0.048 C 
ATOM     15  C   UNL     1      34.411 -22.649 -17.937  0.00  0.00    +0.050 C 
ATOM     16  C   UNL     1      33.486 -22.053 -18.802  0.00  0.00    +0.016 C 
ATOM     17  C   UNL     1      36.267 -21.672 -19.164  0.00  0.00    +0.016 C 
ATOM     18  C   UNL     1      35.780 -22.461 -18.117  0.00  0.00    +0.016 C 
ATOM     19  C   UNL     1      33.321 -20.520 -20.906  0.00  0.00    +0.017 C 
ATOM     20  C   UNL     1      34.308 -19.928 -21.660  0.00  0.00    +0.062 C 
ATOM     21  H   UNL     1      36.392 -19.986 -21.464  0.00  0.00    +0.152 HD
ENDBRANCH   1  15
BRANCH   6  23
ATOM     22  N   UNL     1      40.614 -25.369 -14.695  0.00  0.00    -0.242 NA
ATOM     23  C   UNL     1      37.862 -24.880 -14.626  0.00  0.00    +0.031 C 
ATOM     24  C   UNL     1      38.663 -24.231 -15.560  0.00  0.00    +0.023 C 
ATOM     25  C   UNL     1      38.436 -25.772 -13.726  0.00  0.00    +0.023 C 
ATOM     26  C   UNL     1      40.021 -24.508 -15.553  0.00  0.00    +0.099 C 
ATOM     27  C   UNL     1      39.804 -25.980 -13.801  0.00  0.00    +0.099 C 
ENDBRANCH   6  23
TORSDOF 2
ENDMDL
MODEL 6
REMARK VINA RESULT:      -9.8      8.536     12.948
REMARK  Name = 44177328
REMARK  2 active torsions:
REMARK  status: ('A' for Active; 'I' for Inactive)
REMARK    1  A    between atoms: N_1  and  C_15
REMARK    2  A    between atoms: C_6  and  C_23
REMARK                            x       y       z     vdW  Elec       q    Type
REMARK                         _______ _______ _______ _____ _____    ______ ____
ROOT
ATOM      1  N   UNL     1      33.657 -11.151 -25.041  0.00  0.00    -0.286 N 
ATOM      2  N   UNL     1      34.046 -13.232 -23.981  0.00  0.00    -0.386 NA
ATOM      3  N   UNL     1      33.085 -14.550 -26.262  0.00  0.00    -0.246 NA
ATOM      4  N   UNL     1      32.707 -12.450 -27.299  0.00  0.00    -0.340 N 
ATOM      5  C   UNL     1      33.616 -12.558 -25.066  0.00  0.00    +0.214 C 
ATOM      6  C   UNL     1      33.987 -14.576 -24.056  0.00  0.00    +0.135 C 
ATOM      7  C   UNL     1      33.145 -13.205 -26.187  0.00  0.00    +0.166 C 
ATOM      8  C   UNL     1      33.514 -15.223 -25.177  0.00  0.00    +0.185 C 
ATOM      9  H   UNL     1      33.791 -10.743 -25.927  0.00  0.00    +0.155 HD
ATOM     10  H   UNL     1      32.368 -12.907 -28.103  0.00  0.00    +0.144 HD
ATOM     11  H   UNL     1      32.740 -11.466 -27.269  0.00  0.00    +0.144 HD
ENDROOT
BRANCH   1  15
ATOM     12  N   UNL     1      33.040  -7.618 -20.829  0.00  0.00    -0.312 N 
ATOM     13  C   UNL     1      32.534  -9.505 -21.907  0.00  0.00    +0.016 C 
ATOM     14  C   UNL     1      33.336  -8.362 -21.950  0.00  0.00    +0.048 C 
ATOM     15  C   UNL     1      33.544 -10.211 -23.993  0.00  0.00    +0.050 C 
ATOM     16  C   UNL     1      32.642 -10.447 -22.950  0.00  0.00    +0.016 C 
ATOM     17  C   UNL     1      34.243  -8.114 -22.985  0.00  0.00    +0.016 C 
ATOM     18  C   UNL     1      34.331  -9.062 -24.009  0.00  0.00    +0.016 C 
ATOM     19  C   UNL     1      31.748  -9.421 -20.724  0.00  0.00    +0.017 C 
ATOM     20  C   UNL     1      32.081  -8.250 -20.083  0.00  0.00    +0.062 C 
ATOM     21  H   UNL     1      33.456  -6.757 -20.599  0.00  0.00    +0.152 HD
ENDBRANCH   1  15
BRANCH   6  23
ATOM     22  N   UNL     1      35.328 -16.685 -20.636  0.00  0.00    -0.242 NA
ATOM     23  C   UNL     1      34.443 -15.293 -22.893  0.00  0.00    +0.031 C 
ATOM     24  C   UNL     1      35.058 -16.533 -23.034  0.00  0.00    +0.023 C 
ATOM     25  C   UNL     1      34.271 -14.748 -21.625  0.00  0.00    +0.023 C 
ATOM     26  C   UNL     1      35.479 -17.182 -21.885  0.00  0.00    +0.099 C 
ATOM     27  C   UNL     1      34.727 -15.478 -20.538  0.00  0.00    +0.099 C 
ENDBRANCH   6  23
TORSDOF 2
ENDMDL
MODEL 7
REMARK VINA RESULT:      -9.6      7.297     11.329
REMARK  Name = 44177328
REMARK  2 active torsions:
REMARK  status: ('A' for Active; 'I' for Inactive)
REMARK    1  A    between atoms: N_1  and  C_15
REMARK    2  A    between atoms: C_6  and  C_23
REMARK                            x       y       z     vdW  Elec       q    Type
REMARK                         _______ _______ _______ _____ _____    ______ ____
ROOT
ATOM      1  N   UNL     1      33.304 -13.103 -24.255  0.00  0.00    -0.286 N 
ATOM      2  N   UNL     1      34.063 -15.278 -23.713  0.00  0.00    -0.386 NA
ATOM      3  N   UNL     1      33.687 -16.051 -26.383  0.00  0.00    -0.246 NA
ATOM      4  N   UNL     1      32.932 -13.861 -26.895  0.00  0.00    -0.340 N 
ATOM      5  C   UNL     1      33.602 -14.422 -24.645  0.00  0.00    +0.214 C 
ATOM      6  C   UNL     1      34.333 -16.528 -24.138  0.00  0.00    +0.135 C 
ATOM      7  C   UNL     1      33.418 -14.800 -25.957  0.00  0.00    +0.166 C 
ATOM      8  C   UNL     1      34.148 -16.907 -25.450  0.00  0.00    +0.185 C 
ATOM      9  H   UNL     1      33.429 -12.440 -24.971  0.00  0.00    +0.155 HD
ATOM     10  H   UNL     1      32.798 -14.127 -27.834  0.00  0.00    +0.144 HD
ATOM     11  H   UNL     1      32.727 -12.942 -26.610  0.00  0.00    +0.144 HD
ENDROOT
BRANCH   1  15
ATOM     12  N   UNL     1      31.587 -10.687 -19.583  0.00  0.00    -0.312 N 
ATOM     13  C   UNL     1      32.293 -10.606 -21.698  0.00  0.00    +0.016 C 
ATOM     14  C   UNL     1      31.992 -11.469 -20.642  0.00  0.00    +0.048 C 
ATOM     15  C   UNL     1      32.861 -12.545 -23.035  0.00  0.00    +0.050 C 
ATOM     16  C   UNL     1      32.736 -11.156 -22.918  0.00  0.00    +0.016 C 
ATOM     17  C   UNL     1      32.110 -12.859 -20.746  0.00  0.00    +0.016 C 
ATOM     18  C   UNL     1      32.553 -13.381 -21.965  0.00  0.00    +0.016 C 
ATOM     19  C   UNL     1      32.057  -9.281 -21.235  0.00  0.00    +0.017 C 
ATOM     20  C   UNL     1      31.624  -9.364 -19.932  0.00  0.00    +0.062 C 
ATOM     21  H   UNL     1      31.314 -11.030 -18.702  0.00  0.00    +0.152 HD
ENDBRANCH   1  15
BRANCH   6  23
ATOM     22  N   UNL     1      35.771 -19.217 -21.198  0.00  0.00    -0.242 NA
ATOM     23  C   UNL     1      34.822 -17.443 -23.139  0.00  0.00    +0.031 C 
ATOM     24  C   UNL     1      34.772 -18.814 -23.362  0.00  0.00    +0.023 C 
ATOM     25  C   UNL     1      35.347 -16.957 -21.946  0.00  0.00    +0.023 C 
ATOM     26  C   UNL     1      35.255 -19.651 -22.370  0.00  0.00    +0.099 C 
ATOM     27  C   UNL     1      35.804 -17.877 -21.016  0.00  0.00    +0.099 C 
ENDBRANCH   6  23
TORSDOF 2
ENDMDL
MODEL 8
REMARK VINA RESULT:      -9.6      2.447      5.501
REMARK  Name = 44177328
REMARK  2 active torsions:
REMARK  status: ('A' for Active; 'I' for Inactive)
REMARK    1  A    between atoms: N_1  and  C_15
REMARK    2  A    between atoms: C_6  and  C_23
REMARK                            x       y       z     vdW  Elec       q    Type
REMARK                         _______ _______ _______ _____ _____    ______ ____
ROOT
ATOM      1  N   UNL     1      33.026 -23.565 -15.618  0.00  0.00    -0.286 N 
ATOM      2  N   UNL     1      30.671 -23.434 -15.823  0.00  0.00    -0.386 NA
ATOM      3  N   UNL     1      30.413 -25.480 -13.922  0.00  0.00    -0.246 NA
ATOM      4  N   UNL     1      32.775 -25.587 -13.738  0.00  0.00    -0.340 N 
ATOM      5  C   UNL     1      31.744 -24.012 -15.247  0.00  0.00    +0.214 C 
ATOM      6  C   UNL     1      29.467 -23.897 -15.433  0.00  0.00    +0.135 C 
ATOM      7  C   UNL     1      31.617 -25.016 -14.313  0.00  0.00    +0.166 C 
ATOM      8  C   UNL     1      29.341 -24.902 -14.499  0.00  0.00    +0.185 C 
ATOM      9  H   UNL     1      33.696 -23.646 -14.902  0.00  0.00    +0.155 HD
ATOM     10  H   UNL     1      32.691 -26.306 -13.070  0.00  0.00    +0.144 HD
ATOM     11  H   UNL     1      33.667 -25.267 -14.006  0.00  0.00    +0.144 HD
ENDROOT
BRANCH   1  15
ATOM     12  N   UNL     1      35.266 -21.455 -20.216  0.00  0.00    -0.312 N 
ATOM     13  C   UNL     1      35.418 -22.255 -18.138  0.00  0.00    +0.016 C 
ATOM     14  C   UNL     1      34.525 -21.964 -19.172  0.00  0.00    +0.048 C 
ATOM     15  C   UNL     1      33.538 -23.023 -16.818  0.00  0.00    +0.050 C 
ATOM     16  C   UNL     1      34.913 -22.795 -16.938  0.00  0.00    +0.016 C 
ATOM     17  C   UNL     1      33.148 -22.189 -19.066  0.00  0.00    +0.016 C 
ATOM     18  C   UNL     1      32.671 -22.724 -17.866  0.00  0.00    +0.016 C 
ATOM     19  C   UNL     1      36.718 -21.902 -18.598  0.00  0.00    +0.017 C 
ATOM     20  C   UNL     1      36.592 -21.413 -19.878  0.00  0.00    +0.062 C 
ATOM     21  H   UNL     1      34.894 -21.163 -21.079  0.00  0.00    +0.152 HD
ENDBRANCH   1  15
BRANCH   6  23
ATOM     22  N   UNL     1      26.102 -22.082 -17.257  0.00  0.00    -0.242 NA
ATOM     23  C   UNL     1      28.323 -23.280 -16.054  0.00  0.00    +0.031 C 
ATOM     24  C   UNL     1      28.176 -23.313 -17.436  0.00  0.00    +0.023 C 
ATOM     25  C   UNL     1      27.360 -22.650 -15.272  0.00  0.00    +0.023 C 
ATOM     26  C   UNL     1      27.058 -22.705 -17.984  0.00  0.00    +0.099 C 
ATOM     27  C   UNL     1      26.278 -22.071 -15.917  0.00  0.00    +0.099 C 
ENDBRANCH   6  23
TORSDOF 2
ENDMDL
MODEL 9
REMARK VINA RESULT:      -9.6      1.581      4.017
REMARK  Name = 44177328
REMARK  2 active torsions:
REMARK  status: ('A' for Active; 'I' for Inactive)
REMARK    1  A    between atoms: N_1  and  C_15
REMARK    2  A    between atoms: C_6  and  C_23
REMARK                            x       y       z     vdW  Elec       q    Type
REMARK                         _______ _______ _______ _____ _____    ______ ____
ROOT
ATOM      1  N   UNL     1      36.733 -22.428 -17.014  0.00  0.00    -0.286 N 
ATOM      2  N   UNL     1      34.900 -23.302 -15.797  0.00  0.00    -0.386 NA
ATOM      3  N   UNL     1      36.651 -25.018 -14.434  0.00  0.00    -0.246 NA
ATOM      4  N   UNL     1      38.468 -24.121 -15.668  0.00  0.00    -0.340 N 
ATOM      5  C   UNL     1      36.226 -23.311 -16.043  0.00  0.00    +0.214 C 
ATOM      6  C   UNL     1      34.466 -24.166 -14.859  0.00  0.00    +0.135 C 
ATOM      7  C   UNL     1      37.086 -24.153 -15.373  0.00  0.00    +0.166 C 
ATOM      8  C   UNL     1      35.327 -25.009 -14.190  0.00  0.00    +0.185 C 
ATOM      9  H   UNL     1      37.657 -22.136 -16.840  0.00  0.00    +0.155 HD
ATOM     10  H   UNL     1      39.088 -24.721 -15.194  0.00  0.00    +0.144 HD
ATOM     11  H   UNL     1      38.811 -23.498 -16.350  0.00  0.00    +0.144 HD
ENDROOT
BRANCH   1  15
ATOM     12  N   UNL     1      34.763 -20.142 -21.651  0.00  0.00    -0.312 N 
ATOM     13  C   UNL     1      36.351 -20.405 -20.106  0.00  0.00    +0.016 C 
ATOM     14  C   UNL     1      35.071 -20.814 -20.489  0.00  0.00    +0.048 C 
ATOM     15  C   UNL     1      36.175 -21.878 -18.190  0.00  0.00    +0.050 C 
ATOM     16  C   UNL     1      36.912 -20.949 -18.933  0.00  0.00    +0.016 C 
ATOM     17  C   UNL     1      34.324 -21.742 -19.757  0.00  0.00    +0.016 C 
ATOM     18  C   UNL     1      34.901 -22.267 -18.597  0.00  0.00    +0.016 C 
ATOM     19  C   UNL     1      36.798 -19.466 -21.077  0.00  0.00    +0.017 C 
ATOM     20  C   UNL     1      35.800 -19.325 -22.013  0.00  0.00    +0.062 C 
ATOM     21  H   UNL     1      33.919 -20.235 -22.148  0.00  0.00    +0.152 HD
ENDBRANCH   1  15
BRANCH   6  23
ATOM     22  N   UNL     1      30.299 -24.141 -14.100  0.00  0.00    -0.242 NA
ATOM     23  C   UNL     1      33.049 -24.157 -14.601  0.00  0.00    +0.031 C 
ATOM     24  C   UNL     1      32.227 -23.238 -15.245  0.00  0.00    +0.023 C 
ATOM     25  C   UNL     1      32.496 -25.069 -13.707  0.00  0.00    +0.023 C 
ATOM     26  C   UNL     1      30.872 -23.271 -14.963  0.00  0.00    +0.099 C 
ATOM     27  C   UNL     1      31.128 -25.019 -13.493  0.00  0.00    +0.099 C 
ENDBRANCH   6  23
TORSDOF 2
ENDMDL
