MODEL 1
REMARK VINA RESULT:     -11.2      0.000      0.000
REMARK  Name = 42627769
REMARK  10 active torsions:
REMARK  status: ('A' for Active; 'I' for Inactive)
REMARK    1  A    between atoms: C_1  and  C_3
REMARK    2  A    between atoms: C_1  and  N_6
REMARK    3  A    between atoms: C_1  and  C_22
REMARK    4  A    between atoms: C_3  and  O_4
REMARK    5  A    between atoms: N_6  and  S_8
REMARK    6  A    between atoms: S_8  and  C_11
REMARK    7  A    between atoms: C_16  and  O_17
REMARK    8  A    between atoms: O_17  and  C_18
REMARK    9  A    between atoms: C_18  and  C_19
REMARK   10  A    between atoms: C_22  and  C_24
REMARK                            x       y       z     vdW  Elec       q    Type
REMARK                         _______ _______ _______ _____ _____    ______ ____
ROOT
ATOM      1  C   UNL     1      34.767 -23.665 -16.363  0.00  0.00    +0.178 C 
ENDROOT
BRANCH   1   3
ATOM      2  O   UNL     1      36.706 -23.011 -15.043  0.00  0.00    -0.249 OA
ATOM      3  C   UNL     1      36.078 -23.876 -15.640  0.00  0.00    +0.330 C 
BRANCH   3   4
ATOM      4  O   UNL     1      36.497 -25.166 -15.719  0.00  0.00    -0.479 OA
ATOM      5  H   UNL     1      36.171 -25.803 -15.115  0.00  0.00    +0.295 HD
ENDBRANCH   3   4
ENDBRANCH   1   3
BRANCH   1   6
ATOM      6  N   UNL     1      35.048 -22.785 -17.522  0.00  0.00    -0.170 NA
ATOM      7  H   UNL     1      35.071 -21.829 -17.170  0.00  0.00    +0.149 HD
BRANCH   6   8
ATOM      8  S   UNL     1      34.002 -22.790 -18.860  0.00  0.00    +0.061 S 
ATOM      9  O   UNL     1      32.671 -22.404 -18.434  0.00  0.00    -0.153 OA
ATOM     10  O   UNL     1      34.203 -24.018 -19.606  0.00  0.00    -0.153 OA
BRANCH   8  11
ATOM     11  C   UNL     1      34.662 -21.477 -19.843  0.00  0.00    +0.122 C 
ATOM     12  C   UNL     1      36.034 -21.229 -19.844  0.00  0.00    +0.023 C 
ATOM     13  C   UNL     1      33.809 -20.686 -20.614  0.00  0.00    +0.023 C 
ATOM     14  C   UNL     1      36.555 -20.192 -20.617  0.00  0.00    +0.038 C 
ATOM     15  C   UNL     1      34.330 -19.649 -21.387  0.00  0.00    +0.038 C 
ATOM     16  C   UNL     1      35.702 -19.402 -21.389  0.00  0.00    +0.140 C 
BRANCH  16  17
ATOM     17  O   UNL     1      36.211 -18.389 -22.142  0.00  0.00    -0.461 OA
BRANCH  17  18
ATOM     18  C   UNL     1      35.463 -17.996 -23.293  0.00  0.00    +0.281 C 
BRANCH  18  19
ATOM     19  C   UNL     1      35.059 -16.597 -23.164  0.00  0.00    -0.044 C 
ATOM     20  C   UNL     1      34.729 -15.447 -23.056  0.00  0.00    -0.086 C 
ATOM     21  C   UNL     1      34.328 -14.047 -22.926  0.00  0.00    +0.090 C 
ENDBRANCH  18  19
ENDBRANCH  17  18
ENDBRANCH  16  17
ENDBRANCH   8  11
ENDBRANCH   6   8
ENDBRANCH   1   6
BRANCH   1  22
ATOM     22  C   UNL     1      33.709 -22.998 -15.457  0.00  0.00    +0.056 C 
BRANCH  22  24
ATOM     23  N   UNL     1      31.949 -25.543 -13.517  0.00  0.00    -0.312 N 
ATOM     24  C   UNL     1      32.773 -23.952 -14.829  0.00  0.00    -0.004 C 
ATOM     25  C   UNL     1      31.397 -24.122 -15.147  0.00  0.00    +0.010 C 
ATOM     26  C   UNL     1      30.904 -25.125 -14.310  0.00  0.00    +0.048 C 
ATOM     27  C   UNL     1      33.083 -24.839 -13.824  0.00  0.00    +0.058 C 
ATOM     28  C   UNL     1      30.521 -23.517 -16.069  0.00  0.00    -0.003 C 
ATOM     29  C   UNL     1      29.573 -25.557 -14.350  0.00  0.00    +0.014 C 
ATOM     30  C   UNL     1      29.187 -23.938 -16.120  0.00  0.00    -0.022 C 
ATOM     31  C   UNL     1      28.722 -24.941 -15.273  0.00  0.00    -0.003 C 
ATOM     32  C   UNL     1      28.252 -23.301 -17.095  0.00  0.00    +0.031 C 
ATOM     33  H   UNL     1      31.891 -26.244 -12.830  0.00  0.00    +0.152 HD
ENDBRANCH  22  24
ENDBRANCH   1  22
TORSDOF 10
ENDMDL
MODEL 2
REMARK VINA RESULT:     -10.3      2.056      4.282
REMARK  Name = 42627769
REMARK  10 active torsions:
REMARK  status: ('A' for Active; 'I' for Inactive)
REMARK    1  A    between atoms: C_1  and  C_3
REMARK    2  A    between atoms: C_1  and  N_6
REMARK    3  A    between atoms: C_1  and  C_22
REMARK    4  A    between atoms: C_3  and  O_4
REMARK    5  A    between atoms: N_6  and  S_8
REMARK    6  A    between atoms: S_8  and  C_11
REMARK    7  A    between atoms: C_16  and  O_17
REMARK    8  A    between atoms: O_17  and  C_18
REMARK    9  A    between atoms: C_18  and  C_19
REMARK   10  A    between atoms: C_22  and  C_24
REMARK                            x       y       z     vdW  Elec       q    Type
REMARK                         _______ _______ _______ _____ _____    ______ ____
ROOT
ATOM      1  C   UNL     1      31.856 -23.043 -16.507  0.00  0.00    +0.178 C 
ENDROOT
BRANCH   1   3
ATOM      2  O   UNL     1      29.578 -22.590 -17.238  0.00  0.00    -0.249 OA
ATOM      3  C   UNL     1      30.354 -23.219 -16.530  0.00  0.00    +0.330 C 
BRANCH   3   4
ATOM      4  O   UNL     1      29.944 -24.180 -15.661  0.00  0.00    -0.479 OA
ATOM      5  H   UNL     1      30.311 -25.041 -15.707  0.00  0.00    +0.295 HD
ENDBRANCH   3   4
ENDBRANCH   1   3
BRANCH   1   6
ATOM      6  N   UNL     1      32.277 -22.733 -17.893  0.00  0.00    -0.170 NA
ATOM      7  H   UNL     1      31.646 -23.239 -18.514  0.00  0.00    +0.149 HD
BRANCH   6   8
ATOM      8  S   UNL     1      33.858 -23.096 -18.398  0.00  0.00    +0.061 S 
ATOM      9  O   UNL     1      33.858 -24.355 -19.117  0.00  0.00    -0.153 OA
ATOM     10  O   UNL     1      34.762 -22.893 -17.282  0.00  0.00    -0.153 OA
BRANCH   8  11
ATOM     11  C   UNL     1      34.175 -21.804 -19.561  0.00  0.00    +0.122 C 
ATOM     12  C   UNL     1      35.488 -21.445 -19.862  0.00  0.00    +0.023 C 
ATOM     13  C   UNL     1      33.112 -21.140 -20.174  0.00  0.00    +0.023 C 
ATOM     14  C   UNL     1      35.740 -20.423 -20.778  0.00  0.00    +0.038 C 
ATOM     15  C   UNL     1      33.364 -20.119 -21.090  0.00  0.00    +0.038 C 
ATOM     16  C   UNL     1      34.677 -19.761 -21.392  0.00  0.00    +0.140 C 
BRANCH  16  17
ATOM     17  O   UNL     1      34.923 -18.764 -22.285  0.00  0.00    -0.461 OA
BRANCH  17  18
ATOM     18  C   UNL     1      34.963 -19.122 -23.665  0.00  0.00    +0.281 C 
BRANCH  18  19
ATOM     19  C   UNL     1      34.466 -18.014 -24.478  0.00  0.00    -0.044 C 
ATOM     20  C   UNL     1      34.058 -17.104 -25.149  0.00  0.00    -0.086 C 
ATOM     21  C   UNL     1      33.560 -15.997 -25.963  0.00  0.00    +0.090 C 
ENDBRANCH  18  19
ENDBRANCH  17  18
ENDBRANCH  16  17
ENDBRANCH   8  11
ENDBRANCH   6   8
ENDBRANCH   1   6
BRANCH   1  22
ATOM     22  C   UNL     1      32.578 -24.318 -16.023  0.00  0.00    +0.056 C 
BRANCH  22  24
ATOM     23  N   UNL     1      33.584 -23.618 -12.583  0.00  0.00    -0.312 N 
ATOM     24  C   UNL     1      33.220 -24.177 -14.700  0.00  0.00    -0.004 C 
ATOM     25  C   UNL     1      34.494 -24.683 -14.319  0.00  0.00    +0.010 C 
ATOM     26  C   UNL     1      34.698 -24.318 -12.986  0.00  0.00    +0.048 C 
ATOM     27  C   UNL     1      32.685 -23.527 -13.612  0.00  0.00    +0.058 C 
ATOM     28  C   UNL     1      35.497 -25.417 -14.982  0.00  0.00    -0.003 C 
ATOM     29  C   UNL     1      35.859 -24.652 -12.281  0.00  0.00    +0.014 C 
ATOM     30  C   UNL     1      36.664 -25.759 -14.288  0.00  0.00    -0.022 C 
ATOM     31  C   UNL     1      36.840 -25.382 -12.959  0.00  0.00    -0.003 C 
ATOM     32  C   UNL     1      37.731 -26.539 -14.984  0.00  0.00    +0.031 C 
ATOM     33  H   UNL     1      33.451 -23.237 -11.685  0.00  0.00    +0.152 HD
ENDBRANCH  22  24
ENDBRANCH   1  22
TORSDOF 10
ENDMDL
MODEL 3
REMARK VINA RESULT:     -10.0      3.002      5.651
REMARK  Name = 42627769
REMARK  10 active torsions:
REMARK  status: ('A' for Active; 'I' for Inactive)
REMARK    1  A    between atoms: C_1  and  C_3
REMARK    2  A    between atoms: C_1  and  N_6
REMARK    3  A    between atoms: C_1  and  C_22
REMARK    4  A    between atoms: C_3  and  O_4
REMARK    5  A    between atoms: N_6  and  S_8
REMARK    6  A    between atoms: S_8  and  C_11
REMARK    7  A    between atoms: C_16  and  O_17
REMARK    8  A    between atoms: O_17  and  C_18
REMARK    9  A    between atoms: C_18  and  C_19
REMARK   10  A    between atoms: C_22  and  C_24
REMARK                            x       y       z     vdW  Elec       q    Type
REMARK                         _______ _______ _______ _____ _____    ______ ____
ROOT
ATOM      1  C   UNL     1      34.355 -20.438 -20.487  0.00  0.00    +0.178 C 
ENDROOT
BRANCH   1   3
ATOM      2  O   UNL     1      32.197 -20.189 -21.587  0.00  0.00    -0.249 OA
ATOM      3  C   UNL     1      32.853 -20.553 -20.619  0.00  0.00    +0.330 C 
BRANCH   3   4
ATOM      4  O   UNL     1      32.290 -21.123 -19.521  0.00  0.00    -0.479 OA
ATOM      5  H   UNL     1      31.747 -20.611 -18.954  0.00  0.00    +0.295 HD
ENDBRANCH   3   4
ENDBRANCH   1   3
BRANCH   1   6
ATOM      6  N   UNL     1      34.852 -19.799 -21.728  0.00  0.00    -0.170 NA
ATOM      7  H   UNL     1      35.097 -20.551 -22.371  0.00  0.00    +0.149 HD
BRANCH   6   8
ATOM      8  S   UNL     1      36.189 -18.754 -21.664  0.00  0.00    +0.061 S 
ATOM      9  O   UNL     1      37.078 -19.037 -22.775  0.00  0.00    -0.153 OA
ATOM     10  O   UNL     1      36.701 -18.733 -20.307  0.00  0.00    -0.153 OA
BRANCH   8  11
ATOM     11  C   UNL     1      35.437 -17.181 -21.956  0.00  0.00    +0.122 C 
ATOM     12  C   UNL     1      35.181 -16.763 -23.261  0.00  0.00    +0.023 C 
ATOM     13  C   UNL     1      35.101 -16.358 -20.881  0.00  0.00    +0.023 C 
ATOM     14  C   UNL     1      34.590 -15.521 -23.493  0.00  0.00    +0.038 C 
ATOM     15  C   UNL     1      34.510 -15.116 -21.113  0.00  0.00    +0.038 C 
ATOM     16  C   UNL     1      34.254 -14.697 -22.418  0.00  0.00    +0.140 C 
BRANCH  16  17
ATOM     17  O   UNL     1      33.678 -13.486 -22.644  0.00  0.00    -0.461 OA
BRANCH  17  18
ATOM     18  C   UNL     1      33.686 -13.002 -23.987  0.00  0.00    +0.281 C 
BRANCH  18  19
ATOM     19  C   UNL     1      34.017 -11.578 -23.996  0.00  0.00    -0.044 C 
ATOM     20  C   UNL     1      34.288 -10.408 -24.007  0.00  0.00    -0.086 C 
ATOM     21  C   UNL     1      34.616  -8.984 -24.019  0.00  0.00    +0.090 C 
ENDBRANCH  18  19
ENDBRANCH  17  18
ENDBRANCH  16  17
ENDBRANCH   8  11
ENDBRANCH   6   8
ENDBRANCH   1   6
BRANCH   1  22
ATOM     22  C   UNL     1      35.026 -21.817 -20.315  0.00  0.00    +0.056 C 
BRANCH  22  24
ATOM     23  N   UNL     1      37.009 -22.123 -17.264  0.00  0.00    -0.312 N 
ATOM     24  C   UNL     1      35.589 -22.045 -18.969  0.00  0.00    -0.004 C 
ATOM     25  C   UNL     1      34.902 -22.577 -17.842  0.00  0.00    +0.010 C 
ATOM     26  C   UNL     1      35.816 -22.616 -16.786  0.00  0.00    +0.048 C 
ATOM     27  C   UNL     1      36.882 -21.775 -18.582  0.00  0.00    +0.058 C 
ATOM     28  C   UNL     1      33.588 -23.033 -17.619  0.00  0.00    -0.003 C 
ATOM     29  C   UNL     1      35.479 -23.089 -15.513  0.00  0.00    +0.014 C 
ATOM     30  C   UNL     1      33.237 -23.508 -16.350  0.00  0.00    -0.022 C 
ATOM     31  C   UNL     1      34.169 -23.535 -15.315  0.00  0.00    -0.003 C 
ATOM     32  C   UNL     1      31.845 -23.991 -16.106  0.00  0.00    +0.031 C 
ATOM     33  H   UNL     1      37.835 -22.033 -16.735  0.00  0.00    +0.152 HD
ENDBRANCH  22  24
ENDBRANCH   1  22
TORSDOF 10
ENDMDL
MODEL 4
REMARK VINA RESULT:     -10.0      6.397     13.666
REMARK  Name = 42627769
REMARK  10 active torsions:
REMARK  status: ('A' for Active; 'I' for Inactive)
REMARK    1  A    between atoms: C_1  and  C_3
REMARK    2  A    between atoms: C_1  and  N_6
REMARK    3  A    between atoms: C_1  and  C_22
REMARK    4  A    between atoms: C_3  and  O_4
REMARK    5  A    between atoms: N_6  and  S_8
REMARK    6  A    between atoms: S_8  and  C_11
REMARK    7  A    between atoms: C_16  and  O_17
REMARK    8  A    between atoms: O_17  and  C_18
REMARK    9  A    between atoms: C_18  and  C_19
REMARK   10  A    between atoms: C_22  and  C_24
REMARK                            x       y       z     vdW  Elec       q    Type
REMARK                         _______ _______ _______ _____ _____    ______ ____
ROOT
ATOM      1  C   UNL     1      34.193 -10.967 -23.971  0.00  0.00    +0.178 C 
ENDROOT
BRANCH   1   3
ATOM      2  O   UNL     1      35.641 -10.663 -25.905  0.00  0.00    -0.249 OA
ATOM      3  C   UNL     1      34.582 -11.053 -25.430  0.00  0.00    +0.330 C 
BRANCH   3   4
ATOM      4  O   UNL     1      33.607 -11.630 -26.180  0.00  0.00    -0.479 OA
ATOM      5  H   UNL     1      33.095 -12.330 -25.826  0.00  0.00    +0.295 HD
ENDBRANCH   3   4
ENDBRANCH   1   3
BRANCH   1   6
ATOM      6  N   UNL     1      34.483 -12.289 -23.367  0.00  0.00    -0.170 NA
ATOM      7  H   UNL     1      35.322 -12.645 -23.823  0.00  0.00    +0.149 HD
BRANCH   6   8
ATOM      8  S   UNL     1      33.321 -13.525 -23.443  0.00  0.00    +0.061 S 
ATOM      9  O   UNL     1      33.120 -13.915 -24.826  0.00  0.00    -0.153 OA
ATOM     10  O   UNL     1      32.187 -13.153 -22.618  0.00  0.00    -0.153 OA
BRANCH   8  11
ATOM     11  C   UNL     1      34.146 -14.852 -22.618  0.00  0.00    +0.122 C 
ATOM     12  C   UNL     1      34.726 -15.881 -23.359  0.00  0.00    +0.023 C 
ATOM     13  C   UNL     1      34.215 -14.872 -21.225  0.00  0.00    +0.023 C 
ATOM     14  C   UNL     1      35.375 -16.930 -22.708  0.00  0.00    +0.038 C 
ATOM     15  C   UNL     1      34.864 -15.921 -20.574  0.00  0.00    +0.038 C 
ATOM     16  C   UNL     1      35.444 -16.950 -21.315  0.00  0.00    +0.140 C 
BRANCH  16  17
ATOM     17  O   UNL     1      36.077 -17.973 -20.680  0.00  0.00    -0.461 OA
BRANCH  17  18
ATOM     18  C   UNL     1      36.129 -19.227 -21.360  0.00  0.00    +0.281 C 
BRANCH  18  19
ATOM     19  C   UNL     1      35.151 -20.144 -20.779  0.00  0.00    -0.044 C 
ATOM     20  C   UNL     1      34.349 -20.899 -20.298  0.00  0.00    -0.086 C 
ATOM     21  C   UNL     1      33.372 -21.816 -19.714  0.00  0.00    +0.090 C 
ENDBRANCH  18  19
ENDBRANCH  17  18
ENDBRANCH  16  17
ENDBRANCH   8  11
ENDBRANCH   6   8
ENDBRANCH   1   6
BRANCH   1  22
ATOM     22  C   UNL     1      32.696 -10.636 -23.792  0.00  0.00    +0.056 C 
BRANCH  22  24
ATOM     23  N   UNL     1      31.916  -8.864 -20.696  0.00  0.00    -0.312 N 
ATOM     24  C   UNL     1      32.421  -9.686 -22.695  0.00  0.00    -0.004 C 
ATOM     25  C   UNL     1      32.448  -8.266 -22.778  0.00  0.00    +0.010 C 
ATOM     26  C   UNL     1      32.127  -7.775 -21.510  0.00  0.00    +0.048 C 
ATOM     27  C   UNL     1      32.092 -10.024 -21.403  0.00  0.00    +0.058 C 
ATOM     28  C   UNL     1      32.713  -7.348 -23.813  0.00  0.00    -0.003 C 
ATOM     29  C   UNL     1      32.058  -6.407 -21.225  0.00  0.00    +0.014 C 
ATOM     30  C   UNL     1      32.648  -5.976 -23.543  0.00  0.00    -0.022 C 
ATOM     31  C   UNL     1      32.327  -5.515 -22.268  0.00  0.00    -0.003 C 
ATOM     32  C   UNL     1      32.930  -4.998 -24.635  0.00  0.00    +0.031 C 
ATOM     33  H   UNL     1      31.674  -8.817 -19.742  0.00  0.00    +0.152 HD
ENDBRANCH  22  24
ENDBRANCH   1  22
TORSDOF 10
ENDMDL
MODEL 5
REMARK VINA RESULT:     -10.0      9.083     15.417
REMARK  Name = 42627769
REMARK  10 active torsions:
REMARK  status: ('A' for Active; 'I' for Inactive)
REMARK    1  A    between atoms: C_1  and  C_3
REMARK    2  A    between atoms: C_1  and  N_6
REMARK    3  A    between atoms: C_1  and  C_22
REMARK    4  A    between atoms: C_3  and  O_4
REMARK    5  A    between atoms: N_6  and  S_8
REMARK    6  A    between atoms: S_8  and  C_11
REMARK    7  A    between atoms: C_16  and  O_17
REMARK    8  A    between atoms: O_17  and  C_18
REMARK    9  A    between atoms: C_18  and  C_19
REMARK   10  A    between atoms: C_22  and  C_24
REMARK                            x       y       z     vdW  Elec       q    Type
REMARK                         _______ _______ _______ _____ _____    ______ ____
ROOT
ATOM      1  C   UNL     1      32.278  -9.165 -21.475  0.00  0.00    +0.178 C 
ENDROOT
BRANCH   1   3
ATOM      2  O   UNL     1      30.823 -10.306 -19.891  0.00  0.00    -0.249 OA
ATOM      3  C   UNL     1      31.843  -9.667 -20.117  0.00  0.00    +0.330 C 
BRANCH   3   4
ATOM      4  O   UNL     1      32.731  -9.330 -19.145  0.00  0.00    -0.479 OA
ATOM      5  H   UNL     1      33.648  -9.310 -19.334  0.00  0.00    +0.295 HD
ENDBRANCH   3   4
ENDBRANCH   1   3
BRANCH   1   6
ATOM      6  N   UNL     1      33.070 -10.248 -22.104  0.00  0.00    -0.170 NA
ATOM      7  H   UNL     1      33.929 -10.339 -21.563  0.00  0.00    +0.149 HD
BRANCH   6   8
ATOM      8  S   UNL     1      33.528 -10.123 -23.735  0.00  0.00    +0.061 S 
ATOM      9  O   UNL     1      34.912  -9.696 -23.817  0.00  0.00    -0.153 OA
ATOM     10  O   UNL     1      32.497  -9.399 -24.456  0.00  0.00    -0.153 OA
BRANCH   8  11
ATOM     11  C   UNL     1      33.445 -11.806 -24.267  0.00  0.00    +0.122 C 
ATOM     12  C   UNL     1      33.402 -12.104 -25.629  0.00  0.00    +0.023 C 
ATOM     13  C   UNL     1      33.419 -12.835 -23.326  0.00  0.00    +0.023 C 
ATOM     14  C   UNL     1      33.334 -13.432 -26.050  0.00  0.00    +0.038 C 
ATOM     15  C   UNL     1      33.351 -14.163 -23.747  0.00  0.00    +0.038 C 
ATOM     16  C   UNL     1      33.309 -14.462 -25.109  0.00  0.00    +0.140 C 
BRANCH  16  17
ATOM     17  O   UNL     1      33.241 -15.757 -25.520  0.00  0.00    -0.461 OA
BRANCH  17  18
ATOM     18  C   UNL     1      34.476 -16.454 -25.679  0.00  0.00    +0.281 C 
BRANCH  18  19
ATOM     19  C   UNL     1      34.579 -17.512 -24.676  0.00  0.00    -0.044 C 
ATOM     20  C   UNL     1      34.666 -18.381 -23.850  0.00  0.00    -0.086 C 
ATOM     21  C   UNL     1      34.771 -19.437 -22.845  0.00  0.00    +0.090 C 
ENDBRANCH  18  19
ENDBRANCH  17  18
ENDBRANCH  16  17
ENDBRANCH   8  11
ENDBRANCH   6   8
ENDBRANCH   1   6
BRANCH   1  22
ATOM     22  C   UNL     1      33.144  -7.891 -21.369  0.00  0.00    +0.056 C 
BRANCH  22  24
ATOM     23  N   UNL     1      31.100  -4.937 -22.026  0.00  0.00    -0.312 N 
ATOM     24  C   UNL     1      32.477  -6.671 -21.867  0.00  0.00    -0.004 C 
ATOM     25  C   UNL     1      32.793  -5.960 -23.059  0.00  0.00    +0.010 C 
ATOM     26  C   UNL     1      31.915  -4.877 -23.134  0.00  0.00    +0.048 C 
ATOM     27  C   UNL     1      31.433  -6.018 -21.254  0.00  0.00    +0.058 C 
ATOM     28  C   UNL     1      33.744  -6.135 -24.083  0.00  0.00    -0.003 C 
ATOM     29  C   UNL     1      31.940  -3.956 -24.188  0.00  0.00    +0.014 C 
ATOM     30  C   UNL     1      33.781  -5.222 -25.143  0.00  0.00    -0.022 C 
ATOM     31  C   UNL     1      32.893  -4.150 -25.192  0.00  0.00    -0.003 C 
ATOM     32  C   UNL     1      34.788  -5.400 -26.231  0.00  0.00    +0.031 C 
ATOM     33  H   UNL     1      30.383  -4.296 -21.818  0.00  0.00    +0.152 HD
ENDBRANCH  22  24
ENDBRANCH   1  22
TORSDOF 10
ENDMDL
MODEL 6
REMARK VINA RESULT:      -9.9      2.747      4.627
REMARK  Name = 42627769
REMARK  10 active torsions:
REMARK  status: ('A' for Active; 'I' for Inactive)
REMARK    1  A    between atoms: C_1  and  C_3
REMARK    2  A    between atoms: C_1  and  N_6
REMARK    3  A    between atoms: C_1  and  C_22
REMARK    4  A    between atoms: C_3  and  O_4
REMARK    5  A    between atoms: N_6  and  S_8
REMARK    6  A    between atoms: S_8  and  C_11
REMARK    7  A    between atoms: C_16  and  O_17
REMARK    8  A    between atoms: O_17  and  C_18
REMARK    9  A    between atoms: C_18  and  C_19
REMARK   10  A    between atoms: C_22  and  C_24
REMARK                            x       y       z     vdW  Elec       q    Type
REMARK                         _______ _______ _______ _____ _____    ______ ____
ROOT
ATOM      1  C   UNL     1      34.708 -22.920 -16.275  0.00  0.00    +0.178 C 
ENDROOT
BRANCH   1   3
ATOM      2  O   UNL     1      34.959 -25.336 -16.104  0.00  0.00    -0.249 OA
ATOM      3  C   UNL     1      34.391 -24.307 -15.762  0.00  0.00    +0.330 C 
BRANCH   3   4
ATOM      4  O   UNL     1      33.383 -24.291 -14.850  0.00  0.00    -0.479 OA
ATOM      5  H   UNL     1      33.505 -24.686 -14.010  0.00  0.00    +0.295 HD
ENDBRANCH   3   4
ENDBRANCH   1   3
BRANCH   1   6
ATOM      6  N   UNL     1      35.113 -23.065 -17.693  0.00  0.00    -0.170 NA
ATOM      7  H   UNL     1      35.840 -22.372 -17.865  0.00  0.00    +0.149 HD
BRANCH   6   8
ATOM      8  S   UNL     1      33.959 -22.882 -18.925  0.00  0.00    +0.061 S 
ATOM      9  O   UNL     1      32.702 -22.442 -18.349  0.00  0.00    -0.153 OA
ATOM     10  O   UNL     1      33.998 -24.054 -19.780  0.00  0.00    -0.153 OA
BRANCH   8  11
ATOM     11  C   UNL     1      34.631 -21.540 -19.858  0.00  0.00    +0.122 C 
ATOM     12  C   UNL     1      33.790 -20.737 -20.628  0.00  0.00    +0.023 C 
ATOM     13  C   UNL     1      36.002 -21.285 -19.826  0.00  0.00    +0.023 C 
ATOM     14  C   UNL     1      34.320 -19.679 -21.367  0.00  0.00    +0.038 C 
ATOM     15  C   UNL     1      36.532 -20.227 -20.564  0.00  0.00    +0.038 C 
ATOM     16  C   UNL     1      35.692 -19.424 -21.334  0.00  0.00    +0.140 C 
BRANCH  16  17
ATOM     17  O   UNL     1      36.208 -18.392 -22.055  0.00  0.00    -0.461 OA
BRANCH  17  18
ATOM     18  C   UNL     1      35.500 -18.002 -23.231  0.00  0.00    +0.281 C 
BRANCH  18  19
ATOM     19  C   UNL     1      35.077 -16.608 -23.112  0.00  0.00    -0.044 C 
ATOM     20  C   UNL     1      34.728 -15.462 -23.017  0.00  0.00    -0.086 C 
ATOM     21  C   UNL     1      34.302 -14.068 -22.900  0.00  0.00    +0.090 C 
ENDBRANCH  18  19
ENDBRANCH  17  18
ENDBRANCH  16  17
ENDBRANCH   8  11
ENDBRANCH   6   8
ENDBRANCH   1   6
BRANCH   1  22
ATOM     22  C   UNL     1      35.852 -22.258 -15.479  0.00  0.00    +0.056 C 
BRANCH  22  24
ATOM     23  N   UNL     1      38.755 -24.441 -15.111  0.00  0.00    -0.312 N 
ATOM     24  C   UNL     1      36.919 -23.195 -15.073  0.00  0.00    -0.004 C 
ATOM     25  C   UNL     1      37.018 -23.879 -13.829  0.00  0.00    +0.010 C 
ATOM     26  C   UNL     1      38.178 -24.654 -13.879  0.00  0.00    +0.048 C 
ATOM     27  C   UNL     1      38.001 -23.560 -15.839  0.00  0.00    +0.058 C 
ATOM     28  C   UNL     1      36.228 -23.914 -12.663  0.00  0.00    -0.003 C 
ATOM     29  C   UNL     1      38.591 -25.466 -12.817  0.00  0.00    +0.014 C 
ATOM     30  C   UNL     1      36.628 -24.721 -11.592  0.00  0.00    -0.022 C 
ATOM     31  C   UNL     1      37.792 -25.484 -11.669  0.00  0.00    -0.003 C 
ATOM     32  C   UNL     1      35.798 -24.762 -10.352  0.00  0.00    +0.031 C 
ATOM     33  H   UNL     1      39.589 -24.861 -15.423  0.00  0.00    +0.152 HD
ENDBRANCH  22  24
ENDBRANCH   1  22
TORSDOF 10
ENDMDL
MODEL 7
REMARK VINA RESULT:      -9.8      5.722     12.927
REMARK  Name = 42627769
REMARK  10 active torsions:
REMARK  status: ('A' for Active; 'I' for Inactive)
REMARK    1  A    between atoms: C_1  and  C_3
REMARK    2  A    between atoms: C_1  and  N_6
REMARK    3  A    between atoms: C_1  and  C_22
REMARK    4  A    between atoms: C_3  and  O_4
REMARK    5  A    between atoms: N_6  and  S_8
REMARK    6  A    between atoms: S_8  and  C_11
REMARK    7  A    between atoms: C_16  and  O_17
REMARK    8  A    between atoms: O_17  and  C_18
REMARK    9  A    between atoms: C_18  and  C_19
REMARK   10  A    between atoms: C_22  and  C_24
REMARK                            x       y       z     vdW  Elec       q    Type
REMARK                         _______ _______ _______ _____ _____    ______ ____
ROOT
ATOM      1  C   UNL     1      33.638 -13.715 -25.363  0.00  0.00    +0.178 C 
ENDROOT
BRANCH   1   3
ATOM      2  O   UNL     1      32.001 -12.941 -26.991  0.00  0.00    -0.249 OA
ATOM      3  C   UNL     1      33.135 -13.326 -26.735  0.00  0.00    +0.330 C 
BRANCH   3   4
ATOM      4  O   UNL     1      34.103 -13.446 -27.682  0.00  0.00    -0.479 OA
ATOM      5  H   UNL     1      34.970 -13.703 -27.436  0.00  0.00    +0.295 HD
ENDBRANCH   3   4
ENDBRANCH   1   3
BRANCH   1   6
ATOM      6  N   UNL     1      33.054 -15.040 -25.048  0.00  0.00    -0.170 NA
ATOM      7  H   UNL     1      33.024 -15.116 -24.032  0.00  0.00    +0.149 HD
BRANCH   6   8
ATOM      8  S   UNL     1      33.801 -16.452 -25.624  0.00  0.00    +0.061 S 
ATOM      9  O   UNL     1      34.906 -16.094 -26.493  0.00  0.00    -0.153 OA
ATOM     10  O   UNL     1      32.775 -17.367 -26.088  0.00  0.00    -0.153 OA
BRANCH   8  11
ATOM     11  C   UNL     1      34.473 -17.140 -24.142  0.00  0.00    +0.122 C 
ATOM     12  C   UNL     1      34.556 -18.523 -23.991  0.00  0.00    +0.023 C 
ATOM     13  C   UNL     1      34.918 -16.299 -23.121  0.00  0.00    +0.023 C 
ATOM     14  C   UNL     1      35.084 -19.067 -22.820  0.00  0.00    +0.038 C 
ATOM     15  C   UNL     1      35.446 -16.843 -21.950  0.00  0.00    +0.038 C 
ATOM     16  C   UNL     1      35.530 -18.226 -21.800  0.00  0.00    +0.140 C 
BRANCH  16  17
ATOM     17  O   UNL     1      36.044 -18.757 -20.657  0.00  0.00    -0.461 OA
BRANCH  17  18
ATOM     18  C   UNL     1      36.587 -20.074 -20.739  0.00  0.00    +0.281 C 
BRANCH  18  19
ATOM     19  C   UNL     1      35.669 -21.026 -20.117  0.00  0.00    -0.044 C 
ATOM     20  C   UNL     1      34.916 -21.808 -19.603  0.00  0.00    -0.086 C 
ATOM     21  C   UNL     1      33.998 -22.759 -18.979  0.00  0.00    +0.090 C 
ENDBRANCH  18  19
ENDBRANCH  17  18
ENDBRANCH  16  17
ENDBRANCH   8  11
ENDBRANCH   6   8
ENDBRANCH   1   6
BRANCH   1  22
ATOM     22  C   UNL     1      33.216 -12.697 -24.283  0.00  0.00    +0.056 C 
BRANCH  22  24
ATOM     23  N   UNL     1      35.265  -9.778 -25.068  0.00  0.00    -0.312 N 
ATOM     24  C   UNL     1      33.900 -11.392 -24.391  0.00  0.00    -0.004 C 
ATOM     25  C   UNL     1      33.653 -10.238 -23.596  0.00  0.00    +0.010 C 
ATOM     26  C   UNL     1      34.522  -9.240 -24.042  0.00  0.00    +0.048 C 
ATOM     27  C   UNL     1      34.896 -11.078 -25.287  0.00  0.00    +0.058 C 
ATOM     28  C   UNL     1      32.771  -9.946 -22.537  0.00  0.00    -0.003 C 
ATOM     29  C   UNL     1      34.555  -7.960 -23.478  0.00  0.00    +0.014 C 
ATOM     30  C   UNL     1      32.792  -8.669 -21.964  0.00  0.00    -0.022 C 
ATOM     31  C   UNL     1      33.670  -7.693 -22.429  0.00  0.00    -0.003 C 
ATOM     32  C   UNL     1      31.859  -8.352 -20.842  0.00  0.00    +0.031 C 
ATOM     33  H   UNL     1      35.961  -9.298 -25.573  0.00  0.00    +0.152 HD
ENDBRANCH  22  24
ENDBRANCH   1  22
TORSDOF 10
ENDMDL
MODEL 8
REMARK VINA RESULT:      -9.7      2.510      4.780
REMARK  Name = 42627769
REMARK  10 active torsions:
REMARK  status: ('A' for Active; 'I' for Inactive)
REMARK    1  A    between atoms: C_1  and  C_3
REMARK    2  A    between atoms: C_1  and  N_6
REMARK    3  A    between atoms: C_1  and  C_22
REMARK    4  A    between atoms: C_3  and  O_4
REMARK    5  A    between atoms: N_6  and  S_8
REMARK    6  A    between atoms: S_8  and  C_11
REMARK    7  A    between atoms: C_16  and  O_17
REMARK    8  A    between atoms: O_17  and  C_18
REMARK    9  A    between atoms: C_18  and  C_19
REMARK   10  A    between atoms: C_22  and  C_24
REMARK                            x       y       z     vdW  Elec       q    Type
REMARK                         _______ _______ _______ _____ _____    ______ ____
ROOT
ATOM      1  C   UNL     1      34.478 -23.148 -15.900  0.00  0.00    +0.178 C 
ENDROOT
BRANCH   1   3
ATOM      2  O   UNL     1      32.993 -24.779 -14.870  0.00  0.00    -0.249 OA
ATOM      3  C   UNL     1      34.016 -24.529 -15.494  0.00  0.00    +0.330 C 
BRANCH   3   4
ATOM      4  O   UNL     1      34.879 -25.494 -15.910  0.00  0.00    -0.479 OA
ATOM      5  H   UNL     1      34.551 -26.322 -16.202  0.00  0.00    +0.295 HD
ENDBRANCH   3   4
ENDBRANCH   1   3
BRANCH   1   6
ATOM      6  N   UNL     1      34.971 -23.249 -17.294  0.00  0.00    -0.170 NA
ATOM      7  H   UNL     1      35.669 -22.516 -17.415  0.00  0.00    +0.149 HD
BRANCH   6   8
ATOM      8  S   UNL     1      33.881 -23.107 -18.588  0.00  0.00    +0.061 S 
ATOM      9  O   UNL     1      32.601 -22.637 -18.093  0.00  0.00    -0.153 OA
ATOM     10  O   UNL     1      33.954 -24.310 -19.395  0.00  0.00    -0.153 OA
BRANCH   8  11
ATOM     11  C   UNL     1      34.608 -21.805 -19.537  0.00  0.00    +0.122 C 
ATOM     12  C   UNL     1      33.802 -20.977 -20.316  0.00  0.00    +0.023 C 
ATOM     13  C   UNL     1      35.989 -21.609 -19.508  0.00  0.00    +0.023 C 
ATOM     14  C   UNL     1      34.376 -19.950 -21.067  0.00  0.00    +0.038 C 
ATOM     15  C   UNL     1      36.563 -20.582 -20.259  0.00  0.00    +0.038 C 
ATOM     16  C   UNL     1      35.757 -19.753 -21.038  0.00  0.00    +0.140 C 
BRANCH  16  17
ATOM     17  O   UNL     1      36.316 -18.753 -21.771  0.00  0.00    -0.461 OA
BRANCH  17  18
ATOM     18  C   UNL     1      35.694 -18.431 -23.014  0.00  0.00    +0.281 C 
BRANCH  18  19
ATOM     19  C   UNL     1      35.253 -17.038 -22.999  0.00  0.00    -0.044 C 
ATOM     20  C   UNL     1      34.890 -15.893 -22.984  0.00  0.00    -0.086 C 
ATOM     21  C   UNL     1      34.450 -14.498 -22.967  0.00  0.00    +0.090 C 
ENDBRANCH  18  19
ENDBRANCH  17  18
ENDBRANCH  16  17
ENDBRANCH   8  11
ENDBRANCH   6   8
ENDBRANCH   1   6
BRANCH   1  22
ATOM     22  C   UNL     1      35.612 -22.628 -14.991  0.00  0.00    +0.056 C 
BRANCH  22  24
ATOM     23  N   UNL     1      35.955 -24.720 -12.017  0.00  0.00    -0.312 N 
ATOM     24  C   UNL     1      35.989 -23.563 -13.912  0.00  0.00    -0.004 C 
ATOM     25  C   UNL     1      37.146 -24.392 -13.876  0.00  0.00    +0.010 C 
ATOM     26  C   UNL     1      37.100 -25.107 -12.677  0.00  0.00    +0.048 C 
ATOM     27  C   UNL     1      35.277 -23.788 -12.756  0.00  0.00    +0.058 C 
ATOM     28  C   UNL     1      38.231 -24.601 -14.749  0.00  0.00    -0.003 C 
ATOM     29  C   UNL     1      38.089 -26.025 -12.307  0.00  0.00    +0.014 C 
ATOM     30  C   UNL     1      39.227 -25.517 -14.392  0.00  0.00    -0.022 C 
ATOM     31  C   UNL     1      39.155 -26.217 -13.190  0.00  0.00    -0.003 C 
ATOM     32  C   UNL     1      40.379 -25.746 -15.314  0.00  0.00    +0.031 C 
ATOM     33  H   UNL     1      35.665 -25.064 -11.142  0.00  0.00    +0.152 HD
ENDBRANCH  22  24
ENDBRANCH   1  22
TORSDOF 10
ENDMDL
MODEL 9
REMARK VINA RESULT:      -9.5      9.823     15.959
REMARK  Name = 42627769
REMARK  10 active torsions:
REMARK  status: ('A' for Active; 'I' for Inactive)
REMARK    1  A    between atoms: C_1  and  C_3
REMARK    2  A    between atoms: C_1  and  N_6
REMARK    3  A    between atoms: C_1  and  C_22
REMARK    4  A    between atoms: C_3  and  O_4
REMARK    5  A    between atoms: N_6  and  S_8
REMARK    6  A    between atoms: S_8  and  C_11
REMARK    7  A    between atoms: C_16  and  O_17
REMARK    8  A    between atoms: O_17  and  C_18
REMARK    9  A    between atoms: C_18  and  C_19
REMARK   10  A    between atoms: C_22  and  C_24
REMARK                            x       y       z     vdW  Elec       q    Type
REMARK                         _______ _______ _______ _____ _____    ______ ____
ROOT
ATOM      1  C   UNL     1      31.850  -8.277 -21.942  0.00  0.00    +0.178 C 
ENDROOT
BRANCH   1   3
ATOM      2  O   UNL     1      34.118  -7.431 -22.202  0.00  0.00    -0.249 OA
ATOM      3  C   UNL     1      33.199  -7.781 -21.473  0.00  0.00    +0.330 C 
BRANCH   3   4
ATOM      4  O   UNL     1      33.286  -7.757 -20.117  0.00  0.00    -0.479 OA
ATOM      5  H   UNL     1      34.099  -7.547 -19.703  0.00  0.00    +0.295 HD
ENDBRANCH   3   4
ENDBRANCH   1   3
BRANCH   1   6
ATOM      6  N   UNL     1      32.004  -9.716 -22.259  0.00  0.00    -0.170 NA
ATOM      7  H   UNL     1      31.511  -9.882 -23.135  0.00  0.00    +0.149 HD
BRANCH   6   8
ATOM      8  S   UNL     1      31.455 -10.888 -21.158  0.00  0.00    +0.061 S 
ATOM      9  O   UNL     1      30.057 -11.177 -21.417  0.00  0.00    -0.153 OA
ATOM     10  O   UNL     1      31.888 -10.515 -19.824  0.00  0.00    -0.153 OA
BRANCH   8  11
ATOM     11  C   UNL     1      32.401 -12.304 -21.630  0.00  0.00    +0.122 C 
ATOM     12  C   UNL     1      32.525 -13.382 -20.755  0.00  0.00    +0.023 C 
ATOM     13  C   UNL     1      33.027 -12.341 -22.876  0.00  0.00    +0.023 C 
ATOM     14  C   UNL     1      33.273 -14.499 -21.126  0.00  0.00    +0.038 C 
ATOM     15  C   UNL     1      33.776 -13.458 -23.247  0.00  0.00    +0.038 C 
ATOM     16  C   UNL     1      33.899 -14.537 -22.372  0.00  0.00    +0.140 C 
BRANCH  16  17
ATOM     17  O   UNL     1      34.629 -15.627 -22.733  0.00  0.00    -0.461 OA
BRANCH  17  18
ATOM     18  C   UNL     1      34.985 -15.744 -24.110  0.00  0.00    +0.281 C 
BRANCH  18  19
ATOM     19  C   UNL     1      34.588 -17.058 -24.612  0.00  0.00    -0.044 C 
ATOM     20  C   UNL     1      34.265 -18.138 -25.026  0.00  0.00    -0.086 C 
ATOM     21  C   UNL     1      33.870 -19.453 -25.529  0.00  0.00    +0.090 C 
ENDBRANCH  18  19
ENDBRANCH  17  18
ENDBRANCH  16  17
ENDBRANCH   8  11
ENDBRANCH   6   8
ENDBRANCH   1   6
BRANCH   1  22
ATOM     22  C   UNL     1      31.363  -7.524 -23.198  0.00  0.00    +0.056 C 
BRANCH  22  24
ATOM     23  N   UNL     1      30.535  -4.139 -22.107  0.00  0.00    -0.312 N 
ATOM     24  C   UNL     1      31.168  -6.075 -22.989  0.00  0.00    -0.004 C 
ATOM     25  C   UNL     1      31.643  -5.027 -23.827  0.00  0.00    +0.010 C 
ATOM     26  C   UNL     1      31.232  -3.824 -23.250  0.00  0.00    +0.048 C 
ATOM     27  C   UNL     1      30.491  -5.498 -21.940  0.00  0.00    +0.058 C 
ATOM     28  C   UNL     1      32.385  -4.988 -25.024  0.00  0.00    -0.003 C 
ATOM     29  C   UNL     1      31.526  -2.577 -23.814  0.00  0.00    +0.014 C 
ATOM     30  C   UNL     1      32.686  -3.748 -25.599  0.00  0.00    -0.022 C 
ATOM     31  C   UNL     1      32.263  -2.562 -25.001  0.00  0.00    -0.003 C 
ATOM     32  C   UNL     1      33.473  -3.698 -26.867  0.00  0.00    +0.031 C 
ATOM     33  H   UNL     1      30.126  -3.484 -21.496  0.00  0.00    +0.152 HD
ENDBRANCH  22  24
ENDBRANCH   1  22
TORSDOF 10
ENDMDL
