MODEL 1
REMARK VINA RESULT:     -12.0      0.000      0.000
REMARK  Name = 66555680
REMARK  4 active torsions:
REMARK  status: ('A' for Active; 'I' for Inactive)
REMARK    1  A    between atoms: N_1  and  C_8
REMARK    2  A    between atoms: C_3  and  C_22
REMARK    3  A    between atoms: C_4  and  N_18
REMARK    4  A    between atoms: C_22  and  C_24
REMARK                            x       y       z     vdW  Elec       q    Type
REMARK                         _______ _______ _______ _____ _____    ______ ____
ROOT
ATOM      1  N   UNL     1      34.276 -15.246 -22.950  0.00  0.00    -0.177 N 
ATOM      2  N   UNL     1      34.306 -15.735 -24.202  0.00  0.00    -0.171 NA
ATOM      3  C   UNL     1      35.385 -17.116 -22.737  0.00  0.00    +0.090 C 
ATOM      4  C   UNL     1      34.908 -16.035 -22.034  0.00  0.00    +0.122 C 
ATOM      5  C   UNL     1      34.985 -16.877 -24.065  0.00  0.00    +0.124 C 
ENDROOT
BRANCH   1   8
ATOM      6  N   UNL     1      33.247 -10.508 -23.820  0.00  0.00    -0.318 N 
ATOM      7  N   UNL     1      31.820 -10.343 -22.122  0.00  0.00    -0.318 N 
ATOM      8  C   UNL     1      33.633 -14.031 -22.703  0.00  0.00    +0.077 C 
ATOM      9  C   UNL     1      33.228 -11.748 -23.235  0.00  0.00    +0.060 C 
ATOM     10  C   UNL     1      33.899 -12.935 -23.530  0.00  0.00    +0.032 C 
ATOM     11  C   UNL     1      32.331 -11.619 -22.178  0.00  0.00    +0.059 C 
ATOM     12  C   UNL     1      32.738 -13.933 -21.635  0.00  0.00    +0.018 C 
ATOM     13  C   UNL     1      32.076 -12.731 -21.357  0.00  0.00    +0.017 C 
ATOM     14  C   UNL     1      32.390  -9.704 -23.120  0.00  0.00    +0.144 C 
ATOM     15  C   UNL     1      32.181  -8.295 -23.499  0.00  0.00    +0.044 C 
ATOM     16  H   UNL     1      33.780 -10.244 -24.604  0.00  0.00    +0.148 HD
ATOM     17  H   UNL     1      31.170  -9.985 -21.476  0.00  0.00    +0.148 HD
ENDBRANCH   1   8
BRANCH   4  18
ATOM     18  N   UNL     1      34.978 -15.704 -20.727  0.00  0.00    -0.344 N 
ATOM     19  H   UNL     1      34.606 -14.847 -20.415  0.00  0.00    +0.144 HD
ATOM     20  H   UNL     1      35.402 -16.319 -20.085  0.00  0.00    +0.144 HD
ENDBRANCH   4  18
BRANCH   3  22
ATOM     21  O   UNL     1      37.381 -18.302 -22.454  0.00  0.00    -0.285 OA
ATOM     22  C   UNL     1      36.160 -18.280 -22.172  0.00  0.00    +0.213 C 
BRANCH  22  24
ATOM     23  N   UNL     1      36.271 -20.103 -20.513  0.00  0.00    -0.310 N 
ATOM     24  C   UNL     1      35.565 -19.302 -21.370  0.00  0.00    +0.088 C 
ATOM     25  C   UNL     1      35.424 -20.988 -19.885  0.00  0.00    +0.048 C 
ATOM     26  C   UNL     1      34.136 -20.735 -20.363  0.00  0.00    +0.015 C 
ATOM     27  C   UNL     1      34.241 -19.669 -21.301  0.00  0.00    +0.019 C 
ATOM     28  C   UNL     1      35.695 -21.982 -18.939  0.00  0.00    +0.015 C 
ATOM     29  C   UNL     1      33.067 -21.511 -19.875  0.00  0.00    +0.001 C 
ATOM     30  C   UNL     1      34.619 -22.739 -18.469  0.00  0.00    +0.001 C 
ATOM     31  C   UNL     1      33.324 -22.509 -18.929  0.00  0.00    +0.000 C 
ATOM     32  H   UNL     1      37.243 -20.054 -20.367  0.00  0.00    +0.152 HD
ENDBRANCH  22  24
ENDBRANCH   3  22
TORSDOF 4
ENDMDL
MODEL 2
REMARK VINA RESULT:     -11.6      3.734      6.132
REMARK  Name = 66555680
REMARK  4 active torsions:
REMARK  status: ('A' for Active; 'I' for Inactive)
REMARK    1  A    between atoms: N_1  and  C_8
REMARK    2  A    between atoms: C_3  and  C_22
REMARK    3  A    between atoms: C_4  and  N_18
REMARK    4  A    between atoms: C_22  and  C_24
REMARK                            x       y       z     vdW  Elec       q    Type
REMARK                         _______ _______ _______ _____ _____    ______ ____
ROOT
ATOM      1  N   UNL     1      35.215 -20.228 -20.688  0.00  0.00    -0.177 N 
ATOM      2  N   UNL     1      36.411 -20.566 -20.176  0.00  0.00    -0.171 NA
ATOM      3  C   UNL     1      34.807 -22.100 -19.640  0.00  0.00    +0.090 C 
ATOM      4  C   UNL     1      34.220 -21.114 -20.395  0.00  0.00    +0.122 C 
ATOM      5  C   UNL     1      36.155 -21.711 -19.537  0.00  0.00    +0.124 C 
ENDROOT
BRANCH   1   8
ATOM      6  N   UNL     1      34.176 -17.643 -24.750  0.00  0.00    -0.318 N 
ATOM      7  N   UNL     1      34.681 -15.686 -23.824  0.00  0.00    -0.318 N 
ATOM      8  C   UNL     1      35.096 -19.057 -21.438  0.00  0.00    +0.077 C 
ATOM      9  C   UNL     1      34.560 -17.933 -23.466  0.00  0.00    +0.060 C 
ATOM     10  C   UNL     1      34.659 -19.135 -22.765  0.00  0.00    +0.032 C 
ATOM     11  C   UNL     1      34.869 -16.696 -22.909  0.00  0.00    +0.059 C 
ATOM     12  C   UNL     1      35.414 -17.830 -20.852  0.00  0.00    +0.018 C 
ATOM     13  C   UNL     1      35.307 -16.635 -21.575  0.00  0.00    +0.017 C 
ATOM     14  C   UNL     1      34.265 -16.288 -24.916  0.00  0.00    +0.144 C 
ATOM     15  C   UNL     1      33.918 -15.650 -26.199  0.00  0.00    +0.044 C 
ATOM     16  H   UNL     1      33.888 -18.293 -25.430  0.00  0.00    +0.148 HD
ATOM     17  H   UNL     1      34.825 -14.721 -23.691  0.00  0.00    +0.148 HD
ENDBRANCH   1   8
BRANCH   4  18
ATOM     18  N   UNL     1      32.952 -20.938 -20.826  0.00  0.00    -0.344 N 
ATOM     19  H   UNL     1      32.565 -21.559 -21.485  0.00  0.00    +0.144 HD
ATOM     20  H   UNL     1      32.415 -20.189 -20.481  0.00  0.00    +0.144 HD
ENDBRANCH   4  18
BRANCH   3  22
ATOM     21  O   UNL     1      34.140 -24.337 -19.793  0.00  0.00    -0.285 OA
ATOM     22  C   UNL     1      34.123 -23.316 -19.066  0.00  0.00    +0.213 C 
BRANCH  22  24
ATOM     23  N   UNL     1      32.145 -23.150 -17.601  0.00  0.00    -0.310 N 
ATOM     24  C   UNL     1      33.490 -23.327 -17.785  0.00  0.00    +0.088 C 
ATOM     25  C   UNL     1      31.838 -23.212 -16.259  0.00  0.00    +0.048 C 
ATOM     26  C   UNL     1      33.034 -23.436 -15.574  0.00  0.00    +0.015 C 
ATOM     27  C   UNL     1      34.068 -23.506 -16.550  0.00  0.00    +0.019 C 
ATOM     28  C   UNL     1      30.606 -23.087 -15.608  0.00  0.00    +0.015 C 
ATOM     29  C   UNL     1      33.001 -23.542 -14.170  0.00  0.00    +0.001 C 
ATOM     30  C   UNL     1      30.598 -23.196 -14.215  0.00  0.00    +0.001 C 
ATOM     31  C   UNL     1      31.776 -23.419 -13.504  0.00  0.00    +0.000 C 
ATOM     32  H   UNL     1      31.492 -23.001 -18.322  0.00  0.00    +0.152 HD
ENDBRANCH  22  24
ENDBRANCH   3  22
TORSDOF 4
ENDMDL
MODEL 3
REMARK VINA RESULT:     -11.5      3.041      5.841
REMARK  Name = 66555680
REMARK  4 active torsions:
REMARK  status: ('A' for Active; 'I' for Inactive)
REMARK    1  A    between atoms: N_1  and  C_8
REMARK    2  A    between atoms: C_3  and  C_22
REMARK    3  A    between atoms: C_4  and  N_18
REMARK    4  A    between atoms: C_22  and  C_24
REMARK                            x       y       z     vdW  Elec       q    Type
REMARK                         _______ _______ _______ _____ _____    ______ ____
ROOT
ATOM      1  N   UNL     1      35.509 -19.936 -20.803  0.00  0.00    -0.177 N 
ATOM      2  N   UNL     1      36.763 -20.191 -20.392  0.00  0.00    -0.171 NA
ATOM      3  C   UNL     1      35.271 -21.678 -19.508  0.00  0.00    +0.090 C 
ATOM      4  C   UNL     1      34.577 -20.797 -20.302  0.00  0.00    +0.122 C 
ATOM      5  C   UNL     1      36.610 -21.257 -19.601  0.00  0.00    +0.124 C 
ENDROOT
BRANCH   1   8
ATOM      6  N   UNL     1      34.656 -15.204 -21.877  0.00  0.00    -0.318 N 
ATOM      7  N   UNL     1      34.570 -15.554 -24.071  0.00  0.00    -0.318 N 
ATOM      8  C   UNL     1      35.276 -18.863 -21.666  0.00  0.00    +0.077 C 
ATOM      9  C   UNL     1      34.868 -16.549 -22.042  0.00  0.00    +0.060 C 
ATOM     10  C   UNL     1      35.099 -17.582 -21.133  0.00  0.00    +0.032 C 
ATOM     11  C   UNL     1      34.809 -16.742 -23.419  0.00  0.00    +0.059 C 
ATOM     12  C   UNL     1      35.222 -19.088 -23.043  0.00  0.00    +0.018 C 
ATOM     13  C   UNL     1      34.989 -18.036 -23.938  0.00  0.00    +0.017 C 
ATOM     14  C   UNL     1      34.484 -14.654 -23.117  0.00  0.00    +0.144 C 
ATOM     15  C   UNL     1      34.234 -13.211 -23.286  0.00  0.00    +0.044 C 
ATOM     16  H   UNL     1      34.633 -14.722 -21.020  0.00  0.00    +0.148 HD
ATOM     17  H   UNL     1      34.482 -15.409 -25.041  0.00  0.00    +0.148 HD
ENDBRANCH   1   8
BRANCH   4  18
ATOM     18  N   UNL     1      33.266 -20.693 -20.608  0.00  0.00    -0.344 N 
ATOM     19  H   UNL     1      32.967 -20.800 -21.539  0.00  0.00    +0.144 HD
ATOM     20  H   UNL     1      32.609 -20.510 -19.898  0.00  0.00    +0.144 HD
ENDBRANCH   4  18
BRANCH   3  22
ATOM     21  O   UNL     1      33.918 -23.581 -19.367  0.00  0.00    -0.285 OA
ATOM     22  C   UNL     1      34.688 -22.828 -18.726  0.00  0.00    +0.213 C 
BRANCH  22  24
ATOM     23  N   UNL     1      34.103 -23.660 -16.477  0.00  0.00    -0.310 N 
ATOM     24  C   UNL     1      34.977 -23.064 -17.346  0.00  0.00    +0.088 C 
ATOM     25  C   UNL     1      34.666 -23.746 -15.223  0.00  0.00    +0.048 C 
ATOM     26  C   UNL     1      35.941 -23.183 -15.305  0.00  0.00    +0.015 C 
ATOM     27  C   UNL     1      36.124 -22.756 -16.651  0.00  0.00    +0.019 C 
ATOM     28  C   UNL     1      34.148 -24.274 -14.035  0.00  0.00    +0.015 C 
ATOM     29  C   UNL     1      36.740 -23.144 -14.146  0.00  0.00    +0.001 C 
ATOM     30  C   UNL     1      34.959 -24.224 -12.899  0.00  0.00    +0.001 C 
ATOM     31  C   UNL     1      36.236 -23.668 -12.951  0.00  0.00    +0.000 C 
ATOM     32  H   UNL     1      33.204 -23.981 -16.715  0.00  0.00    +0.152 HD
ENDBRANCH  22  24
ENDBRANCH   3  22
TORSDOF 4
ENDMDL
MODEL 4
REMARK VINA RESULT:     -11.4      2.819     10.252
REMARK  Name = 66555680
REMARK  4 active torsions:
REMARK  status: ('A' for Active; 'I' for Inactive)
REMARK    1  A    between atoms: N_1  and  C_8
REMARK    2  A    between atoms: C_3  and  C_22
REMARK    3  A    between atoms: C_4  and  N_18
REMARK    4  A    between atoms: C_22  and  C_24
REMARK                            x       y       z     vdW  Elec       q    Type
REMARK                         _______ _______ _______ _____ _____    ______ ____
ROOT
ATOM      1  N   UNL     1      33.690 -13.587 -22.950  0.00  0.00    -0.177 N 
ATOM      2  N   UNL     1      34.103 -12.710 -23.881  0.00  0.00    -0.171 NA
ATOM      3  C   UNL     1      32.541 -11.787 -22.493  0.00  0.00    +0.090 C 
ATOM      4  C   UNL     1      32.754 -13.084 -22.094  0.00  0.00    +0.122 C 
ATOM      5  C   UNL     1      33.397 -11.612 -23.596  0.00  0.00    +0.124 C 
ENDROOT
BRANCH   1   8
ATOM      6  N   UNL     1      35.698 -17.540 -20.803  0.00  0.00    -0.318 N 
ATOM      7  N   UNL     1      35.845 -18.691 -22.699  0.00  0.00    -0.318 N 
ATOM      8  C   UNL     1      34.225 -14.877 -22.936  0.00  0.00    +0.077 C 
ATOM      9  C   UNL     1      35.188 -16.715 -21.773  0.00  0.00    +0.060 C 
ATOM     10  C   UNL     1      34.662 -15.424 -21.725  0.00  0.00    +0.032 C 
ATOM     11  C   UNL     1      35.291 -17.456 -22.946  0.00  0.00    +0.059 C 
ATOM     12  C   UNL     1      34.316 -15.596 -24.130  0.00  0.00    +0.018 C 
ATOM     13  C   UNL     1      34.848 -16.890 -24.154  0.00  0.00    +0.017 C 
ATOM     14  C   UNL     1      36.076 -18.708 -21.405  0.00  0.00    +0.144 C 
ATOM     15  C   UNL     1      36.668 -19.813 -20.629  0.00  0.00    +0.044 C 
ATOM     16  H   UNL     1      35.776 -17.329 -19.844  0.00  0.00    +0.148 HD
ATOM     17  H   UNL     1      36.029 -19.407 -23.350  0.00  0.00    +0.148 HD
ENDBRANCH   1   8
BRANCH   4  18
ATOM     18  N   UNL     1      32.225 -13.821 -21.094  0.00  0.00    -0.344 N 
ATOM     19  H   UNL     1      32.585 -13.746 -20.181  0.00  0.00    +0.144 HD
ATOM     20  H   UNL     1      31.478 -14.436 -21.278  0.00  0.00    +0.144 HD
ENDBRANCH   4  18
BRANCH   3  22
ATOM     21  O   UNL     1      30.736 -11.293 -21.090  0.00  0.00    -0.285 OA
ATOM     22  C   UNL     1      31.590 -10.800 -21.862  0.00  0.00    +0.213 C 
BRANCH  22  24
ATOM     23  N   UNL     1      31.365  -8.830 -23.331  0.00  0.00    -0.310 N 
ATOM     24  C   UNL     1      31.640  -9.394 -22.114  0.00  0.00    +0.088 C 
ATOM     25  C   UNL     1      31.498  -7.461 -23.260  0.00  0.00    +0.048 C 
ATOM     26  C   UNL     1      31.871  -7.151 -21.950  0.00  0.00    +0.015 C 
ATOM     27  C   UNL     1      31.957  -8.381 -21.239  0.00  0.00    +0.019 C 
ATOM     28  C   UNL     1      31.318  -6.483 -24.244  0.00  0.00    +0.015 C 
ATOM     29  C   UNL     1      32.075  -5.802 -21.604  0.00  0.00    +0.001 C 
ATOM     30  C   UNL     1      31.526  -5.151 -23.878  0.00  0.00    +0.001 C 
ATOM     31  C   UNL     1      31.899  -4.813 -22.579  0.00  0.00    +0.000 C 
ATOM     32  H   UNL     1      31.108  -9.329 -24.139  0.00  0.00    +0.152 HD
ENDBRANCH  22  24
ENDBRANCH   3  22
TORSDOF 4
ENDMDL
MODEL 5
REMARK VINA RESULT:     -11.3      2.888      5.448
REMARK  Name = 66555680
REMARK  4 active torsions:
REMARK  status: ('A' for Active; 'I' for Inactive)
REMARK    1  A    between atoms: N_1  and  C_8
REMARK    2  A    between atoms: C_3  and  C_22
REMARK    3  A    between atoms: C_4  and  N_18
REMARK    4  A    between atoms: C_22  and  C_24
REMARK                            x       y       z     vdW  Elec       q    Type
REMARK                         _______ _______ _______ _____ _____    ______ ____
ROOT
ATOM      1  N   UNL     1      32.307 -10.527 -22.278  0.00  0.00    -0.177 N 
ATOM      2  N   UNL     1      31.603 -11.420 -21.561  0.00  0.00    -0.171 NA
ATOM      3  C   UNL     1      32.918 -12.448 -23.120  0.00  0.00    +0.090 C 
ATOM      4  C   UNL     1      33.111 -11.091 -23.226  0.00  0.00    +0.122 C 
ATOM      5  C   UNL     1      31.982 -12.591 -22.080  0.00  0.00    +0.124 C 
ENDROOT
BRANCH   1   8
ATOM      6  N   UNL     1      31.163  -5.871 -23.410  0.00  0.00    -0.318 N 
ATOM      7  N   UNL     1      31.679  -5.089 -21.394  0.00  0.00    -0.318 N 
ATOM      8  C   UNL     1      32.165  -9.165 -22.008  0.00  0.00    +0.077 C 
ATOM      9  C   UNL     1      31.577  -6.961 -22.688  0.00  0.00    +0.060 C 
ATOM     10  C   UNL     1      31.699  -8.312 -23.015  0.00  0.00    +0.032 C 
ATOM     11  C   UNL     1      31.894  -6.447 -21.435  0.00  0.00    +0.059 C 
ATOM     12  C   UNL     1      32.490  -8.677 -20.741  0.00  0.00    +0.018 C 
ATOM     13  C   UNL     1      32.361  -7.317 -20.435  0.00  0.00    +0.017 C 
ATOM     14  C   UNL     1      31.241  -4.777 -22.594  0.00  0.00    +0.144 C 
ATOM     15  C   UNL     1      30.862  -3.435 -23.074  0.00  0.00    +0.044 C 
ATOM     16  H   UNL     1      30.862  -5.876 -24.347  0.00  0.00    +0.148 HD
ATOM     17  H   UNL     1      31.822  -4.481 -20.632  0.00  0.00    +0.148 HD
ENDBRANCH   1   8
BRANCH   4  18
ATOM     18  N   UNL     1      33.891 -10.348 -24.040  0.00  0.00    -0.344 N 
ATOM     19  H   UNL     1      33.521  -9.552 -24.485  0.00  0.00    +0.144 HD
ATOM     20  H   UNL     1      34.829 -10.604 -24.190  0.00  0.00    +0.144 HD
ENDBRANCH   4  18
BRANCH   3  22
ATOM     21  O   UNL     1      33.633 -13.284 -25.185  0.00  0.00    -0.285 OA
ATOM     22  C   UNL     1      33.584 -13.514 -23.953  0.00  0.00    +0.213 C 
BRANCH  22  24
ATOM     23  N   UNL     1      34.342 -15.856 -24.124  0.00  0.00    -0.310 N 
ATOM     24  C   UNL     1      34.128 -14.714 -23.400  0.00  0.00    +0.088 C 
ATOM     25  C   UNL     1      34.872 -16.838 -23.317  0.00  0.00    +0.048 C 
ATOM     26  C   UNL     1      34.997 -16.294 -22.036  0.00  0.00    +0.015 C 
ATOM     27  C   UNL     1      34.523 -14.953 -22.104  0.00  0.00    +0.019 C 
ATOM     28  C   UNL     1      35.247 -18.151 -23.618  0.00  0.00    +0.015 C 
ATOM     29  C   UNL     1      35.521 -17.098 -21.006  0.00  0.00    +0.001 C 
ATOM     30  C   UNL     1      35.764 -18.931 -22.581  0.00  0.00    +0.001 C 
ATOM     31  C   UNL     1      35.900 -18.414 -21.293  0.00  0.00    +0.000 C 
ATOM     32  H   UNL     1      34.146 -15.961 -25.083  0.00  0.00    +0.152 HD
ENDBRANCH  22  24
ENDBRANCH   3  22
TORSDOF 4
ENDMDL
MODEL 6
REMARK VINA RESULT:     -11.3      1.855      2.576
REMARK  Name = 66555680
REMARK  4 active torsions:
REMARK  status: ('A' for Active; 'I' for Inactive)
REMARK    1  A    between atoms: N_1  and  C_8
REMARK    2  A    between atoms: C_3  and  C_22
REMARK    3  A    between atoms: C_4  and  N_18
REMARK    4  A    between atoms: C_22  and  C_24
REMARK                            x       y       z     vdW  Elec       q    Type
REMARK                         _______ _______ _______ _____ _____    ______ ____
ROOT
ATOM      1  N   UNL     1      33.156 -13.847 -24.005  0.00  0.00    -0.177 N 
ATOM      2  N   UNL     1      32.710 -13.874 -25.273  0.00  0.00    -0.171 NA
ATOM      3  C   UNL     1      33.970 -15.717 -24.787  0.00  0.00    +0.090 C 
ATOM      4  C   UNL     1      33.915 -14.927 -23.664  0.00  0.00    +0.122 C 
ATOM      5  C   UNL     1      33.210 -15.020 -25.745  0.00  0.00    +0.124 C 
ENDROOT
BRANCH   1   8
ATOM      6  N   UNL     1      33.034  -9.081 -22.764  0.00  0.00    -0.318 N 
ATOM      7  N   UNL     1      31.920  -9.440 -20.873  0.00  0.00    -0.318 N 
ATOM      8  C   UNL     1      32.822 -12.768 -23.184  0.00  0.00    +0.077 C 
ATOM      9  C   UNL     1      32.836 -10.437 -22.707  0.00  0.00    +0.060 C 
ATOM     10  C   UNL     1      33.196 -11.475 -23.566  0.00  0.00    +0.032 C 
ATOM     11  C   UNL     1      32.140 -10.635 -21.518  0.00  0.00    +0.059 C 
ATOM     12  C   UNL     1      32.123 -12.998 -21.997  0.00  0.00    +0.018 C 
ATOM     13  C   UNL     1      31.772 -11.941 -21.149  0.00  0.00    +0.017 C 
ATOM     14  C   UNL     1      32.469  -8.530 -21.647  0.00  0.00    +0.144 C 
ATOM     15  C   UNL     1      32.510  -7.076 -21.407  0.00  0.00    +0.044 C 
ATOM     16  H   UNL     1      33.498  -8.592 -23.481  0.00  0.00    +0.148 HD
ATOM     17  H   UNL     1      31.454  -9.297 -20.018  0.00  0.00    +0.148 HD
ENDBRANCH   1   8
BRANCH   4  18
ATOM     18  N   UNL     1      34.448 -15.070 -22.431  0.00  0.00    -0.344 N 
ATOM     19  H   UNL     1      34.780 -14.281 -21.944  0.00  0.00    +0.144 HD
ATOM     20  H   UNL     1      34.505 -15.962 -22.019  0.00  0.00    +0.144 HD
ENDBRANCH   4  18
BRANCH   3  22
ATOM     21  O   UNL     1      35.041 -17.340 -26.087  0.00  0.00    -0.285 OA
ATOM     22  C   UNL     1      34.693 -17.033 -24.922  0.00  0.00    +0.213 C 
BRANCH  22  24
ATOM     23  N   UNL     1      36.130 -17.836 -23.084  0.00  0.00    -0.310 N 
ATOM     24  C   UNL     1      34.973 -17.891 -23.814  0.00  0.00    +0.088 C 
ATOM     25  C   UNL     1      36.106 -18.785 -22.086  0.00  0.00    +0.048 C 
ATOM     26  C   UNL     1      34.890 -19.463 -22.191  0.00  0.00    +0.015 C 
ATOM     27  C   UNL     1      34.185 -18.888 -23.287  0.00  0.00    +0.019 C 
ATOM     28  C   UNL     1      37.059 -19.092 -21.108  0.00  0.00    +0.015 C 
ATOM     29  C   UNL     1      34.608 -20.497 -21.278  0.00  0.00    +0.001 C 
ATOM     30  C   UNL     1      36.758 -20.121 -20.213  0.00  0.00    +0.001 C 
ATOM     31  C   UNL     1      35.551 -20.815 -20.294  0.00  0.00    +0.000 C 
ATOM     32  H   UNL     1      36.871 -17.209 -23.248  0.00  0.00    +0.152 HD
ENDBRANCH  22  24
ENDBRANCH   3  22
TORSDOF 4
ENDMDL
MODEL 7
REMARK VINA RESULT:     -11.2      3.873      6.237
REMARK  Name = 66555680
REMARK  4 active torsions:
REMARK  status: ('A' for Active; 'I' for Inactive)
REMARK    1  A    between atoms: N_1  and  C_8
REMARK    2  A    between atoms: C_3  and  C_22
REMARK    3  A    between atoms: C_4  and  N_18
REMARK    4  A    between atoms: C_22  and  C_24
REMARK                            x       y       z     vdW  Elec       q    Type
REMARK                         _______ _______ _______ _____ _____    ______ ____
ROOT
ATOM      1  N   UNL     1      35.425 -20.182 -20.586  0.00  0.00    -0.177 N 
ATOM      2  N   UNL     1      36.669 -20.532 -20.215  0.00  0.00    -0.171 NA
ATOM      3  C   UNL     1      35.102 -21.939 -19.329  0.00  0.00    +0.090 C 
ATOM      4  C   UNL     1      34.450 -20.993 -20.082  0.00  0.00    +0.122 C 
ATOM      5  C   UNL     1      36.465 -21.607 -19.448  0.00  0.00    +0.124 C 
ENDROOT
BRANCH   1   8
ATOM      6  N   UNL     1      34.170 -17.933 -24.785  0.00  0.00    -0.318 N 
ATOM      7  N   UNL     1      34.640 -15.899 -24.020  0.00  0.00    -0.318 N 
ATOM      8  C   UNL     1      35.243 -19.073 -21.414  0.00  0.00    +0.077 C 
ATOM      9  C   UNL     1      34.605 -18.117 -23.497  0.00  0.00    +0.060 C 
ATOM     10  C   UNL     1      34.766 -19.261 -22.715  0.00  0.00    +0.032 C 
ATOM     11  C   UNL     1      34.892 -16.833 -23.042  0.00  0.00    +0.059 C 
ATOM     12  C   UNL     1      35.540 -17.797 -20.929  0.00  0.00    +0.018 C 
ATOM     13  C   UNL     1      35.370 -16.662 -21.731  0.00  0.00    +0.017 C 
ATOM     14  C   UNL     1      34.209 -16.592 -25.050  0.00  0.00    +0.144 C 
ATOM     15  C   UNL     1      33.800 -16.059 -26.363  0.00  0.00    +0.044 C 
ATOM     16  H   UNL     1      33.881 -18.639 -25.406  0.00  0.00    +0.148 HD
ATOM     17  H   UNL     1      34.757 -14.923 -23.961  0.00  0.00    +0.148 HD
ENDBRANCH   1   8
BRANCH   4  18
ATOM     18  N   UNL     1      33.142 -20.793 -20.349  0.00  0.00    -0.344 N 
ATOM     19  H   UNL     1      32.868 -20.073 -20.962  0.00  0.00    +0.144 HD
ATOM     20  H   UNL     1      32.461 -21.367 -19.930  0.00  0.00    +0.144 HD
ENDBRANCH   4  18
BRANCH   3  22
ATOM     21  O   UNL     1      33.721 -23.824 -19.232  0.00  0.00    -0.285 OA
ATOM     22  C   UNL     1      34.463 -23.069 -18.562  0.00  0.00    +0.213 C 
BRANCH  22  24
ATOM     23  N   UNL     1      35.857 -23.031 -16.526  0.00  0.00    -0.310 N 
ATOM     24  C   UNL     1      34.673 -23.284 -17.165  0.00  0.00    +0.088 C 
ATOM     25  C   UNL     1      35.750 -23.338 -15.188  0.00  0.00    +0.048 C 
ATOM     26  C   UNL     1      34.450 -23.802 -14.975  0.00  0.00    +0.015 C 
ATOM     27  C   UNL     1      33.782 -23.763 -16.232  0.00  0.00    +0.019 C 
ATOM     28  C   UNL     1      36.694 -23.241 -14.160  0.00  0.00    +0.015 C 
ATOM     29  C   UNL     1      34.072 -24.188 -13.675  0.00  0.00    +0.001 C 
ATOM     30  C   UNL     1      36.297 -23.630 -12.878  0.00  0.00    +0.001 C 
ATOM     31  C   UNL     1      35.006 -24.097 -12.637  0.00  0.00    +0.000 C 
ATOM     32  H   UNL     1      36.668 -22.680 -16.960  0.00  0.00    +0.152 HD
ENDBRANCH  22  24
ENDBRANCH   3  22
TORSDOF 4
ENDMDL
MODEL 8
REMARK VINA RESULT:     -11.0      3.386     10.929
REMARK  Name = 66555680
REMARK  4 active torsions:
REMARK  status: ('A' for Active; 'I' for Inactive)
REMARK    1  A    between atoms: N_1  and  C_8
REMARK    2  A    between atoms: C_3  and  C_22
REMARK    3  A    between atoms: C_4  and  N_18
REMARK    4  A    between atoms: C_22  and  C_24
REMARK                            x       y       z     vdW  Elec       q    Type
REMARK                         _______ _______ _______ _____ _____    ______ ____
ROOT
ATOM      1  N   UNL     1      33.551 -12.188 -23.727  0.00  0.00    -0.177 N 
ATOM      2  N   UNL     1      34.283 -11.288 -24.405  0.00  0.00    -0.171 NA
ATOM      3  C   UNL     1      32.806 -10.271 -22.991  0.00  0.00    +0.090 C 
ATOM      4  C   UNL     1      32.651 -11.630 -22.866  0.00  0.00    +0.122 C 
ATOM      5  C   UNL     1      33.824 -10.118 -23.951  0.00  0.00    +0.124 C 
ENDROOT
BRANCH   1   8
ATOM      6  N   UNL     1      35.300 -16.652 -22.600  0.00  0.00    -0.318 N 
ATOM      7  N   UNL     1      34.486 -17.608 -24.435  0.00  0.00    -0.318 N 
ATOM      8  C   UNL     1      33.761 -13.550 -23.948  0.00  0.00    +0.077 C 
ATOM      9  C   UNL     1      34.661 -15.649 -23.283  0.00  0.00    +0.060 C 
ATOM     10  C   UNL     1      34.482 -14.293 -23.008  0.00  0.00    +0.032 C 
ATOM     11  C   UNL     1      34.162 -16.271 -24.423  0.00  0.00    +0.059 C 
ATOM     12  C   UNL     1      33.248 -14.146 -25.103  0.00  0.00    +0.018 C 
ATOM     13  C   UNL     1      33.439 -15.509 -25.357  0.00  0.00    +0.017 C 
ATOM     14  C   UNL     1      35.168 -17.802 -23.328  0.00  0.00    +0.144 C 
ATOM     15  C   UNL     1      35.749 -19.075 -22.862  0.00  0.00    +0.044 C 
ATOM     16  H   UNL     1      35.769 -16.561 -21.739  0.00  0.00    +0.148 HD
ATOM     17  H   UNL     1      34.258 -18.274 -25.123  0.00  0.00    +0.148 HD
ENDBRANCH   1   8
BRANCH   4  18
ATOM     18  N   UNL     1      31.830 -12.381 -22.100  0.00  0.00    -0.344 N 
ATOM     19  H   UNL     1      31.470 -13.229 -22.448  0.00  0.00    +0.144 HD
ATOM     20  H   UNL     1      31.590 -12.080 -21.194  0.00  0.00    +0.144 HD
ENDBRANCH   4  18
BRANCH   3  22
ATOM     21  O   UNL     1      31.474  -9.591 -21.192  0.00  0.00    -0.285 OA
ATOM     22  C   UNL     1      32.037  -9.209 -22.244  0.00  0.00    +0.213 C 
BRANCH  22  24
ATOM     23  N   UNL     1      32.511  -7.390 -23.843  0.00  0.00    -0.310 N 
ATOM     24  C   UNL     1      31.941  -7.854 -22.688  0.00  0.00    +0.088 C 
ATOM     25  C   UNL     1      32.245  -6.048 -23.998  0.00  0.00    +0.048 C 
ATOM     26  C   UNL     1      31.479  -5.651 -22.900  0.00  0.00    +0.015 C 
ATOM     27  C   UNL     1      31.295  -6.802 -22.082  0.00  0.00    +0.019 C 
ATOM     28  C   UNL     1      32.620  -5.164 -25.015  0.00  0.00    +0.015 C 
ATOM     29  C   UNL     1      31.065  -4.308 -22.811  0.00  0.00    +0.001 C 
ATOM     30  C   UNL     1      32.198  -3.836 -24.906  0.00  0.00    +0.001 C 
ATOM     31  C   UNL     1      31.433  -3.413 -23.821  0.00  0.00    +0.000 C 
ATOM     32  H   UNL     1      33.035  -7.937 -24.472  0.00  0.00    +0.152 HD
ENDBRANCH  22  24
ENDBRANCH   3  22
TORSDOF 4
ENDMDL
MODEL 9
REMARK VINA RESULT:     -11.0      2.720      9.803
REMARK  Name = 66555680
REMARK  4 active torsions:
REMARK  status: ('A' for Active; 'I' for Inactive)
REMARK    1  A    between atoms: N_1  and  C_8
REMARK    2  A    between atoms: C_3  and  C_22
REMARK    3  A    between atoms: C_4  and  N_18
REMARK    4  A    between atoms: C_22  and  C_24
REMARK                            x       y       z     vdW  Elec       q    Type
REMARK                         _______ _______ _______ _____ _____    ______ ____
ROOT
ATOM      1  N   UNL     1      34.755 -21.061 -19.861  0.00  0.00    -0.177 N 
ATOM      2  N   UNL     1      33.591 -20.916 -20.518  0.00  0.00    -0.171 NA
ATOM      3  C   UNL     1      35.241 -19.633 -21.441  0.00  0.00    +0.090 C 
ATOM      4  C   UNL     1      35.775 -20.314 -20.374  0.00  0.00    +0.122 C 
ATOM      5  C   UNL     1      33.895 -20.042 -21.482  0.00  0.00    +0.124 C 
ENDROOT
BRANCH   1   8
ATOM      6  N   UNL     1      36.999 -23.248 -16.060  0.00  0.00    -0.318 N 
ATOM      7  N   UNL     1      35.205 -24.424 -15.475  0.00  0.00    -0.318 N 
ATOM      8  C   UNL     1      34.820 -21.921 -18.763  0.00  0.00    +0.077 C 
ATOM      9  C   UNL     1      36.024 -22.903 -16.961  0.00  0.00    +0.060 C 
ATOM     10  C   UNL     1      36.017 -22.028 -18.048  0.00  0.00    +0.032 C 
ATOM     11  C   UNL     1      34.915 -23.650 -16.575  0.00  0.00    +0.059 C 
ATOM     12  C   UNL     1      33.691 -22.658 -18.399  0.00  0.00    +0.018 C 
ATOM     13  C   UNL     1      33.721 -23.530 -17.305  0.00  0.00    +0.017 C 
ATOM     14  C   UNL     1      36.461 -24.158 -15.193  0.00  0.00    +0.144 C 
ATOM     15  C   UNL     1      37.259 -24.731 -14.093  0.00  0.00    +0.044 C 
ATOM     16  H   UNL     1      37.920 -22.900 -16.040  0.00  0.00    +0.148 HD
ATOM     17  H   UNL     1      34.603 -25.043 -15.001  0.00  0.00    +0.148 HD
ENDBRANCH   1   8
BRANCH   4  18
ATOM     18  N   UNL     1      37.017 -20.334 -19.843  0.00  0.00    -0.344 N 
ATOM     19  H   UNL     1      37.643 -21.055 -20.080  0.00  0.00    +0.144 HD
ATOM     20  H   UNL     1      37.295 -19.626 -19.218  0.00  0.00    +0.144 HD
ENDBRANCH   4  18
BRANCH   3  22
ATOM     21  O   UNL     1      37.211 -18.827 -22.412  0.00  0.00    -0.285 OA
ATOM     22  C   UNL     1      35.969 -18.669 -22.344  0.00  0.00    +0.213 C 
BRANCH  22  24
ATOM     23  N   UNL     1      35.139 -16.362 -22.615  0.00  0.00    -0.310 N 
ATOM     24  C   UNL     1      35.311 -17.637 -23.081  0.00  0.00    +0.088 C 
ATOM     25  C   UNL     1      34.471 -15.601 -23.549  0.00  0.00    +0.048 C 
ATOM     26  C   UNL     1      34.213 -16.428 -24.644  0.00  0.00    +0.015 C 
ATOM     27  C   UNL     1      34.749 -17.710 -24.335  0.00  0.00    +0.019 C 
ATOM     28  C   UNL     1      34.080 -14.259 -23.508  0.00  0.00    +0.015 C 
ATOM     29  C   UNL     1      33.533 -15.891 -25.754  0.00  0.00    +0.001 C 
ATOM     30  C   UNL     1      33.406 -13.748 -24.620  0.00  0.00    +0.001 C 
ATOM     31  C   UNL     1      33.135 -14.550 -25.728  0.00  0.00    +0.000 C 
ATOM     32  H   UNL     1      35.447 -16.035 -21.739  0.00  0.00    +0.152 HD
ENDBRANCH  22  24
ENDBRANCH   3  22
TORSDOF 4
ENDMDL
