MODEL 1
REMARK VINA RESULT:     -14.0      0.000      0.000
REMARK  Name = 67335295
REMARK  6 active torsions:
REMARK  status: ('A' for Active; 'I' for Inactive)
REMARK    1  A    between atoms: N_2  and  C_14
REMARK    2  A    between atoms: C_7  and  O_20
REMARK    3  A    between atoms: O_20  and  C_21
REMARK    4  A    between atoms: C_21  and  C_23
REMARK    5  A    between atoms: C_22  and  C_28
REMARK    6  A    between atoms: C_28  and  N_30
REMARK                            x       y       z     vdW  Elec       q    Type
REMARK                         _______ _______ _______ _____ _____    ______ ____
ROOT
ATOM      1  O   UNL     1      33.713 -24.639 -12.781  0.00  0.00    -0.270 OA
ATOM      2  N   UNL     1      34.813 -24.294 -14.844  0.00  0.00    -0.265 N 
ATOM      3  C   UNL     1      34.444 -23.824 -16.173  0.00  0.00    +0.124 C 
ATOM      4  C   UNL     1      32.990 -23.540 -16.007  0.00  0.00    +0.036 C 
ATOM      5  C   UNL     1      33.747 -24.308 -13.952  0.00  0.00    +0.249 C 
ATOM      6  C   UNL     1      32.583 -23.825 -14.703  0.00  0.00    +0.054 C 
ATOM      7  C   UNL     1      32.081 -23.064 -16.933  0.00  0.00    +0.137 C 
ATOM      8  C   UNL     1      31.282 -23.652 -14.273  0.00  0.00    +0.004 C 
ATOM      9  C   UNL     1      30.757 -22.880 -16.524  0.00  0.00    +0.037 C 
ATOM     10  C   UNL     1      30.361 -23.171 -15.205  0.00  0.00    +0.003 C 
ENDROOT
BRANCH   2  14
ATOM     11  O   UNL     1      36.838 -22.531 -15.299  0.00  0.00    -0.273 OA
ATOM     12  O   UNL     1      40.009 -25.867 -15.428  0.00  0.00    -0.275 OA
ATOM     13  N   UNL     1      38.386 -24.231 -15.378  0.00  0.00    -0.254 N 
ATOM     14  C   UNL     1      36.148 -24.702 -14.489  0.00  0.00    +0.153 C 
ATOM     15  C   UNL     1      36.431 -26.122 -14.954  0.00  0.00    +0.039 C 
ATOM     16  C   UNL     1      37.856 -26.496 -14.589  0.00  0.00    +0.088 C 
ATOM     17  C   UNL     1      37.118 -23.715 -15.112  0.00  0.00    +0.246 C 
ATOM     18  C   UNL     1      38.851 -25.529 -15.185  0.00  0.00    +0.228 C 
ATOM     19  H   UNL     1      39.037 -23.593 -15.750  0.00  0.00    +0.158 HD
ENDBRANCH   2  14
BRANCH   7  20
ATOM     20  O   UNL     1      32.454 -22.782 -18.208  0.00  0.00    -0.471 OA
BRANCH  20  21
ATOM     21  C   UNL     1      33.809 -23.058 -18.568  0.00  0.00    +0.232 C 
BRANCH  21  23
ATOM     22  C   UNL     1      35.249 -19.913 -21.108  0.00  0.00    -0.043 C 
ATOM     23  C   UNL     1      34.312 -21.960 -19.458  0.00  0.00    +0.021 C 
ATOM     24  C   UNL     1      36.153 -20.720 -20.414  0.00  0.00    -0.007 C 
ATOM     25  C   UNL     1      33.878 -20.130 -20.976  0.00  0.00    -0.007 C 
ATOM     26  C   UNL     1      35.684 -21.742 -19.589  0.00  0.00    -0.001 C 
ATOM     27  C   UNL     1      33.409 -21.154 -20.151  0.00  0.00    -0.001 C 
BRANCH  22  28
ATOM     28  C   UNL     1      35.750 -18.820 -21.989  0.00  0.00    -0.050 C 
BRANCH  28  30
ATOM     29  O   UNL     1      34.307 -17.971 -25.838  0.00  0.00    -0.358 OA
ATOM     30  N   UNL     1      34.843 -18.542 -23.101  0.00  0.00    +0.393 N 
ATOM     31  C   UNL     1      35.118 -17.219 -23.678  0.00  0.00    -0.044 C 
ATOM     32  C   UNL     1      34.958 -19.577 -24.138  0.00  0.00    -0.044 C 
ATOM     33  C   UNL     1      34.012 -19.259 -25.293  0.00  0.00    +0.119 C 
ATOM     34  C   UNL     1      34.168 -16.956 -24.844  0.00  0.00    +0.119 C 
ATOM     35  H   UNL     1      33.891 -18.548 -22.737  0.00  0.00    -0.079 HD
ENDBRANCH  28  30
ENDBRANCH  22  28
ENDBRANCH  21  23
ENDBRANCH  20  21
ENDBRANCH   7  20
TORSDOF 6
ENDMDL
MODEL 2
REMARK VINA RESULT:     -13.9      1.171      1.341
REMARK  Name = 67335295
REMARK  6 active torsions:
REMARK  status: ('A' for Active; 'I' for Inactive)
REMARK    1  A    between atoms: N_2  and  C_14
REMARK    2  A    between atoms: C_7  and  O_20
REMARK    3  A    between atoms: O_20  and  C_21
REMARK    4  A    between atoms: C_21  and  C_23
REMARK    5  A    between atoms: C_22  and  C_28
REMARK    6  A    between atoms: C_28  and  N_30
REMARK                            x       y       z     vdW  Elec       q    Type
REMARK                         _______ _______ _______ _____ _____    ______ ____
ROOT
ATOM      1  O   UNL     1      33.724 -24.666 -12.882  0.00  0.00    -0.270 OA
ATOM      2  N   UNL     1      34.758 -24.023 -14.908  0.00  0.00    -0.265 N 
ATOM      3  C   UNL     1      34.324 -23.490 -16.194  0.00  0.00    +0.124 C 
ATOM      4  C   UNL     1      32.848 -23.394 -16.005  0.00  0.00    +0.036 C 
ATOM      5  C   UNL     1      33.708 -24.237 -14.021  0.00  0.00    +0.249 C 
ATOM      6  C   UNL     1      32.489 -23.833 -14.731  0.00  0.00    +0.054 C 
ATOM      7  C   UNL     1      31.882 -22.952 -16.890  0.00  0.00    +0.137 C 
ATOM      8  C   UNL     1      31.180 -23.851 -14.289  0.00  0.00    +0.004 C 
ATOM      9  C   UNL     1      30.549 -22.961 -16.468  0.00  0.00    +0.037 C 
ATOM     10  C   UNL     1      30.201 -23.406 -15.178  0.00  0.00    +0.003 C 
ENDROOT
BRANCH   2  14
ATOM     11  O   UNL     1      35.808 -26.384 -15.765  0.00  0.00    -0.273 OA
ATOM     12  O   UNL     1      39.094 -26.346 -12.540  0.00  0.00    -0.275 OA
ATOM     13  N   UNL     1      37.420 -26.337 -14.124  0.00  0.00    -0.254 N 
ATOM     14  C   UNL     1      36.133 -24.298 -14.587  0.00  0.00    +0.153 C 
ATOM     15  C   UNL     1      36.438 -23.962 -13.135  0.00  0.00    +0.039 C 
ATOM     16  C   UNL     1      37.887 -24.299 -12.834  0.00  0.00    +0.088 C 
ATOM     17  C   UNL     1      36.396 -25.765 -14.879  0.00  0.00    +0.246 C 
ATOM     18  C   UNL     1      38.189 -25.750 -13.123  0.00  0.00    +0.228 C 
ATOM     19  H   UNL     1      37.625 -27.278 -14.327  0.00  0.00    +0.158 HD
ENDBRANCH   2  14
BRANCH   7  20
ATOM     20  O   UNL     1      32.208 -22.523 -18.136  0.00  0.00    -0.471 OA
BRANCH  20  21
ATOM     21  C   UNL     1      33.449 -22.976 -18.678  0.00  0.00    +0.232 C 
BRANCH  21  23
ATOM     22  C   UNL     1      35.101 -19.888 -21.157  0.00  0.00    -0.043 C 
ATOM     23  C   UNL     1      34.027 -21.898 -19.547  0.00  0.00    +0.021 C 
ATOM     24  C   UNL     1      35.948 -20.743 -20.449  0.00  0.00    -0.007 C 
ATOM     25  C   UNL     1      33.719 -20.038 -21.059  0.00  0.00    -0.007 C 
ATOM     26  C   UNL     1      35.410 -21.747 -19.644  0.00  0.00    -0.001 C 
ATOM     27  C   UNL     1      33.181 -21.043 -20.254  0.00  0.00    -0.001 C 
BRANCH  22  28
ATOM     28  C   UNL     1      35.677 -18.814 -22.017  0.00  0.00    -0.050 C 
BRANCH  28  30
ATOM     29  O   UNL     1      34.327 -17.819 -25.865  0.00  0.00    -0.358 OA
ATOM     30  N   UNL     1      34.800 -18.466 -23.133  0.00  0.00    +0.393 N 
ATOM     31  C   UNL     1      35.155 -17.151 -23.684  0.00  0.00    -0.044 C 
ATOM     32  C   UNL     1      34.866 -19.488 -24.187  0.00  0.00    -0.044 C 
ATOM     33  C   UNL     1      33.954 -19.097 -25.346  0.00  0.00    +0.119 C 
ATOM     34  C   UNL     1      34.235 -16.815 -24.854  0.00  0.00    +0.119 C 
ATOM     35  H   UNL     1      33.844 -18.424 -22.779  0.00  0.00    -0.079 HD
ENDBRANCH  28  30
ENDBRANCH  22  28
ENDBRANCH  21  23
ENDBRANCH  20  21
ENDBRANCH   7  20
TORSDOF 6
ENDMDL
MODEL 3
REMARK VINA RESULT:     -12.9      3.882     11.768
REMARK  Name = 67335295
REMARK  6 active torsions:
REMARK  status: ('A' for Active; 'I' for Inactive)
REMARK    1  A    between atoms: N_2  and  C_14
REMARK    2  A    between atoms: C_7  and  O_20
REMARK    3  A    between atoms: O_20  and  C_21
REMARK    4  A    between atoms: C_21  and  C_23
REMARK    5  A    between atoms: C_22  and  C_28
REMARK    6  A    between atoms: C_28  and  N_30
REMARK                            x       y       z     vdW  Elec       q    Type
REMARK                         _______ _______ _______ _____ _____    ______ ____
ROOT
ATOM      1  O   UNL     1      33.119 -13.821 -25.451  0.00  0.00    -0.270 OA
ATOM      2  N   UNL     1      33.959 -13.868 -23.243  0.00  0.00    -0.265 N 
ATOM      3  C   UNL     1      34.549 -14.865 -22.357  0.00  0.00    +0.124 C 
ATOM      4  C   UNL     1      34.541 -16.084 -23.215  0.00  0.00    +0.036 C 
ATOM      5  C   UNL     1      33.622 -14.377 -24.491  0.00  0.00    +0.249 C 
ATOM      6  C   UNL     1      33.996 -15.796 -24.467  0.00  0.00    +0.054 C 
ATOM      7  C   UNL     1      34.980 -17.361 -22.922  0.00  0.00    +0.137 C 
ATOM      8  C   UNL     1      33.868 -16.745 -25.462  0.00  0.00    +0.004 C 
ATOM      9  C   UNL     1      34.861 -18.342 -23.912  0.00  0.00    +0.037 C 
ATOM     10  C   UNL     1      34.310 -18.037 -25.171  0.00  0.00    +0.003 C 
ENDROOT
BRANCH   2  14
ATOM     11  O   UNL     1      31.919 -13.331 -21.521  0.00  0.00    -0.273 OA
ATOM     12  O   UNL     1      31.604  -8.954 -22.915  0.00  0.00    -0.275 OA
ATOM     13  N   UNL     1      31.781 -11.157 -22.262  0.00  0.00    -0.254 N 
ATOM     14  C   UNL     1      33.748 -12.496 -22.863  0.00  0.00    +0.153 C 
ATOM     15  C   UNL     1      33.814 -11.575 -24.072  0.00  0.00    +0.039 C 
ATOM     16  C   UNL     1      33.553 -10.146 -23.630  0.00  0.00    +0.088 C 
ATOM     17  C   UNL     1      32.399 -12.404 -22.174  0.00  0.00    +0.246 C 
ATOM     18  C   UNL     1      32.221 -10.018 -22.930  0.00  0.00    +0.228 C 
ATOM     19  H   UNL     1      30.921 -11.072 -21.791  0.00  0.00    +0.158 HD
ENDBRANCH   2  14
BRANCH   7  20
ATOM     20  O   UNL     1      35.511 -17.665 -21.710  0.00  0.00    -0.471 OA
BRANCH  20  21
ATOM     21  C   UNL     1      36.412 -18.772 -21.652  0.00  0.00    +0.232 C 
BRANCH  21  23
ATOM     22  C   UNL     1      34.532 -22.002 -19.543  0.00  0.00    -0.043 C 
ATOM     23  C   UNL     1      35.755 -19.900 -20.913  0.00  0.00    +0.021 C 
ATOM     24  C   UNL     1      35.922 -21.868 -19.521  0.00  0.00    -0.007 C 
ATOM     25  C   UNL     1      33.755 -21.086 -20.251  0.00  0.00    -0.007 C 
ATOM     26  C   UNL     1      36.532 -20.817 -20.206  0.00  0.00    -0.001 C 
ATOM     27  C   UNL     1      34.366 -20.034 -20.935  0.00  0.00    -0.001 C 
BRANCH  22  28
ATOM     28  C   UNL     1      33.881 -23.126 -18.811  0.00  0.00    -0.050 C 
BRANCH  28  30
ATOM     29  O   UNL     1      33.493 -23.683 -14.669  0.00  0.00    -0.358 OA
ATOM     30  N   UNL     1      33.749 -22.855 -17.381  0.00  0.00    +0.393 N 
ATOM     31  C   UNL     1      32.489 -23.404 -16.861  0.00  0.00    -0.044 C 
ATOM     32  C   UNL     1      34.887 -23.415 -16.638  0.00  0.00    -0.044 C 
ATOM     33  C   UNL     1      34.721 -23.132 -15.147  0.00  0.00    +0.119 C 
ATOM     34  C   UNL     1      32.380 -23.121 -15.365  0.00  0.00    +0.119 C 
ATOM     35  H   UNL     1      33.741 -21.844 -17.253  0.00  0.00    -0.079 HD
ENDBRANCH  28  30
ENDBRANCH  22  28
ENDBRANCH  21  23
ENDBRANCH  20  21
ENDBRANCH   7  20
TORSDOF 6
ENDMDL
MODEL 4
REMARK VINA RESULT:     -12.6      8.035     14.718
REMARK  Name = 67335295
REMARK  6 active torsions:
REMARK  status: ('A' for Active; 'I' for Inactive)
REMARK    1  A    between atoms: N_2  and  C_14
REMARK    2  A    between atoms: C_7  and  O_20
REMARK    3  A    between atoms: O_20  and  C_21
REMARK    4  A    between atoms: C_21  and  C_23
REMARK    5  A    between atoms: C_22  and  C_28
REMARK    6  A    between atoms: C_28  and  N_30
REMARK                            x       y       z     vdW  Elec       q    Type
REMARK                         _______ _______ _______ _____ _____    ______ ____
ROOT
ATOM      1  O   UNL     1      32.527  -6.677 -20.488  0.00  0.00    -0.270 OA
ATOM      2  N   UNL     1      32.784  -7.670 -22.616  0.00  0.00    -0.265 N 
ATOM      3  C   UNL     1      32.664  -9.009 -23.180  0.00  0.00    +0.124 C 
ATOM      4  C   UNL     1      32.284  -9.814 -21.984  0.00  0.00    +0.036 C 
ATOM      5  C   UNL     1      32.517  -7.623 -21.253  0.00  0.00    +0.249 C 
ATOM      6  C   UNL     1      32.198  -8.999 -20.854  0.00  0.00    +0.054 C 
ATOM      7  C   UNL     1      32.029 -11.169 -21.888  0.00  0.00    +0.137 C 
ATOM      8  C   UNL     1      31.862  -9.486 -19.606  0.00  0.00    +0.004 C 
ATOM      9  C   UNL     1      31.687 -11.688 -20.636  0.00  0.00    +0.037 C 
ATOM     10  C   UNL     1      31.604 -10.854 -19.505  0.00  0.00    +0.003 C 
ENDROOT
BRANCH   2  14
ATOM     11  O   UNL     1      30.776  -6.301 -23.845  0.00  0.00    -0.273 OA
ATOM     12  O   UNL     1      33.628  -4.494 -26.977  0.00  0.00    -0.275 OA
ATOM     13  N   UNL     1      32.232  -5.438 -25.404  0.00  0.00    -0.254 N 
ATOM     14  C   UNL     1      33.141  -6.512 -23.393  0.00  0.00    +0.153 C 
ATOM     15  C   UNL     1      34.347  -6.794 -24.277  0.00  0.00    +0.039 C 
ATOM     16  C   UNL     1      34.666  -5.559 -25.100  0.00  0.00    +0.088 C 
ATOM     17  C   UNL     1      31.933  -6.114 -24.221  0.00  0.00    +0.246 C 
ATOM     18  C   UNL     1      33.482  -5.127 -25.931  0.00  0.00    +0.228 C 
ATOM     19  H   UNL     1      31.457  -5.143 -25.935  0.00  0.00    +0.158 HD
ENDBRANCH   2  14
BRANCH   7  20
ATOM     20  O   UNL     1      32.108 -11.981 -22.973  0.00  0.00    -0.471 OA
BRANCH  20  21
ATOM     21  C   UNL     1      33.378 -12.085 -23.619  0.00  0.00    +0.232 C 
BRANCH  21  23
ATOM     22  C   UNL     1      34.519 -16.217 -23.822  0.00  0.00    -0.043 C 
ATOM     23  C   UNL     1      33.775 -13.530 -23.689  0.00  0.00    +0.021 C 
ATOM     24  C   UNL     1      34.875 -15.447 -22.713  0.00  0.00    -0.007 C 
ATOM     25  C   UNL     1      33.792 -15.642 -24.864  0.00  0.00    -0.007 C 
ATOM     26  C   UNL     1      34.503 -14.105 -22.647  0.00  0.00    -0.001 C 
ATOM     27  C   UNL     1      33.419 -14.299 -24.797  0.00  0.00    -0.001 C 
BRANCH  22  28
ATOM     28  C   UNL     1      34.917 -17.652 -23.892  0.00  0.00    -0.050 C 
BRANCH  28  30
ATOM     29  O   UNL     1      35.893 -20.362 -20.839  0.00  0.00    -0.358 OA
ATOM     30  N   UNL     1      35.110 -18.240 -22.568  0.00  0.00    +0.393 N 
ATOM     31  C   UNL     1      34.286 -19.447 -22.410  0.00  0.00    -0.044 C 
ATOM     32  C   UNL     1      36.525 -18.564 -22.342  0.00  0.00    -0.044 C 
ATOM     33  C   UNL     1      36.699 -19.189 -20.960  0.00  0.00    +0.119 C 
ATOM     34  C   UNL     1      34.513 -20.050 -21.027  0.00  0.00    +0.119 C 
ATOM     35  H   UNL     1      34.817 -17.553 -21.874  0.00  0.00    -0.079 HD
ENDBRANCH  28  30
ENDBRANCH  22  28
ENDBRANCH  21  23
ENDBRANCH  20  21
ENDBRANCH   7  20
TORSDOF 6
ENDMDL
MODEL 5
REMARK VINA RESULT:     -12.3      2.038      4.911
REMARK  Name = 67335295
REMARK  6 active torsions:
REMARK  status: ('A' for Active; 'I' for Inactive)
REMARK    1  A    between atoms: N_2  and  C_14
REMARK    2  A    between atoms: C_7  and  O_20
REMARK    3  A    between atoms: O_20  and  C_21
REMARK    4  A    between atoms: C_21  and  C_23
REMARK    5  A    between atoms: C_22  and  C_28
REMARK    6  A    between atoms: C_28  and  N_30
REMARK                            x       y       z     vdW  Elec       q    Type
REMARK                         _______ _______ _______ _____ _____    ______ ____
ROOT
ATOM      1  O   UNL     1      32.700 -23.882 -13.039  0.00  0.00    -0.270 OA
ATOM      2  N   UNL     1      32.426 -23.469 -15.349  0.00  0.00    -0.265 N 
ATOM      3  C   UNL     1      33.299 -23.214 -16.489  0.00  0.00    +0.124 C 
ATOM      4  C   UNL     1      34.649 -23.260 -15.859  0.00  0.00    +0.036 C 
ATOM      5  C   UNL     1      33.119 -23.653 -14.159  0.00  0.00    +0.249 C 
ATOM      6  C   UNL     1      34.542 -23.517 -14.492  0.00  0.00    +0.054 C 
ATOM      7  C   UNL     1      35.891 -23.088 -16.442  0.00  0.00    +0.137 C 
ATOM      8  C   UNL     1      35.642 -23.614 -13.662  0.00  0.00    +0.004 C 
ATOM      9  C   UNL     1      37.021 -23.180 -15.624  0.00  0.00    +0.037 C 
ATOM     10  C   UNL     1      36.898 -23.441 -14.246  0.00  0.00    +0.003 C 
ENDROOT
BRANCH   2  14
ATOM     11  O   UNL     1      31.222 -25.872 -14.915  0.00  0.00    -0.273 OA
ATOM     12  O   UNL     1      27.474 -24.675 -17.306  0.00  0.00    -0.275 OA
ATOM     13  N   UNL     1      29.377 -25.242 -16.136  0.00  0.00    -0.254 N 
ATOM     14  C   UNL     1      30.991 -23.526 -15.447  0.00  0.00    +0.153 C 
ATOM     15  C   UNL     1      30.494 -22.784 -16.678  0.00  0.00    +0.039 C 
ATOM     16  C   UNL     1      28.982 -22.899 -16.758  0.00  0.00    +0.088 C 
ATOM     17  C   UNL     1      30.583 -24.987 -15.483  0.00  0.00    +0.246 C 
ATOM     18  C   UNL     1      28.538 -24.341 -16.786  0.00  0.00    +0.228 C 
ATOM     19  H   UNL     1      29.082 -26.181 -16.138  0.00  0.00    +0.158 HD
ENDBRANCH   2  14
BRANCH   7  20
ATOM     20  O   UNL     1      36.020 -22.834 -17.769  0.00  0.00    -0.471 OA
BRANCH  20  21
ATOM     21  C   UNL     1      34.829 -22.513 -18.490  0.00  0.00    +0.232 C 
BRANCH  21  23
ATOM     22  C   UNL     1      35.730 -19.503 -21.412  0.00  0.00    -0.043 C 
ATOM     23  C   UNL     1      35.144 -21.459 -19.511  0.00  0.00    +0.021 C 
ATOM     24  C   UNL     1      34.407 -19.898 -21.201  0.00  0.00    -0.007 C 
ATOM     25  C   UNL     1      36.758 -20.086 -20.673  0.00  0.00    -0.007 C 
ATOM     26  C   UNL     1      34.115 -20.876 -20.251  0.00  0.00    -0.001 C 
ATOM     27  C   UNL     1      36.465 -21.064 -19.721  0.00  0.00    -0.001 C 
BRANCH  22  28
ATOM     28  C   UNL     1      36.041 -18.458 -22.429  0.00  0.00    -0.050 C 
BRANCH  28  30
ATOM     29  O   UNL     1      33.956 -17.855 -26.022  0.00  0.00    -0.358 OA
ATOM     30  N   UNL     1      34.954 -18.274 -23.389  0.00  0.00    +0.393 N 
ATOM     31  C   UNL     1      35.060 -16.967 -24.052  0.00  0.00    -0.044 C 
ATOM     32  C   UNL     1      34.957 -19.349 -24.391  0.00  0.00    -0.044 C 
ATOM     33  C   UNL     1      33.822 -19.129 -25.389  0.00  0.00    +0.119 C 
ATOM     34  C   UNL     1      33.923 -16.803 -25.056  0.00  0.00    +0.119 C 
ATOM     35  H   UNL     1      34.074 -18.309 -22.875  0.00  0.00    -0.079 HD
ENDBRANCH  28  30
ENDBRANCH  22  28
ENDBRANCH  21  23
ENDBRANCH  20  21
ENDBRANCH   7  20
TORSDOF 6
ENDMDL
MODEL 6
REMARK VINA RESULT:     -11.8      6.837     11.604
REMARK  Name = 67335295
REMARK  6 active torsions:
REMARK  status: ('A' for Active; 'I' for Inactive)
REMARK    1  A    between atoms: N_2  and  C_14
REMARK    2  A    between atoms: C_7  and  O_20
REMARK    3  A    between atoms: O_20  and  C_21
REMARK    4  A    between atoms: C_21  and  C_23
REMARK    5  A    between atoms: C_22  and  C_28
REMARK    6  A    between atoms: C_28  and  N_30
REMARK                            x       y       z     vdW  Elec       q    Type
REMARK                         _______ _______ _______ _____ _____    ______ ____
ROOT
ATOM      1  O   UNL     1      34.675 -18.273 -25.730  0.00  0.00    -0.270 OA
ATOM      2  N   UNL     1      34.982 -17.423 -23.546  0.00  0.00    -0.265 N 
ATOM      3  C   UNL     1      34.696 -16.176 -22.847  0.00  0.00    +0.124 C 
ATOM      4  C   UNL     1      34.059 -15.360 -23.920  0.00  0.00    +0.036 C 
ATOM      5  C   UNL     1      34.585 -17.407 -24.878  0.00  0.00    +0.249 C 
ATOM      6  C   UNL     1      33.995 -16.084 -25.112  0.00  0.00    +0.054 C 
ATOM      7  C   UNL     1      33.568 -14.069 -23.861  0.00  0.00    +0.137 C 
ATOM      8  C   UNL     1      33.451 -15.567 -26.271  0.00  0.00    +0.004 C 
ATOM      9  C   UNL     1      33.012 -13.522 -25.021  0.00  0.00    +0.037 C 
ATOM     10  C   UNL     1      32.954 -14.264 -26.216  0.00  0.00    +0.003 C 
ENDROOT
BRANCH   2  14
ATOM     11  O   UNL     1      33.407 -19.546 -22.894  0.00  0.00    -0.273 OA
ATOM     12  O   UNL     1      36.355 -21.027 -19.682  0.00  0.00    -0.275 OA
ATOM     13  N   UNL     1      34.897 -20.238 -21.283  0.00  0.00    -0.254 N 
ATOM     14  C   UNL     1      35.612 -18.555 -22.921  0.00  0.00    +0.153 C 
ATOM     15  C   UNL     1      36.567 -18.116 -21.821  0.00  0.00    +0.039 C 
ATOM     16  C   UNL     1      37.181 -19.342 -21.169  0.00  0.00    +0.088 C 
ATOM     17  C   UNL     1      34.518 -19.454 -22.373  0.00  0.00    +0.246 C 
ATOM     18  C   UNL     1      36.120 -20.266 -20.621  0.00  0.00    +0.228 C 
ATOM     19  H   UNL     1      34.209 -20.852 -20.939  0.00  0.00    +0.158 HD
ENDBRANCH   2  14
BRANCH   7  20
ATOM     20  O   UNL     1      33.621 -13.345 -22.714  0.00  0.00    -0.471 OA
BRANCH  20  21
ATOM     21  C   UNL     1      32.384 -13.081 -22.051  0.00  0.00    +0.232 C 
BRANCH  21  23
ATOM     22  C   UNL     1      32.016  -8.856 -21.393  0.00  0.00    -0.043 C 
ATOM     23  C   UNL     1      32.258 -11.604 -21.820  0.00  0.00    +0.021 C 
ATOM     24  C   UNL     1      31.701  -9.753 -20.370  0.00  0.00    -0.007 C 
ATOM     25  C   UNL     1      32.451  -9.334 -22.629  0.00  0.00    -0.007 C 
ATOM     26  C   UNL     1      31.822 -11.126 -20.584  0.00  0.00    -0.001 C 
ATOM     27  C   UNL     1      32.573 -10.708 -22.842  0.00  0.00    -0.001 C 
BRANCH  22  28
ATOM     28  C   UNL     1      31.887  -7.389 -21.164  0.00  0.00    -0.050 C 
BRANCH  28  30
ATOM     29  O   UNL     1      32.220  -4.313 -24.000  0.00  0.00    -0.358 OA
ATOM     30  N   UNL     1      31.790  -6.637 -22.414  0.00  0.00    +0.393 N 
ATOM     31  C   UNL     1      30.986  -5.422 -22.230  0.00  0.00    -0.044 C 
ATOM     32  C   UNL     1      33.127  -6.285 -22.915  0.00  0.00    -0.044 C 
ATOM     33  C   UNL     1      33.001  -5.491 -24.212  0.00  0.00    +0.119 C 
ATOM     34  C   UNL     1      30.910  -4.649 -23.544  0.00  0.00    +0.119 C 
ATOM     35  H   UNL     1      31.330  -7.232 -23.102  0.00  0.00    -0.079 HD
ENDBRANCH  28  30
ENDBRANCH  22  28
ENDBRANCH  21  23
ENDBRANCH  20  21
ENDBRANCH   7  20
TORSDOF 6
ENDMDL
MODEL 7
REMARK VINA RESULT:     -11.7      2.277      5.041
REMARK  Name = 67335295
REMARK  6 active torsions:
REMARK  status: ('A' for Active; 'I' for Inactive)
REMARK    1  A    between atoms: N_2  and  C_14
REMARK    2  A    between atoms: C_7  and  O_20
REMARK    3  A    between atoms: O_20  and  C_21
REMARK    4  A    between atoms: C_21  and  C_23
REMARK    5  A    between atoms: C_22  and  C_28
REMARK    6  A    between atoms: C_28  and  N_30
REMARK                            x       y       z     vdW  Elec       q    Type
REMARK                         _______ _______ _______ _____ _____    ______ ____
ROOT
ATOM      1  O   UNL     1      33.092 -24.385 -13.435  0.00  0.00    -0.270 OA
ATOM      2  N   UNL     1      32.829 -23.849 -15.721  0.00  0.00    -0.265 N 
ATOM      3  C   UNL     1      33.682 -23.358 -16.797  0.00  0.00    +0.124 C 
ATOM      4  C   UNL     1      34.996 -23.216 -16.109  0.00  0.00    +0.036 C 
ATOM      5  C   UNL     1      33.502 -24.001 -14.515  0.00  0.00    +0.249 C 
ATOM      6  C   UNL     1      34.889 -23.593 -14.769  0.00  0.00    +0.054 C 
ATOM      7  C   UNL     1      36.207 -22.786 -16.618  0.00  0.00    +0.137 C 
ATOM      8  C   UNL     1      35.959 -23.560 -13.897  0.00  0.00    +0.004 C 
ATOM      9  C   UNL     1      37.307 -22.742 -15.755  0.00  0.00    +0.037 C 
ATOM     10  C   UNL     1      37.184 -23.126 -14.406  0.00  0.00    +0.003 C 
ENDROOT
BRANCH   2  14
ATOM     11  O   UNL     1      31.510 -22.615 -17.758  0.00  0.00    -0.273 OA
ATOM     12  O   UNL     1      27.413 -23.159 -15.728  0.00  0.00    -0.275 OA
ATOM     13  N   UNL     1      29.486 -22.888 -16.699  0.00  0.00    -0.254 N 
ATOM     14  C   UNL     1      31.431 -24.147 -15.891  0.00  0.00    +0.153 C 
ATOM     15  C   UNL     1      30.698 -24.125 -14.559  0.00  0.00    +0.039 C 
ATOM     16  C   UNL     1      29.226 -24.411 -14.790  0.00  0.00    +0.088 C 
ATOM     17  C   UNL     1      30.850 -23.130 -16.856  0.00  0.00    +0.246 C 
ATOM     18  C   UNL     1      28.615 -23.423 -15.754  0.00  0.00    +0.228 C 
ATOM     19  H   UNL     1      29.088 -22.256 -17.340  0.00  0.00    +0.158 HD
ENDBRANCH   2  14
BRANCH   7  20
ATOM     20  O   UNL     1      36.335 -22.412 -17.916  0.00  0.00    -0.471 OA
BRANCH  20  21
ATOM     21  C   UNL     1      35.142 -22.365 -18.702  0.00  0.00    +0.232 C 
BRANCH  21  23
ATOM     22  C   UNL     1      35.570 -19.338 -21.714  0.00  0.00    -0.043 C 
ATOM     23  C   UNL     1      35.292 -21.308 -19.757  0.00  0.00    +0.021 C 
ATOM     24  C   UNL     1      36.688 -19.779 -21.003  0.00  0.00    -0.007 C 
ATOM     25  C   UNL     1      34.315 -19.883 -21.445  0.00  0.00    -0.007 C 
ATOM     26  C   UNL     1      36.548 -20.764 -20.024  0.00  0.00    -0.001 C 
ATOM     27  C   UNL     1      34.176 -20.868 -20.467  0.00  0.00    -0.001 C 
BRANCH  22  28
ATOM     28  C   UNL     1      35.720 -18.286 -22.759  0.00  0.00    -0.050 C 
BRANCH  28  30
ATOM     29  O   UNL     1      34.579 -14.312 -22.033  0.00  0.00    -0.358 OA
ATOM     30  N   UNL     1      34.905 -17.105 -22.479  0.00  0.00    +0.393 N 
ATOM     31  C   UNL     1      35.318 -16.475 -21.217  0.00  0.00    -0.044 C 
ATOM     32  C   UNL     1      34.997 -16.135 -23.580  0.00  0.00    -0.044 C 
ATOM     33  C   UNL     1      34.150 -14.906 -23.259  0.00  0.00    +0.119 C 
ATOM     34  C   UNL     1      34.463 -15.239 -20.953  0.00  0.00    +0.119 C 
ATOM     35  H   UNL     1      33.935 -17.407 -22.390  0.00  0.00    -0.079 HD
ENDBRANCH  28  30
ENDBRANCH  22  28
ENDBRANCH  21  23
ENDBRANCH  20  21
ENDBRANCH   7  20
TORSDOF 6
ENDMDL
MODEL 8
REMARK VINA RESULT:     -11.6      5.793      9.903
REMARK  Name = 67335295
REMARK  6 active torsions:
REMARK  status: ('A' for Active; 'I' for Inactive)
REMARK    1  A    between atoms: N_2  and  C_14
REMARK    2  A    between atoms: C_7  and  O_20
REMARK    3  A    between atoms: O_20  and  C_21
REMARK    4  A    between atoms: C_21  and  C_23
REMARK    5  A    between atoms: C_22  and  C_28
REMARK    6  A    between atoms: C_28  and  N_30
REMARK                            x       y       z     vdW  Elec       q    Type
REMARK                         _______ _______ _______ _____ _____    ______ ____
ROOT
ATOM      1  O   UNL     1      34.814 -20.376 -24.361  0.00  0.00    -0.270 OA
ATOM      2  N   UNL     1      35.271 -19.283 -22.316  0.00  0.00    -0.265 N 
ATOM      3  C   UNL     1      35.286 -17.907 -21.833  0.00  0.00    +0.124 C 
ATOM      4  C   UNL     1      34.896 -17.147 -23.054  0.00  0.00    +0.036 C 
ATOM      5  C   UNL     1      34.921 -19.388 -23.657  0.00  0.00    +0.249 C 
ATOM      6  C   UNL     1      34.682 -18.017 -24.124  0.00  0.00    +0.054 C 
ATOM      7  C   UNL     1      34.737 -15.784 -23.221  0.00  0.00    +0.137 C 
ATOM      8  C   UNL     1      34.310 -17.579 -25.379  0.00  0.00    +0.004 C 
ATOM      9  C   UNL     1      34.361 -15.314 -24.483  0.00  0.00    +0.037 C 
ATOM     10  C   UNL     1      34.149 -16.204 -25.553  0.00  0.00    +0.003 C 
ENDROOT
BRANCH   2  14
ATOM     11  O   UNL     1      33.216 -20.519 -21.027  0.00  0.00    -0.273 OA
ATOM     12  O   UNL     1      36.004 -22.291 -17.819  0.00  0.00    -0.275 OA
ATOM     13  N   UNL     1      34.642 -21.366 -19.432  0.00  0.00    -0.254 N 
ATOM     14  C   UNL     1      35.587 -20.417 -21.489  0.00  0.00    +0.153 C 
ATOM     15  C   UNL     1      36.803 -20.142 -20.619  0.00  0.00    +0.039 C 
ATOM     16  C   UNL     1      37.078 -21.350 -19.742  0.00  0.00    +0.088 C 
ATOM     17  C   UNL     1      34.366 -20.733 -20.643  0.00  0.00    +0.246 C 
ATOM     18  C   UNL     1      35.880 -21.700 -18.892  0.00  0.00    +0.228 C 
ATOM     19  H   UNL     1      33.857 -21.608 -18.888  0.00  0.00    +0.158 HD
ENDBRANCH   2  14
BRANCH   7  20
ATOM     20  O   UNL     1      34.942 -14.918 -22.196  0.00  0.00    -0.471 OA
BRANCH  20  21
ATOM     21  C   UNL     1      33.865 -14.730 -21.276  0.00  0.00    +0.232 C 
BRANCH  21  23
ATOM     22  C   UNL     1      31.910 -11.011 -22.149  0.00  0.00    -0.043 C 
ATOM     23  C   UNL     1      33.183 -13.429 -21.580  0.00  0.00    +0.021 C 
ATOM     24  C   UNL     1      31.510 -11.769 -21.047  0.00  0.00    -0.007 C 
ATOM     25  C   UNL     1      32.945 -11.464 -22.967  0.00  0.00    -0.007 C 
ATOM     26  C   UNL     1      32.147 -12.977 -20.763  0.00  0.00    -0.001 C 
ATOM     27  C   UNL     1      33.582 -12.672 -22.682  0.00  0.00    -0.001 C 
BRANCH  22  28
ATOM     28  C   UNL     1      31.229  -9.720 -22.452  0.00  0.00    -0.050 C 
BRANCH  28  30
ATOM     29  O   UNL     1      32.328  -5.993 -20.866  0.00  0.00    -0.358 OA
ATOM     30  N   UNL     1      32.027  -8.563 -22.052  0.00  0.00    +0.393 N 
ATOM     31  C   UNL     1      31.554  -7.346 -22.725  0.00  0.00    -0.044 C 
ATOM     32  C   UNL     1      31.987  -8.381 -20.595  0.00  0.00    -0.044 C 
ATOM     33  C   UNL     1      32.816  -7.161 -20.202  0.00  0.00    +0.119 C 
ATOM     34  C   UNL     1      32.394  -6.151 -22.283  0.00  0.00    +0.119 C 
ATOM     35  H   UNL     1      32.992  -8.737 -22.333  0.00  0.00    -0.079 HD
ENDBRANCH  28  30
ENDBRANCH  22  28
ENDBRANCH  21  23
ENDBRANCH  20  21
ENDBRANCH   7  20
TORSDOF 6
ENDMDL
MODEL 9
REMARK VINA RESULT:     -11.0      1.835      2.562
REMARK  Name = 67335295
REMARK  6 active torsions:
REMARK  status: ('A' for Active; 'I' for Inactive)
REMARK    1  A    between atoms: N_2  and  C_14
REMARK    2  A    between atoms: C_7  and  O_20
REMARK    3  A    between atoms: O_20  and  C_21
REMARK    4  A    between atoms: C_21  and  C_23
REMARK    5  A    between atoms: C_22  and  C_28
REMARK    6  A    between atoms: C_28  and  N_30
REMARK                            x       y       z     vdW  Elec       q    Type
REMARK                         _______ _______ _______ _____ _____    ______ ____
ROOT
ATOM      1  O   UNL     1      32.949 -25.113 -14.445  0.00  0.00    -0.270 OA
ATOM      2  N   UNL     1      35.137 -24.409 -14.991  0.00  0.00    -0.265 N 
ATOM      3  C   UNL     1      35.756 -23.580 -16.019  0.00  0.00    +0.124 C 
ATOM      4  C   UNL     1      34.576 -23.164 -16.830  0.00  0.00    +0.036 C 
ATOM      5  C   UNL     1      33.757 -24.509 -15.125  0.00  0.00    +0.249 C 
ATOM      6  C   UNL     1      33.405 -23.710 -16.304  0.00  0.00    +0.054 C 
ATOM      7  C   UNL     1      34.529 -22.361 -17.954  0.00  0.00    +0.137 C 
ATOM      8  C   UNL     1      32.161 -23.485 -16.862  0.00  0.00    +0.004 C 
ATOM      9  C   UNL     1      33.282 -22.118 -18.538  0.00  0.00    +0.037 C 
ATOM     10  C   UNL     1      32.108 -22.675 -17.997  0.00  0.00    +0.003 C 
ENDROOT
BRANCH   2  14
ATOM     11  O   UNL     1      34.570 -23.713 -12.420  0.00  0.00    -0.273 OA
ATOM     12  O   UNL     1      38.695 -25.087 -10.906  0.00  0.00    -0.275 OA
ATOM     13  N   UNL     1      36.651 -24.391 -11.710  0.00  0.00    -0.254 N 
ATOM     14  C   UNL     1      35.880 -25.058 -13.943  0.00  0.00    +0.153 C 
ATOM     15  C   UNL     1      37.365 -25.108 -14.271  0.00  0.00    +0.039 C 
ATOM     16  C   UNL     1      38.110 -25.769 -13.126  0.00  0.00    +0.088 C 
ATOM     17  C   UNL     1      35.627 -24.299 -12.652  0.00  0.00    +0.246 C 
ATOM     18  C   UNL     1      37.874 -25.046 -11.821  0.00  0.00    +0.228 C 
ATOM     19  H   UNL     1      36.486 -23.933 -10.854  0.00  0.00    +0.158 HD
ENDBRANCH   2  14
BRANCH   7  20
ATOM     20  O   UNL     1      35.656 -21.820 -18.484  0.00  0.00    -0.471 OA
BRANCH  20  21
ATOM     21  C   UNL     1      35.889 -22.034 -19.877  0.00  0.00    +0.232 C 
BRANCH  21  23
ATOM     22  C   UNL     1      35.628 -18.281 -21.940  0.00  0.00    -0.043 C 
ATOM     23  C   UNL     1      35.797 -20.721 -20.596  0.00  0.00    +0.021 C 
ATOM     24  C   UNL     1      34.480 -19.051 -21.743  0.00  0.00    -0.007 C 
ATOM     25  C   UNL     1      36.859 -18.732 -21.466  0.00  0.00    -0.007 C 
ATOM     26  C   UNL     1      34.565 -20.270 -21.071  0.00  0.00    -0.001 C 
ATOM     27  C   UNL     1      36.944 -19.951 -20.793  0.00  0.00    -0.001 C 
BRANCH  22  28
ATOM     28  C   UNL     1      35.536 -16.978 -22.659  0.00  0.00    -0.050 C 
BRANCH  28  30
ATOM     29  O   UNL     1      33.517 -16.731 -26.331  0.00  0.00    -0.358 OA
ATOM     30  N   UNL     1      34.469 -16.968 -23.658  0.00  0.00    +0.393 N 
ATOM     31  C   UNL     1      34.406 -15.667 -24.339  0.00  0.00    -0.044 C 
ATOM     32  C   UNL     1      34.667 -18.042 -24.642  0.00  0.00    -0.044 C 
ATOM     33  C   UNL     1      33.550 -18.004 -25.682  0.00  0.00    +0.119 C 
ATOM     34  C   UNL     1      33.294 -15.685 -25.385  0.00  0.00    +0.119 C 
ATOM     35  H   UNL     1      33.586 -17.127 -23.175  0.00  0.00    -0.079 HD
ENDBRANCH  28  30
ENDBRANCH  22  28
ENDBRANCH  21  23
ENDBRANCH  20  21
ENDBRANCH   7  20
TORSDOF 6
ENDMDL
