MODEL 1
REMARK VINA RESULT:     -11.1      0.000      0.000
REMARK  Name = 15942672
REMARK  5 active torsions:
REMARK  status: ('A' for Active; 'I' for Inactive)
REMARK    1  A    between atoms: N_2  and  C_7
REMARK    2  A    between atoms: N_3  and  C_17
REMARK    3  A    between atoms: C_8  and  C_16
REMARK    4  A    between atoms: C_18  and  O_23
REMARK    5  A    between atoms: O_23  and  C_25
REMARK                            x       y       z     vdW  Elec       q    Type
REMARK                         _______ _______ _______ _____ _____    ______ ____
ROOT
ATOM      1  O   UNL     1      34.256 -13.577 -22.768  0.00  0.00    -0.252 OA
ATOM      2  N   UNL     1      33.788 -14.469 -24.883  0.00  0.00    -0.268 N 
ATOM      3  N   UNL     1      33.605 -12.193 -24.536  0.00  0.00    -0.268 N 
ATOM      4  C   UNL     1      33.918 -13.423 -23.937  0.00  0.00    +0.308 C 
ATOM      5  H   UNL     1      33.507 -14.194 -25.786  0.00  0.00    +0.156 HD
ATOM      6  H   UNL     1      33.349 -12.227 -25.486  0.00  0.00    +0.156 HD
ENDROOT
BRANCH   2   7
ATOM      7  C   UNL     1      34.003 -15.836 -24.705  0.00  0.00    +0.052 C 
ATOM      8  C   UNL     1      34.922 -17.658 -23.413  0.00  0.00    +0.073 C 
ATOM      9  C   UNL     1      34.707 -16.291 -23.591  0.00  0.00    +0.019 C 
ATOM     10  C   UNL     1      33.515 -16.746 -25.643  0.00  0.00    +0.015 C 
ATOM     11  C   UNL     1      34.433 -18.569 -24.350  0.00  0.00    +0.004 C 
ATOM     12  C   UNL     1      33.730 -18.113 -25.465  0.00  0.00    +0.001 C 
BRANCH   8  16
ATOM     13  F   UNL     1      36.993 -18.392 -22.467  0.00  0.00    -0.166 F 
ATOM     14  F   UNL     1      35.662 -17.273 -21.172  0.00  0.00    -0.166 F 
ATOM     15  F   UNL     1      35.170 -19.317 -21.727  0.00  0.00    -0.166 F 
ATOM     16  C   UNL     1      35.673 -18.147 -22.221  0.00  0.00    +0.419 C 
ENDBRANCH   8  16
ENDBRANCH   2   7
BRANCH   3  17
ATOM     17  C   UNL     1      33.609 -10.908 -23.942  0.00  0.00    +0.052 C 
ATOM     18  C   UNL     1      33.619  -8.393 -22.781  0.00  0.00    +0.145 C 
ATOM     19  C   UNL     1      32.592 -10.561 -23.070  0.00  0.00    +0.018 C 
ATOM     20  C   UNL     1      34.632 -10.024 -24.247  0.00  0.00    +0.018 C 
ATOM     21  C   UNL     1      32.597  -9.294 -22.485  0.00  0.00    +0.039 C 
ATOM     22  C   UNL     1      34.638  -8.758 -23.662  0.00  0.00    +0.039 C 
BRANCH  18  23
ATOM     23  O   UNL     1      33.626  -7.158 -22.209  0.00  0.00    -0.453 OA
BRANCH  23  25
ATOM     24  N   UNL     1      30.583  -4.531 -23.261  0.00  0.00    -0.242 NA
ATOM     25  C   UNL     1      32.613  -6.282 -22.559  0.00  0.00    +0.148 C 
ATOM     26  C   UNL     1      31.635  -5.978 -21.635  0.00  0.00    +0.058 C 
ATOM     27  C   UNL     1      32.603  -5.733 -23.823  0.00  0.00    +0.058 C 
ATOM     28  C   UNL     1      30.643  -5.097 -22.035  0.00  0.00    +0.102 C 
ATOM     29  C   UNL     1      31.567  -4.864 -24.125  0.00  0.00    +0.102 C 
ENDBRANCH  23  25
ENDBRANCH  18  23
ENDBRANCH   3  17
TORSDOF 5
ENDMDL
MODEL 2
REMARK VINA RESULT:     -11.0      4.416     10.625
REMARK  Name = 15942672
REMARK  5 active torsions:
REMARK  status: ('A' for Active; 'I' for Inactive)
REMARK    1  A    between atoms: N_2  and  C_7
REMARK    2  A    between atoms: N_3  and  C_17
REMARK    3  A    between atoms: C_8  and  C_16
REMARK    4  A    between atoms: C_18  and  O_23
REMARK    5  A    between atoms: O_23  and  C_25
REMARK                            x       y       z     vdW  Elec       q    Type
REMARK                         _______ _______ _______ _____ _____    ______ ____
ROOT
ATOM      1  O   UNL     1      34.695 -13.939 -21.879  0.00  0.00    -0.252 OA
ATOM      2  N   UNL     1      34.148 -13.242 -24.048  0.00  0.00    -0.268 N 
ATOM      3  N   UNL     1      34.607 -15.470 -23.644  0.00  0.00    -0.268 N 
ATOM      4  C   UNL     1      34.505 -14.196 -23.064  0.00  0.00    +0.308 C 
ATOM      5  H   UNL     1      34.029 -13.595 -24.960  0.00  0.00    +0.156 HD
ATOM      6  H   UNL     1      34.426 -15.520 -24.610  0.00  0.00    +0.156 HD
ENDROOT
BRANCH   2   7
ATOM      7  C   UNL     1      33.944 -11.870 -23.898  0.00  0.00    +0.052 C 
ATOM      8  C   UNL     1      32.641 -10.032 -23.027  0.00  0.00    +0.073 C 
ATOM      9  C   UNL     1      32.845 -11.404 -23.178  0.00  0.00    +0.019 C 
ATOM     10  C   UNL     1      34.840 -10.967 -24.467  0.00  0.00    +0.015 C 
ATOM     11  C   UNL     1      33.538  -9.127 -23.597  0.00  0.00    +0.004 C 
ATOM     12  C   UNL     1      34.637  -9.595 -24.317  0.00  0.00    +0.001 C 
BRANCH   8  16
ATOM     13  F   UNL     1      30.508 -10.479 -22.041  0.00  0.00    -0.166 F 
ATOM     14  F   UNL     1      31.788  -9.059 -21.016  0.00  0.00    -0.166 F 
ATOM     15  F   UNL     1      30.828  -8.501 -22.886  0.00  0.00    -0.166 F 
ATOM     16  C   UNL     1      31.466  -9.531 -22.257  0.00  0.00    +0.419 C 
ENDBRANCH   8  16
ENDBRANCH   2   7
BRANCH   3  17
ATOM     17  C   UNL     1      34.940 -16.692 -23.013  0.00  0.00    +0.052 C 
ATOM     18  C   UNL     1      35.592 -19.084 -21.778  0.00  0.00    +0.145 C 
ATOM     19  C   UNL     1      35.264 -16.693 -21.667  0.00  0.00    +0.018 C 
ATOM     20  C   UNL     1      34.936 -17.861 -23.756  0.00  0.00    +0.018 C 
ATOM     21  C   UNL     1      35.592 -17.898 -21.045  0.00  0.00    +0.039 C 
ATOM     22  C   UNL     1      35.263 -19.066 -23.134  0.00  0.00    +0.039 C 
BRANCH  18  23
ATOM     23  O   UNL     1      35.910 -20.260 -21.172  0.00  0.00    -0.453 OA
BRANCH  23  25
ATOM     24  N   UNL     1      32.935 -22.176 -18.993  0.00  0.00    -0.242 NA
ATOM     25  C   UNL     1      34.920 -20.898 -20.444  0.00  0.00    +0.148 C 
ATOM     26  C   UNL     1      35.274 -21.853 -19.515  0.00  0.00    +0.058 C 
ATOM     27  C   UNL     1      33.601 -20.564 -20.666  0.00  0.00    +0.058 C 
ATOM     28  C   UNL     1      34.244 -22.463 -18.816  0.00  0.00    +0.102 C 
ATOM     29  C   UNL     1      32.647 -21.232 -19.916  0.00  0.00    +0.102 C 
ENDBRANCH  23  25
ENDBRANCH  18  23
ENDBRANCH   3  17
TORSDOF 5
ENDMDL
MODEL 3
REMARK VINA RESULT:     -10.8      4.917     10.590
REMARK  Name = 15942672
REMARK  5 active torsions:
REMARK  status: ('A' for Active; 'I' for Inactive)
REMARK    1  A    between atoms: N_2  and  C_7
REMARK    2  A    between atoms: N_3  and  C_17
REMARK    3  A    between atoms: C_8  and  C_16
REMARK    4  A    between atoms: C_18  and  O_23
REMARK    5  A    between atoms: O_23  and  C_25
REMARK                            x       y       z     vdW  Elec       q    Type
REMARK                         _______ _______ _______ _____ _____    ______ ____
ROOT
ATOM      1  O   UNL     1      34.818 -11.179 -24.193  0.00  0.00    -0.252 OA
ATOM      2  N   UNL     1      32.894 -10.230 -23.252  0.00  0.00    -0.268 N 
ATOM      3  N   UNL     1      33.146 -12.526 -23.267  0.00  0.00    -0.268 N 
ATOM      4  C   UNL     1      33.734 -11.305 -23.631  0.00  0.00    +0.308 C 
ATOM      5  H   UNL     1      32.052 -10.484 -22.808  0.00  0.00    +0.156 HD
ATOM      6  H   UNL     1      32.271 -12.467 -22.821  0.00  0.00    +0.156 HD
ENDROOT
BRANCH   2   7
ATOM      7  C   UNL     1      33.098  -8.861 -23.426  0.00  0.00    +0.052 C 
ATOM      8  C   UNL     1      32.283  -6.591 -23.295  0.00  0.00    +0.073 C 
ATOM      9  C   UNL     1      32.079  -7.959 -23.121  0.00  0.00    +0.019 C 
ATOM     10  C   UNL     1      34.322  -8.395 -23.906  0.00  0.00    +0.015 C 
ATOM     11  C   UNL     1      33.508  -6.124 -23.775  0.00  0.00    +0.004 C 
ATOM     12  C   UNL     1      34.526  -7.026 -24.080  0.00  0.00    +0.001 C 
BRANCH   8  16
ATOM     13  F   UNL     1      30.108  -6.203 -22.378  0.00  0.00    -0.166 F 
ATOM     14  F   UNL     1      31.582  -4.635 -22.110  0.00  0.00    -0.166 F 
ATOM     15  F   UNL     1      30.713  -4.984 -24.073  0.00  0.00    -0.166 F 
ATOM     16  C   UNL     1      31.195  -5.625 -22.968  0.00  0.00    +0.419 C 
ENDBRANCH   8  16
ENDBRANCH   2   7
BRANCH   3  17
ATOM     17  C   UNL     1      33.655 -13.832 -23.463  0.00  0.00    +0.052 C 
ATOM     18  C   UNL     1      34.651 -16.388 -23.846  0.00  0.00    +0.145 C 
ATOM     19  C   UNL     1      33.347 -14.511 -24.629  0.00  0.00    +0.018 C 
ATOM     20  C   UNL     1      34.450 -14.403 -22.483  0.00  0.00    +0.018 C 
ATOM     21  C   UNL     1      33.849 -15.799 -24.822  0.00  0.00    +0.039 C 
ATOM     22  C   UNL     1      34.952 -15.690 -22.676  0.00  0.00    +0.039 C 
BRANCH  18  23
ATOM     23  O   UNL     1      35.142 -17.643 -24.035  0.00  0.00    -0.453 OA
BRANCH  23  25
ATOM     24  N   UNL     1      35.765 -19.996 -20.667  0.00  0.00    -0.242 NA
ATOM     25  C   UNL     1      35.350 -18.428 -22.913  0.00  0.00    +0.148 C 
ATOM     26  C   UNL     1      34.341 -19.261 -22.477  0.00  0.00    +0.058 C 
ATOM     27  C   UNL     1      36.560 -18.359 -22.257  0.00  0.00    +0.058 C 
ATOM     28  C   UNL     1      34.598 -20.024 -21.349  0.00  0.00    +0.102 C 
ATOM     29  C   UNL     1      36.717 -19.162 -21.140  0.00  0.00    +0.102 C 
ENDBRANCH  23  25
ENDBRANCH  18  23
ENDBRANCH   3  17
TORSDOF 5
ENDMDL
MODEL 4
REMARK VINA RESULT:     -10.8      4.573     10.624
REMARK  Name = 15942672
REMARK  5 active torsions:
REMARK  status: ('A' for Active; 'I' for Inactive)
REMARK    1  A    between atoms: N_2  and  C_7
REMARK    2  A    between atoms: N_3  and  C_17
REMARK    3  A    between atoms: C_8  and  C_16
REMARK    4  A    between atoms: C_18  and  O_23
REMARK    5  A    between atoms: O_23  and  C_25
REMARK                            x       y       z     vdW  Elec       q    Type
REMARK                         _______ _______ _______ _____ _____    ______ ____
ROOT
ATOM      1  O   UNL     1      33.701 -13.616 -21.448  0.00  0.00    -0.252 OA
ATOM      2  N   UNL     1      33.754 -12.489 -23.502  0.00  0.00    -0.268 N 
ATOM      3  N   UNL     1      34.509 -14.669 -23.373  0.00  0.00    -0.268 N 
ATOM      4  C   UNL     1      33.963 -13.599 -22.647  0.00  0.00    +0.308 C 
ATOM      5  H   UNL     1      34.012 -12.622 -24.443  0.00  0.00    +0.156 HD
ATOM      6  H   UNL     1      34.664 -14.505 -24.331  0.00  0.00    +0.156 HD
ENDROOT
BRANCH   2   7
ATOM      7  C   UNL     1      33.233 -11.234 -23.188  0.00  0.00    +0.052 C 
ATOM      8  C   UNL     1      33.423  -8.826 -23.206  0.00  0.00    +0.073 C 
ATOM      9  C   UNL     1      33.944 -10.081 -23.520  0.00  0.00    +0.019 C 
ATOM     10  C   UNL     1      32.001 -11.132 -22.542  0.00  0.00    +0.015 C 
ATOM     11  C   UNL     1      32.191  -8.724 -22.560  0.00  0.00    +0.004 C 
ATOM     12  C   UNL     1      31.480  -9.877 -22.228  0.00  0.00    +0.001 C 
BRANCH   8  16
ATOM     13  F   UNL     1      35.402  -7.505 -22.954  0.00  0.00    -0.166 F 
ATOM     14  F   UNL     1      34.439  -7.475 -24.897  0.00  0.00    -0.166 F 
ATOM     15  F   UNL     1      33.519  -6.450 -23.215  0.00  0.00    -0.166 F 
ATOM     16  C   UNL     1      34.182  -7.592 -23.561  0.00  0.00    +0.419 C 
ENDBRANCH   8  16
ENDBRANCH   2   7
BRANCH   3  17
ATOM     17  C   UNL     1      34.865 -15.953 -22.898  0.00  0.00    +0.052 C 
ATOM     18  C   UNL     1      35.563 -18.468 -21.970  0.00  0.00    +0.145 C 
ATOM     19  C   UNL     1      35.054 -16.146 -21.540  0.00  0.00    +0.018 C 
ATOM     20  C   UNL     1      35.019 -16.991 -23.803  0.00  0.00    +0.018 C 
ATOM     21  C   UNL     1      35.405 -17.413 -21.073  0.00  0.00    +0.039 C 
ATOM     22  C   UNL     1      35.369 -18.258 -23.335  0.00  0.00    +0.039 C 
BRANCH  18  23
ATOM     23  O   UNL     1      35.904 -19.704 -21.514  0.00  0.00    -0.453 OA
BRANCH  23  25
ATOM     24  N   UNL     1      33.012 -21.872 -19.464  0.00  0.00    -0.242 NA
ATOM     25  C   UNL     1      34.941 -20.426 -20.829  0.00  0.00    +0.148 C 
ATOM     26  C   UNL     1      35.335 -21.374 -19.909  0.00  0.00    +0.058 C 
ATOM     27  C   UNL     1      33.608 -20.181 -21.084  0.00  0.00    +0.058 C 
ATOM     28  C   UNL     1      34.332 -22.070 -19.253  0.00  0.00    +0.102 C 
ATOM     29  C   UNL     1      32.683 -20.931 -20.376  0.00  0.00    +0.102 C 
ENDBRANCH  23  25
ENDBRANCH  18  23
ENDBRANCH   3  17
TORSDOF 5
ENDMDL
MODEL 5
REMARK VINA RESULT:     -10.5      8.030     11.968
REMARK  Name = 15942672
REMARK  5 active torsions:
REMARK  status: ('A' for Active; 'I' for Inactive)
REMARK    1  A    between atoms: N_2  and  C_7
REMARK    2  A    between atoms: N_3  and  C_17
REMARK    3  A    between atoms: C_8  and  C_16
REMARK    4  A    between atoms: C_18  and  O_23
REMARK    5  A    between atoms: O_23  and  C_25
REMARK                            x       y       z     vdW  Elec       q    Type
REMARK                         _______ _______ _______ _____ _____    ______ ____
ROOT
ATOM      1  O   UNL     1      36.458 -21.872 -16.813  0.00  0.00    -0.252 OA
ATOM      2  N   UNL     1      34.999 -23.671 -16.463  0.00  0.00    -0.268 N 
ATOM      3  N   UNL     1      34.882 -22.471 -18.433  0.00  0.00    -0.268 N 
ATOM      4  C   UNL     1      35.543 -22.592 -17.201  0.00  0.00    +0.308 C 
ATOM      5  H   UNL     1      34.265 -24.160 -16.902  0.00  0.00    +0.156 HD
ATOM      6  H   UNL     1      34.165 -23.123 -18.604  0.00  0.00    +0.156 HD
ENDROOT
BRANCH   2   7
ATOM      7  C   UNL     1      35.362 -24.132 -15.198  0.00  0.00    +0.052 C 
ATOM      8  C   UNL     1      36.953 -25.231 -13.749  0.00  0.00    +0.073 C 
ATOM      9  C   UNL     1      36.589 -24.770 -15.014  0.00  0.00    +0.019 C 
ATOM     10  C   UNL     1      34.499 -23.955 -14.117  0.00  0.00    +0.015 C 
ATOM     11  C   UNL     1      36.089 -25.054 -12.667  0.00  0.00    +0.004 C 
ATOM     12  C   UNL     1      34.863 -24.416 -12.851  0.00  0.00    +0.001 C 
BRANCH   8  16
ATOM     13  F   UNL     1      38.531 -26.870 -14.486  0.00  0.00    -0.166 F 
ATOM     14  F   UNL     1      39.333 -25.064 -13.594  0.00  0.00    -0.166 F 
ATOM     15  F   UNL     1      38.349 -26.547 -12.344  0.00  0.00    -0.166 F 
ATOM     16  C   UNL     1      38.264 -25.913 -13.550  0.00  0.00    +0.419 C 
ENDBRANCH   8  16
ENDBRANCH   2   7
BRANCH   3  17
ATOM     17  C   UNL     1      35.118 -21.526 -19.460  0.00  0.00    +0.052 C 
ATOM     18  C   UNL     1      35.582 -19.678 -21.471  0.00  0.00    +0.145 C 
ATOM     19  C   UNL     1      34.045 -21.006 -20.163  0.00  0.00    +0.018 C 
ATOM     20  C   UNL     1      36.419 -21.143 -19.741  0.00  0.00    +0.018 C 
ATOM     21  C   UNL     1      34.279 -20.075 -21.176  0.00  0.00    +0.039 C 
ATOM     22  C   UNL     1      36.653 -20.211 -20.753  0.00  0.00    +0.039 C 
BRANCH  18  23
ATOM     23  O   UNL     1      35.810 -18.769 -22.457  0.00  0.00    -0.453 OA
BRANCH  23  25
ATOM     24  N   UNL     1      34.550 -14.862 -21.811  0.00  0.00    -0.242 NA
ATOM     25  C   UNL     1      35.389 -17.467 -22.243  0.00  0.00    +0.148 C 
ATOM     26  C   UNL     1      35.112 -16.661 -23.326  0.00  0.00    +0.058 C 
ATOM     27  C   UNL     1      35.258 -17.006 -20.950  0.00  0.00    +0.058 C 
ATOM     28  C   UNL     1      34.696 -15.367 -23.057  0.00  0.00    +0.102 C 
ATOM     29  C   UNL     1      34.836 -15.697 -20.788  0.00  0.00    +0.102 C 
ENDBRANCH  23  25
ENDBRANCH  18  23
ENDBRANCH   3  17
TORSDOF 5
ENDMDL
MODEL 6
REMARK VINA RESULT:     -10.3      7.957     13.984
REMARK  Name = 15942672
REMARK  5 active torsions:
REMARK  status: ('A' for Active; 'I' for Inactive)
REMARK    1  A    between atoms: N_2  and  C_7
REMARK    2  A    between atoms: N_3  and  C_17
REMARK    3  A    between atoms: C_8  and  C_16
REMARK    4  A    between atoms: C_18  and  O_23
REMARK    5  A    between atoms: O_23  and  C_25
REMARK                            x       y       z     vdW  Elec       q    Type
REMARK                         _______ _______ _______ _____ _____    ______ ____
ROOT
ATOM      1  O   UNL     1      34.024 -20.271 -20.138  0.00  0.00    -0.252 OA
ATOM      2  N   UNL     1      35.983 -19.755 -21.314  0.00  0.00    -0.268 N 
ATOM      3  N   UNL     1      36.073 -21.220 -19.530  0.00  0.00    -0.268 N 
ATOM      4  C   UNL     1      35.232 -20.405 -20.304  0.00  0.00    +0.308 C 
ATOM      5  H   UNL     1      36.947 -19.959 -21.326  0.00  0.00    +0.156 HD
ATOM      6  H   UNL     1      37.024 -21.224 -19.785  0.00  0.00    +0.156 HD
ENDROOT
BRANCH   2   7
ATOM      7  C   UNL     1      35.540 -18.864 -22.292  0.00  0.00    +0.052 C 
ATOM      8  C   UNL     1      34.377 -18.444 -24.367  0.00  0.00    +0.073 C 
ATOM      9  C   UNL     1      34.820 -19.335 -23.390  0.00  0.00    +0.019 C 
ATOM     10  C   UNL     1      35.816 -17.503 -22.171  0.00  0.00    +0.015 C 
ATOM     11  C   UNL     1      34.653 -17.082 -24.246  0.00  0.00    +0.004 C 
ATOM     12  C   UNL     1      35.373 -16.612 -23.148  0.00  0.00    +0.001 C 
BRANCH   8  16
ATOM     13  F   UNL     1      32.386 -19.464 -25.215  0.00  0.00    -0.166 F 
ATOM     14  F   UNL     1      33.348 -17.985 -26.476  0.00  0.00    -0.166 F 
ATOM     15  F   UNL     1      34.259 -19.941 -26.211  0.00  0.00    -0.166 F 
ATOM     16  C   UNL     1      33.606 -18.946 -25.541  0.00  0.00    +0.419 C 
ENDBRANCH   8  16
ENDBRANCH   2   7
BRANCH   3  17
ATOM     17  C   UNL     1      35.724 -22.034 -18.428  0.00  0.00    +0.052 C 
ATOM     18  C   UNL     1      35.040 -23.629 -16.268  0.00  0.00    +0.145 C 
ATOM     19  C   UNL     1      34.512 -22.705 -18.437  0.00  0.00    +0.018 C 
ATOM     20  C   UNL     1      36.601 -22.144 -17.361  0.00  0.00    +0.018 C 
ATOM     21  C   UNL     1      34.168 -23.508 -17.349  0.00  0.00    +0.039 C 
ATOM     22  C   UNL     1      36.257 -22.948 -16.274  0.00  0.00    +0.039 C 
BRANCH  18  23
ATOM     23  O   UNL     1      34.706 -24.414 -15.208  0.00  0.00    -0.453 OA
BRANCH  23  25
ATOM     24  N   UNL     1      37.677 -26.804 -13.555  0.00  0.00    -0.242 NA
ATOM     25  C   UNL     1      35.697 -25.210 -14.658  0.00  0.00    +0.148 C 
ATOM     26  C   UNL     1      36.219 -26.247 -15.402  0.00  0.00    +0.058 C 
ATOM     27  C   UNL     1      36.138 -24.949 -13.379  0.00  0.00    +0.058 C 
ATOM     28  C   UNL     1      37.207 -27.015 -14.805  0.00  0.00    +0.102 C 
ATOM     29  C   UNL     1      37.128 -25.774 -12.873  0.00  0.00    +0.102 C 
ENDBRANCH  23  25
ENDBRANCH  18  23
ENDBRANCH   3  17
TORSDOF 5
ENDMDL
MODEL 7
REMARK VINA RESULT:     -10.3      5.462      8.653
REMARK  Name = 15942672
REMARK  5 active torsions:
REMARK  status: ('A' for Active; 'I' for Inactive)
REMARK    1  A    between atoms: N_2  and  C_7
REMARK    2  A    between atoms: N_3  and  C_17
REMARK    3  A    between atoms: C_8  and  C_16
REMARK    4  A    between atoms: C_18  and  O_23
REMARK    5  A    between atoms: O_23  and  C_25
REMARK                            x       y       z     vdW  Elec       q    Type
REMARK                         _______ _______ _______ _____ _____    ______ ____
ROOT
ATOM      1  O   UNL     1      33.442 -20.158 -20.942  0.00  0.00    -0.252 OA
ATOM      2  N   UNL     1      35.452 -21.175 -20.300  0.00  0.00    -0.268 N 
ATOM      3  N   UNL     1      35.399 -19.830 -22.178  0.00  0.00    -0.268 N 
ATOM      4  C   UNL     1      34.638 -20.362 -21.126  0.00  0.00    +0.308 C 
ATOM      5  H   UNL     1      36.396 -21.247 -20.572  0.00  0.00    +0.156 HD
ATOM      6  H   UNL     1      36.350 -20.085 -22.194  0.00  0.00    +0.156 HD
ENDROOT
BRANCH   2   7
ATOM      7  C   UNL     1      35.096 -21.887 -19.155  0.00  0.00    +0.052 C 
ATOM      8  C   UNL     1      35.659 -22.760 -16.974  0.00  0.00    +0.073 C 
ATOM      9  C   UNL     1      36.016 -22.048 -18.119  0.00  0.00    +0.019 C 
ATOM     10  C   UNL     1      33.819 -22.437 -19.046  0.00  0.00    +0.015 C 
ATOM     11  C   UNL     1      34.382 -23.310 -16.865  0.00  0.00    +0.004 C 
ATOM     12  C   UNL     1      33.462 -23.149 -17.901  0.00  0.00    +0.001 C 
BRANCH   8  16
ATOM     13  F   UNL     1      37.119 -24.205 -15.748  0.00  0.00    -0.166 F 
ATOM     14  F   UNL     1      37.751 -22.145 -15.991  0.00  0.00    -0.166 F 
ATOM     15  F   UNL     1      36.113 -22.626 -14.644  0.00  0.00    -0.166 F 
ATOM     16  C   UNL     1      36.642 -22.932 -15.865  0.00  0.00    +0.419 C 
ENDBRANCH   8  16
ENDBRANCH   2   7
BRANCH   3  17
ATOM     17  C   UNL     1      34.970 -18.973 -23.219  0.00  0.00    +0.052 C 
ATOM     18  C   UNL     1      34.128 -17.296 -25.256  0.00  0.00    +0.145 C 
ATOM     19  C   UNL     1      35.356 -17.644 -23.205  0.00  0.00    +0.018 C 
ATOM     20  C   UNL     1      34.171 -19.482 -24.229  0.00  0.00    +0.018 C 
ATOM     21  C   UNL     1      34.932 -16.799 -24.231  0.00  0.00    +0.039 C 
ATOM     22  C   UNL     1      33.748 -18.638 -25.256  0.00  0.00    +0.039 C 
BRANCH  18  23
ATOM     23  O   UNL     1      33.716 -16.473 -26.259  0.00  0.00    -0.453 OA
BRANCH  23  25
ATOM     24  N   UNL     1      33.347 -12.424 -25.401  0.00  0.00    -0.242 NA
ATOM     25  C   UNL     1      33.592 -15.124 -25.974  0.00  0.00    +0.148 C 
ATOM     26  C   UNL     1      33.684 -14.207 -26.999  0.00  0.00    +0.058 C 
ATOM     27  C   UNL     1      33.381 -14.727 -24.671  0.00  0.00    +0.058 C 
ATOM     28  C   UNL     1      33.555 -12.869 -26.661  0.00  0.00    +0.102 C 
ATOM     29  C   UNL     1      33.266 -13.367 -24.437  0.00  0.00    +0.102 C 
ENDBRANCH  23  25
ENDBRANCH  18  23
ENDBRANCH   3  17
TORSDOF 5
ENDMDL
MODEL 8
REMARK VINA RESULT:     -10.3      7.020     10.939
REMARK  Name = 15942672
REMARK  5 active torsions:
REMARK  status: ('A' for Active; 'I' for Inactive)
REMARK    1  A    between atoms: N_2  and  C_7
REMARK    2  A    between atoms: N_3  and  C_17
REMARK    3  A    between atoms: C_8  and  C_16
REMARK    4  A    between atoms: C_18  and  O_23
REMARK    5  A    between atoms: O_23  and  C_25
REMARK                            x       y       z     vdW  Elec       q    Type
REMARK                         _______ _______ _______ _____ _____    ______ ____
ROOT
ATOM      1  O   UNL     1      35.458 -22.459 -19.045  0.00  0.00    -0.252 OA
ATOM      2  N   UNL     1      36.919 -21.851 -17.317  0.00  0.00    -0.268 N 
ATOM      3  N   UNL     1      36.744 -20.511 -19.190  0.00  0.00    -0.268 N 
ATOM      4  C   UNL     1      36.285 -21.685 -18.573  0.00  0.00    +0.308 C 
ATOM      5  H   UNL     1      37.563 -21.149 -17.068  0.00  0.00    +0.156 HD
ATOM      6  H   UNL     1      37.411 -19.991 -18.687  0.00  0.00    +0.156 HD
ENDROOT
BRANCH   2   7
ATOM      7  C   UNL     1      36.752 -22.877 -16.386  0.00  0.00    +0.052 C 
ATOM      8  C   UNL     1      37.701 -24.557 -14.933  0.00  0.00    +0.073 C 
ATOM      9  C   UNL     1      37.868 -23.531 -15.863  0.00  0.00    +0.019 C 
ATOM     10  C   UNL     1      35.471 -23.249 -15.981  0.00  0.00    +0.015 C 
ATOM     11  C   UNL     1      36.419 -24.929 -14.527  0.00  0.00    +0.004 C 
ATOM     12  C   UNL     1      35.305 -24.275 -15.050  0.00  0.00    +0.001 C 
BRANCH   8  16
ATOM     13  F   UNL     1      38.762 -26.615 -14.330  0.00  0.00    -0.166 F 
ATOM     14  F   UNL     1      40.041 -25.031 -15.075  0.00  0.00    -0.166 F 
ATOM     15  F   UNL     1      39.169 -24.877 -13.090  0.00  0.00    -0.166 F 
ATOM     16  C   UNL     1      38.893 -25.257 -14.372  0.00  0.00    +0.419 C 
ENDBRANCH   8  16
ENDBRANCH   2   7
BRANCH   3  17
ATOM     17  C   UNL     1      36.365 -19.982 -20.446  0.00  0.00    +0.052 C 
ATOM     18  C   UNL     1      35.626 -18.946 -22.907  0.00  0.00    +0.145 C 
ATOM     19  C   UNL     1      35.080 -20.197 -20.913  0.00  0.00    +0.018 C 
ATOM     20  C   UNL     1      37.290 -19.260 -21.184  0.00  0.00    +0.018 C 
ATOM     21  C   UNL     1      34.708 -19.675 -22.153  0.00  0.00    +0.039 C 
ATOM     22  C   UNL     1      36.918 -18.737 -22.422  0.00  0.00    +0.039 C 
BRANCH  18  23
ATOM     23  O   UNL     1      35.263 -18.435 -24.115  0.00  0.00    -0.453 OA
BRANCH  23  25
ATOM     24  N   UNL     1      33.712 -14.581 -24.194  0.00  0.00    -0.242 NA
ATOM     25  C   UNL     1      34.745 -17.151 -24.141  0.00  0.00    +0.148 C 
ATOM     26  C   UNL     1      33.960 -16.762 -25.207  0.00  0.00    +0.058 C 
ATOM     27  C   UNL     1      35.026 -16.290 -23.103  0.00  0.00    +0.058 C 
ATOM     28  C   UNL     1      33.468 -15.467 -25.186  0.00  0.00    +0.102 C 
ATOM     29  C   UNL     1      34.487 -15.016 -23.177  0.00  0.00    +0.102 C 
ENDBRANCH  23  25
ENDBRANCH  18  23
ENDBRANCH   3  17
TORSDOF 5
ENDMDL
MODEL 9
REMARK VINA RESULT:     -10.2      4.641     10.398
REMARK  Name = 15942672
REMARK  5 active torsions:
REMARK  status: ('A' for Active; 'I' for Inactive)
REMARK    1  A    between atoms: N_2  and  C_7
REMARK    2  A    between atoms: N_3  and  C_17
REMARK    3  A    between atoms: C_8  and  C_16
REMARK    4  A    between atoms: C_18  and  O_23
REMARK    5  A    between atoms: O_23  and  C_25
REMARK                            x       y       z     vdW  Elec       q    Type
REMARK                         _______ _______ _______ _____ _____    ______ ____
ROOT
ATOM      1  O   UNL     1      33.668 -11.294 -24.514  0.00  0.00    -0.252 OA
ATOM      2  N   UNL     1      32.450 -10.337 -22.757  0.00  0.00    -0.268 N 
ATOM      3  N   UNL     1      33.103 -12.549 -22.623  0.00  0.00    -0.268 N 
ATOM      4  C   UNL     1      33.132 -11.390 -23.414  0.00  0.00    +0.308 C 
ATOM      5  H   UNL     1      32.068 -10.561 -21.877  0.00  0.00    +0.156 HD
ATOM      6  H   UNL     1      32.633 -12.472 -21.762  0.00  0.00    +0.156 HD
ENDROOT
BRANCH   2   7
ATOM      7  C   UNL     1      32.245  -9.027 -23.191  0.00  0.00    +0.052 C 
ATOM      8  C   UNL     1      33.114  -6.965 -24.101  0.00  0.00    +0.073 C 
ATOM      9  C   UNL     1      33.319  -8.275 -23.667  0.00  0.00    +0.019 C 
ATOM     10  C   UNL     1      30.967  -8.471 -23.149  0.00  0.00    +0.015 C 
ATOM     11  C   UNL     1      31.835  -6.408 -24.058  0.00  0.00    +0.004 C 
ATOM     12  C   UNL     1      30.762  -7.161 -23.582  0.00  0.00    +0.001 C 
BRANCH   8  16
ATOM     13  F   UNL     1      34.011  -4.817 -24.654  0.00  0.00    -0.166 F 
ATOM     14  F   UNL     1      35.395  -6.287 -23.861  0.00  0.00    -0.166 F 
ATOM     15  F   UNL     1      34.621  -6.505 -25.881  0.00  0.00    -0.166 F 
ATOM     16  C   UNL     1      34.260  -6.159 -24.611  0.00  0.00    +0.419 C 
ENDBRANCH   8  16
ENDBRANCH   2   7
BRANCH   3  17
ATOM     17  C   UNL     1      33.665 -13.815 -22.911  0.00  0.00    +0.052 C 
ATOM     18  C   UNL     1      34.765 -16.294 -23.476  0.00  0.00    +0.145 C 
ATOM     19  C   UNL     1      34.431 -14.451 -21.949  0.00  0.00    +0.018 C 
ATOM     20  C   UNL     1      33.437 -14.392 -24.150  0.00  0.00    +0.018 C 
ATOM     21  C   UNL     1      34.985 -15.700 -22.234  0.00  0.00    +0.039 C 
ATOM     22  C   UNL     1      33.990 -15.640 -24.434  0.00  0.00    +0.039 C 
BRANCH  18  23
ATOM     23  O   UNL     1      35.303 -17.513 -23.753  0.00  0.00    -0.453 OA
BRANCH  23  25
ATOM     24  N   UNL     1      35.837 -20.157 -20.592  0.00  0.00    -0.242 NA
ATOM     25  C   UNL     1      35.481 -18.392 -22.699  0.00  0.00    +0.148 C 
ATOM     26  C   UNL     1      36.696 -18.427 -22.046  0.00  0.00    +0.058 C 
ATOM     27  C   UNL     1      34.441 -19.216 -22.326  0.00  0.00    +0.058 C 
ATOM     28  C   UNL     1      36.822 -19.326 -20.999  0.00  0.00    +0.102 C 
ATOM     29  C   UNL     1      34.669 -20.080 -21.267  0.00  0.00    +0.102 C 
ENDBRANCH  23  25
ENDBRANCH  18  23
ENDBRANCH   3  17
TORSDOF 5
ENDMDL
