MODEL 1
REMARK VINA RESULT:     -11.2      0.000      0.000
REMARK  Name = 9909438
REMARK  10 active torsions:
REMARK  status: ('A' for Active; 'I' for Inactive)
REMARK    1  A    between atoms: C_1  and  C_2
REMARK    2  A    between atoms: C_1  and  C_18
REMARK    3  A    between atoms: C_2  and  C_7
REMARK    4  A    between atoms: N_4  and  C_10
REMARK    5  A    between atoms: C_10  and  C_11
REMARK    6  A    between atoms: C_18  and  C_19
REMARK    7  A    between atoms: C_22  and  O_25
REMARK    8  A    between atoms: O_25  and  C_26
REMARK    9  A    between atoms: C_26  and  C_30
REMARK   10  A    between atoms: C_30  and  O_31
REMARK                            x       y       z     vdW  Elec       q    Type
REMARK                         _______ _______ _______ _____ _____    ______ ____
ROOT
ATOM      1  C   UNL     1      34.059 -22.561 -19.309  0.00  0.00    +0.014 C 
ENDROOT
BRANCH   1   2
ATOM      2  C   UNL     1      33.502 -21.291 -19.949  0.00  0.00    +0.078 C 
BRANCH   2   7
ATOM      3  O   UNL     1      37.644 -19.209 -20.848  0.00  0.00    -0.191 OA
ATOM      4  N   UNL     1      35.631 -19.258 -22.015  0.00  0.00    -0.151 N 
ATOM      5  N   UNL     1      34.427 -19.842 -21.767  0.00  0.00    -0.229 N 
ATOM      6  N   UNL     1      35.786 -20.368 -20.057  0.00  0.00    -0.308 NA
ATOM      7  C   UNL     1      34.588 -20.488 -20.579  0.00  0.00    +0.187 C 
ATOM      8  C   UNL     1      36.479 -19.568 -20.966  0.00  0.00    +0.286 C 
ATOM      9  H   UNL     1      33.616 -19.805 -22.325  0.00  0.00    +0.173 HD
BRANCH   4  10
ATOM     10  C   UNL     1      35.841 -18.469 -23.196  0.00  0.00    +0.152 C 
BRANCH  10  11
ATOM     11  C   UNL     1      35.219 -17.108 -23.080  0.00  0.00    +0.000 C 
ATOM     12  C   UNL     1      35.231 -16.449 -21.857  0.00  0.00    -0.003 C 
ATOM     13  C   UNL     1      34.636 -16.521 -24.198  0.00  0.00    -0.003 C 
ATOM     14  C   UNL     1      34.066 -14.588 -22.866  0.00  0.00    -0.022 C 
ATOM     15  C   UNL     1      34.652 -15.183 -21.750  0.00  0.00    -0.005 C 
ATOM     16  C   UNL     1      34.058 -15.257 -24.090  0.00  0.00    -0.005 C 
ATOM     17  C   UNL     1      33.447 -13.236 -22.750  0.00  0.00    +0.031 C 
ENDBRANCH  10  11
ENDBRANCH   4  10
ENDBRANCH   2   7
ENDBRANCH   1   2
BRANCH   1  18
ATOM     18  C   UNL     1      33.345 -22.916 -18.000  0.00  0.00    +0.027 C 
BRANCH  18  19
ATOM     19  C   UNL     1      34.326 -23.161 -16.881  0.00  0.00    -0.022 C 
ATOM     20  C   UNL     1      35.651 -22.784 -17.044  0.00  0.00    -0.001 C 
ATOM     21  C   UNL     1      33.887 -23.756 -15.709  0.00  0.00    -0.001 C 
ATOM     22  C   UNL     1      36.130 -23.607 -14.824  0.00  0.00    +0.139 C 
ATOM     23  C   UNL     1      36.559 -23.009 -16.009  0.00  0.00    +0.037 C 
ATOM     24  C   UNL     1      34.795 -23.981 -14.674  0.00  0.00    +0.037 C 
BRANCH  22  25
ATOM     25  O   UNL     1      37.016 -23.828 -13.814  0.00  0.00    -0.472 OA
BRANCH  25  26
ATOM     26  C   UNL     1      37.566 -25.140 -13.708  0.00  0.00    +0.221 C 
ATOM     27  C   UNL     1      36.716 -26.078 -14.560  0.00  0.00    +0.055 C 
ATOM     28  C   UNL     1      39.016 -25.084 -14.180  0.00  0.00    +0.055 C 
BRANCH  26  30
ATOM     29  O   UNL     1      37.867 -24.785 -11.319  0.00  0.00    -0.246 OA
ATOM     30  C   UNL     1      37.479 -25.503 -12.232  0.00  0.00    +0.350 C 
BRANCH  30  31
ATOM     31  O   UNL     1      36.922 -26.721 -12.009  0.00  0.00    -0.478 OA
ATOM     32  H   UNL     1      37.448 -27.494 -12.068  0.00  0.00    +0.295 HD
ENDBRANCH  30  31
ENDBRANCH  26  30
ENDBRANCH  25  26
ENDBRANCH  22  25
ENDBRANCH  18  19
ENDBRANCH   1  18
TORSDOF 10
ENDMDL
MODEL 2
REMARK VINA RESULT:     -11.2      0.134      1.254
REMARK  Name = 9909438
REMARK  10 active torsions:
REMARK  status: ('A' for Active; 'I' for Inactive)
REMARK    1  A    between atoms: C_1  and  C_2
REMARK    2  A    between atoms: C_1  and  C_18
REMARK    3  A    between atoms: C_2  and  C_7
REMARK    4  A    between atoms: N_4  and  C_10
REMARK    5  A    between atoms: C_10  and  C_11
REMARK    6  A    between atoms: C_18  and  C_19
REMARK    7  A    between atoms: C_22  and  O_25
REMARK    8  A    between atoms: O_25  and  C_26
REMARK    9  A    between atoms: C_26  and  C_30
REMARK   10  A    between atoms: C_30  and  O_31
REMARK                            x       y       z     vdW  Elec       q    Type
REMARK                         _______ _______ _______ _____ _____    ______ ____
ROOT
ATOM      1  C   UNL     1      34.186 -22.521 -19.297  0.00  0.00    +0.014 C 
ENDROOT
BRANCH   1   2
ATOM      2  C   UNL     1      33.583 -21.275 -19.941  0.00  0.00    +0.078 C 
BRANCH   2   7
ATOM      3  O   UNL     1      37.635 -19.079 -20.968  0.00  0.00    -0.191 OA
ATOM      4  N   UNL     1      35.614 -19.249 -22.109  0.00  0.00    -0.151 N 
ATOM      5  N   UNL     1      34.435 -19.866 -21.825  0.00  0.00    -0.229 N 
ATOM      6  N   UNL     1      35.829 -20.273 -20.111  0.00  0.00    -0.308 NA
ATOM      7  C   UNL     1      34.632 -20.459 -20.614  0.00  0.00    +0.187 C 
ATOM      8  C   UNL     1      36.483 -19.486 -21.059  0.00  0.00    +0.286 C 
ATOM      9  H   UNL     1      33.618 -19.882 -22.374  0.00  0.00    +0.173 HD
BRANCH   4  10
ATOM     10  C   UNL     1      35.783 -18.500 -23.322  0.00  0.00    +0.152 C 
BRANCH  10  11
ATOM     11  C   UNL     1      35.179 -17.129 -23.225  0.00  0.00    +0.000 C 
ATOM     12  C   UNL     1      34.571 -16.566 -24.341  0.00  0.00    -0.003 C 
ATOM     13  C   UNL     1      35.236 -16.435 -22.022  0.00  0.00    -0.003 C 
ATOM     14  C   UNL     1      34.062 -14.590 -23.047  0.00  0.00    -0.022 C 
ATOM     15  C   UNL     1      34.009 -15.291 -24.251  0.00  0.00    -0.005 C 
ATOM     16  C   UNL     1      34.675 -15.162 -21.933  0.00  0.00    -0.005 C 
ATOM     17  C   UNL     1      33.462 -13.228 -22.952  0.00  0.00    +0.031 C 
ENDBRANCH  10  11
ENDBRANCH   4  10
ENDBRANCH   2   7
ENDBRANCH   1   2
BRANCH   1  18
ATOM     18  C   UNL     1      33.474 -22.911 -17.997  0.00  0.00    +0.027 C 
BRANCH  18  19
ATOM     19  C   UNL     1      34.455 -23.161 -16.880  0.00  0.00    -0.022 C 
ATOM     20  C   UNL     1      34.011 -23.745 -15.703  0.00  0.00    -0.001 C 
ATOM     21  C   UNL     1      35.784 -22.804 -17.048  0.00  0.00    -0.001 C 
ATOM     22  C   UNL     1      36.259 -23.624 -14.825  0.00  0.00    +0.139 C 
ATOM     23  C   UNL     1      34.918 -23.978 -14.669  0.00  0.00    +0.037 C 
ATOM     24  C   UNL     1      36.691 -23.036 -16.014  0.00  0.00    +0.037 C 
BRANCH  22  25
ATOM     25  O   UNL     1      37.144 -23.849 -13.817  0.00  0.00    -0.472 OA
BRANCH  25  26
ATOM     26  C   UNL     1      37.666 -25.171 -13.694  0.00  0.00    +0.221 C 
ATOM     27  C   UNL     1      36.813 -26.097 -14.556  0.00  0.00    +0.055 C 
ATOM     28  C   UNL     1      39.125 -25.147 -14.139  0.00  0.00    +0.055 C 
BRANCH  26  30
ATOM     29  O   UNL     1      37.991 -24.842 -11.304  0.00  0.00    -0.246 OA
ATOM     30  C   UNL     1      37.545 -25.524 -12.218  0.00  0.00    +0.350 C 
BRANCH  30  31
ATOM     31  O   UNL     1      36.883 -26.689 -11.995  0.00  0.00    -0.478 OA
ATOM     32  H   UNL     1      37.320 -27.508 -12.123  0.00  0.00    +0.295 HD
ENDBRANCH  30  31
ENDBRANCH  26  30
ENDBRANCH  25  26
ENDBRANCH  22  25
ENDBRANCH  18  19
ENDBRANCH   1  18
TORSDOF 10
ENDMDL
MODEL 3
REMARK VINA RESULT:     -11.2      0.920      1.774
REMARK  Name = 9909438
REMARK  10 active torsions:
REMARK  status: ('A' for Active; 'I' for Inactive)
REMARK    1  A    between atoms: C_1  and  C_2
REMARK    2  A    between atoms: C_1  and  C_18
REMARK    3  A    between atoms: C_2  and  C_7
REMARK    4  A    between atoms: N_4  and  C_10
REMARK    5  A    between atoms: C_10  and  C_11
REMARK    6  A    between atoms: C_18  and  C_19
REMARK    7  A    between atoms: C_22  and  O_25
REMARK    8  A    between atoms: O_25  and  C_26
REMARK    9  A    between atoms: C_26  and  C_30
REMARK   10  A    between atoms: C_30  and  O_31
REMARK                            x       y       z     vdW  Elec       q    Type
REMARK                         _______ _______ _______ _____ _____    ______ ____
ROOT
ATOM      1  C   UNL     1      34.069 -22.448 -19.347  0.00  0.00    +0.014 C 
ENDROOT
BRANCH   1   2
ATOM      2  C   UNL     1      33.491 -21.200 -20.008  0.00  0.00    +0.078 C 
BRANCH   2   7
ATOM      3  O   UNL     1      37.590 -19.065 -20.973  0.00  0.00    -0.191 OA
ATOM      4  N   UNL     1      35.579 -19.191 -22.137  0.00  0.00    -0.151 N 
ATOM      5  N   UNL     1      34.386 -19.790 -21.871  0.00  0.00    -0.229 N 
ATOM      6  N   UNL     1      35.756 -20.235 -20.146  0.00  0.00    -0.308 NA
ATOM      7  C   UNL     1      34.560 -20.396 -20.663  0.00  0.00    +0.187 C 
ATOM      8  C   UNL     1      36.433 -19.451 -21.080  0.00  0.00    +0.286 C 
ATOM      9  H   UNL     1      33.575 -19.787 -22.429  0.00  0.00    +0.173 HD
BRANCH   4  10
ATOM     10  C   UNL     1      35.773 -18.435 -23.342  0.00  0.00    +0.152 C 
BRANCH  10  11
ATOM     11  C   UNL     1      35.158 -17.068 -23.254  0.00  0.00    +0.000 C 
ATOM     12  C   UNL     1      34.527 -16.526 -24.368  0.00  0.00    -0.003 C 
ATOM     13  C   UNL     1      35.227 -16.358 -22.061  0.00  0.00    -0.003 C 
ATOM     14  C   UNL     1      34.020 -14.538 -23.093  0.00  0.00    -0.022 C 
ATOM     15  C   UNL     1      33.955 -15.256 -24.286  0.00  0.00    -0.005 C 
ATOM     16  C   UNL     1      34.655 -15.089 -21.980  0.00  0.00    -0.005 C 
ATOM     17  C   UNL     1      33.409 -13.180 -23.007  0.00  0.00    +0.031 C 
ENDBRANCH  10  11
ENDBRANCH   4  10
ENDBRANCH   2   7
ENDBRANCH   1   2
BRANCH   1  18
ATOM     18  C   UNL     1      33.372 -22.786 -18.024  0.00  0.00    +0.027 C 
BRANCH  18  19
ATOM     19  C   UNL     1      34.363 -23.171 -16.956  0.00  0.00    -0.022 C 
ATOM     20  C   UNL     1      33.936 -23.917 -15.867  0.00  0.00    -0.001 C 
ATOM     21  C   UNL     1      35.686 -22.775 -17.080  0.00  0.00    -0.001 C 
ATOM     22  C   UNL     1      36.187 -23.883 -14.992  0.00  0.00    +0.139 C 
ATOM     23  C   UNL     1      34.852 -24.275 -14.879  0.00  0.00    +0.037 C 
ATOM     24  C   UNL     1      36.604 -23.132 -16.091  0.00  0.00    +0.037 C 
BRANCH  22  25
ATOM     25  O   UNL     1      37.082 -24.230 -14.027  0.00  0.00    -0.472 OA
BRANCH  25  26
ATOM     26  C   UNL     1      37.551 -25.577 -14.031  0.00  0.00    +0.221 C 
ATOM     27  C   UNL     1      37.306 -26.167 -12.646  0.00  0.00    +0.055 C 
ATOM     28  C   UNL     1      36.803 -26.335 -15.124  0.00  0.00    +0.055 C 
BRANCH  26  30
ATOM     29  O   UNL     1      39.871 -24.976 -13.602  0.00  0.00    -0.246 OA
ATOM     30  C   UNL     1      39.040 -25.492 -14.340  0.00  0.00    +0.350 C 
BRANCH  30  31
ATOM     31  O   UNL     1      39.376 -26.050 -15.532  0.00  0.00    -0.478 OA
ATOM     32  H   UNL     1      40.161 -26.554 -15.608  0.00  0.00    +0.295 HD
ENDBRANCH  30  31
ENDBRANCH  26  30
ENDBRANCH  25  26
ENDBRANCH  22  25
ENDBRANCH  18  19
ENDBRANCH   1  18
TORSDOF 10
ENDMDL
MODEL 4
REMARK VINA RESULT:     -11.0      5.992     13.826
REMARK  Name = 9909438
REMARK  10 active torsions:
REMARK  status: ('A' for Active; 'I' for Inactive)
REMARK    1  A    between atoms: C_1  and  C_2
REMARK    2  A    between atoms: C_1  and  C_18
REMARK    3  A    between atoms: C_2  and  C_7
REMARK    4  A    between atoms: N_4  and  C_10
REMARK    5  A    between atoms: C_10  and  C_11
REMARK    6  A    between atoms: C_18  and  C_19
REMARK    7  A    between atoms: C_22  and  O_25
REMARK    8  A    between atoms: O_25  and  C_26
REMARK    9  A    between atoms: C_26  and  C_30
REMARK   10  A    between atoms: C_30  and  O_31
REMARK                            x       y       z     vdW  Elec       q    Type
REMARK                         _______ _______ _______ _____ _____    ______ ____
ROOT
ATOM      1  C   UNL     1      33.234 -13.504 -23.268  0.00  0.00    +0.014 C 
ENDROOT
BRANCH   1   2
ATOM      2  C   UNL     1      34.242 -14.184 -22.345  0.00  0.00    +0.078 C 
BRANCH   2   7
ATOM      3  O   UNL     1      34.703 -18.015 -25.065  0.00  0.00    -0.191 OA
ATOM      4  N   UNL     1      35.534 -17.483 -22.958  0.00  0.00    -0.151 N 
ATOM      5  N   UNL     1      35.403 -16.392 -22.156  0.00  0.00    -0.229 N 
ATOM      6  N   UNL     1      34.237 -15.982 -24.032  0.00  0.00    -0.308 NA
ATOM      7  C   UNL     1      34.614 -15.532 -22.858  0.00  0.00    +0.187 C 
ATOM      8  C   UNL     1      34.816 -17.249 -24.118  0.00  0.00    +0.286 C 
ATOM      9  H   UNL     1      35.794 -16.253 -21.263  0.00  0.00    +0.173 HD
BRANCH   4  10
ATOM     10  C   UNL     1      36.304 -18.621 -22.540  0.00  0.00    +0.152 C 
BRANCH  10  11
ATOM     11  C   UNL     1      35.519 -19.530 -21.639  0.00  0.00    +0.000 C 
ATOM     12  C   UNL     1      36.189 -20.334 -20.725  0.00  0.00    -0.003 C 
ATOM     13  C   UNL     1      34.133 -19.558 -21.728  0.00  0.00    -0.003 C 
ATOM     14  C   UNL     1      34.069 -21.213 -19.970  0.00  0.00    -0.022 C 
ATOM     15  C   UNL     1      35.459 -21.179 -19.886  0.00  0.00    -0.005 C 
ATOM     16  C   UNL     1      33.405 -20.403 -20.891  0.00  0.00    -0.005 C 
ATOM     17  C   UNL     1      33.290 -22.117 -19.074  0.00  0.00    +0.031 C 
ENDBRANCH  10  11
ENDBRANCH   4  10
ENDBRANCH   2   7
ENDBRANCH   1   2
BRANCH   1  18
ATOM     18  C   UNL     1      33.892 -12.476 -24.196  0.00  0.00    +0.027 C 
BRANCH  18  19
ATOM     19  C   UNL     1      33.637 -11.065 -23.730  0.00  0.00    -0.022 C 
ATOM     20  C   UNL     1      32.581 -10.813 -22.867  0.00  0.00    -0.001 C 
ATOM     21  C   UNL     1      34.464 -10.043 -24.171  0.00  0.00    -0.001 C 
ATOM     22  C   UNL     1      33.170  -8.470 -22.870  0.00  0.00    +0.139 C 
ATOM     23  C   UNL     1      32.346  -9.508 -22.434  0.00  0.00    +0.037 C 
ATOM     24  C   UNL     1      34.228  -8.737 -23.739  0.00  0.00    +0.037 C 
BRANCH  22  25
ATOM     25  O   UNL     1      32.940  -7.196 -22.450  0.00  0.00    -0.472 OA
BRANCH  25  26
ATOM     26  C   UNL     1      32.158  -6.362 -23.304  0.00  0.00    +0.221 C 
ATOM     27  C   UNL     1      33.106  -5.632 -24.250  0.00  0.00    +0.055 C 
ATOM     28  C   UNL     1      31.165  -7.249 -24.049  0.00  0.00    +0.055 C 
BRANCH  26  30
ATOM     29  O   UNL     1      30.563  -4.612 -22.737  0.00  0.00    -0.246 OA
ATOM     30  C   UNL     1      31.441  -5.387 -22.379  0.00  0.00    +0.350 C 
BRANCH  30  31
ATOM     31  O   UNL     1      31.869  -5.453 -21.092  0.00  0.00    -0.478 OA
ATOM     32  H   UNL     1      31.326  -5.130 -20.401  0.00  0.00    +0.295 HD
ENDBRANCH  30  31
ENDBRANCH  26  30
ENDBRANCH  25  26
ENDBRANCH  22  25
ENDBRANCH  18  19
ENDBRANCH   1  18
TORSDOF 10
ENDMDL
MODEL 5
REMARK VINA RESULT:     -10.6      5.416     13.025
REMARK  Name = 9909438
REMARK  10 active torsions:
REMARK  status: ('A' for Active; 'I' for Inactive)
REMARK    1  A    between atoms: C_1  and  C_2
REMARK    2  A    between atoms: C_1  and  C_18
REMARK    3  A    between atoms: C_2  and  C_7
REMARK    4  A    between atoms: N_4  and  C_10
REMARK    5  A    between atoms: C_10  and  C_11
REMARK    6  A    between atoms: C_18  and  C_19
REMARK    7  A    between atoms: C_22  and  O_25
REMARK    8  A    between atoms: O_25  and  C_26
REMARK    9  A    between atoms: C_26  and  C_30
REMARK   10  A    between atoms: C_30  and  O_31
REMARK                            x       y       z     vdW  Elec       q    Type
REMARK                         _______ _______ _______ _____ _____    ______ ____
ROOT
ATOM      1  C   UNL     1      34.181 -14.206 -22.350  0.00  0.00    +0.014 C 
ENDROOT
BRANCH   1   2
ATOM      2  C   UNL     1      34.228 -14.953 -23.681  0.00  0.00    +0.078 C 
BRANCH   2   7
ATOM      3  O   UNL     1      35.046 -19.564 -24.277  0.00  0.00    -0.191 OA
ATOM      4  N   UNL     1      35.731 -18.052 -22.647  0.00  0.00    -0.151 N 
ATOM      5  N   UNL     1      35.497 -16.725 -22.452  0.00  0.00    -0.229 N 
ATOM      6  N   UNL     1      34.415 -17.324 -24.328  0.00  0.00    -0.308 NA
ATOM      7  C   UNL     1      34.701 -16.353 -23.493  0.00  0.00    +0.187 C 
ATOM      8  C   UNL     1      35.065 -18.438 -23.797  0.00  0.00    +0.286 C 
ATOM      9  H   UNL     1      35.831 -16.158 -21.720  0.00  0.00    +0.173 HD
BRANCH   4  10
ATOM     10  C   UNL     1      36.538 -18.803 -21.727  0.00  0.00    +0.152 C 
BRANCH  10  11
ATOM     11  C   UNL     1      35.731 -19.817 -20.970  0.00  0.00    +0.000 C 
ATOM     12  C   UNL     1      34.346 -19.814 -21.080  0.00  0.00    -0.003 C 
ATOM     13  C   UNL     1      36.377 -20.748 -20.165  0.00  0.00    -0.003 C 
ATOM     14  C   UNL     1      34.236 -21.694 -19.568  0.00  0.00    -0.022 C 
ATOM     15  C   UNL     1      33.595 -20.757 -20.376  0.00  0.00    -0.005 C 
ATOM     16  C   UNL     1      35.627 -21.691 -19.462  0.00  0.00    -0.005 C 
ATOM     17  C   UNL     1      33.433 -22.702 -18.815  0.00  0.00    +0.031 C 
ENDBRANCH  10  11
ENDBRANCH   4  10
ENDBRANCH   2   7
ENDBRANCH   1   2
BRANCH   1  18
ATOM     18  C   UNL     1      32.760 -13.768 -21.976  0.00  0.00    +0.027 C 
BRANCH  18  19
ATOM     19  C   UNL     1      32.561 -12.289 -22.190  0.00  0.00    -0.022 C 
ATOM     20  C   UNL     1      33.257 -11.649 -23.205  0.00  0.00    -0.001 C 
ATOM     21  C   UNL     1      31.684 -11.595 -21.372  0.00  0.00    -0.001 C 
ATOM     22  C   UNL     1      32.192  -9.570 -22.588  0.00  0.00    +0.139 C 
ATOM     23  C   UNL     1      33.072 -10.281 -23.405  0.00  0.00    +0.037 C 
ATOM     24  C   UNL     1      31.499 -10.226 -21.571  0.00  0.00    +0.037 C 
BRANCH  22  25
ATOM     25  O   UNL     1      32.012  -8.235 -22.782  0.00  0.00    -0.472 OA
BRANCH  25  26
ATOM     26  C   UNL     1      32.958  -7.357 -22.173  0.00  0.00    +0.221 C 
ATOM     27  C   UNL     1      33.121  -7.776 -20.715  0.00  0.00    +0.055 C 
ATOM     28  C   UNL     1      34.265  -7.457 -22.954  0.00  0.00    +0.055 C 
BRANCH  26  30
ATOM     29  O   UNL     1      32.329  -5.299 -23.313  0.00  0.00    -0.246 OA
ATOM     30  C   UNL     1      32.354  -5.963 -22.283  0.00  0.00    +0.350 C 
BRANCH  30  31
ATOM     31  O   UNL     1      31.833  -5.508 -21.115  0.00  0.00    -0.478 OA
ATOM     32  H   UNL     1      31.925  -6.015 -20.332  0.00  0.00    +0.295 HD
ENDBRANCH  30  31
ENDBRANCH  26  30
ENDBRANCH  25  26
ENDBRANCH  22  25
ENDBRANCH  18  19
ENDBRANCH   1  18
TORSDOF 10
ENDMDL
MODEL 6
REMARK VINA RESULT:     -10.4      6.418     10.807
REMARK  Name = 9909438
REMARK  10 active torsions:
REMARK  status: ('A' for Active; 'I' for Inactive)
REMARK    1  A    between atoms: C_1  and  C_2
REMARK    2  A    between atoms: C_1  and  C_18
REMARK    3  A    between atoms: C_2  and  C_7
REMARK    4  A    between atoms: N_4  and  C_10
REMARK    5  A    between atoms: C_10  and  C_11
REMARK    6  A    between atoms: C_18  and  C_19
REMARK    7  A    between atoms: C_22  and  O_25
REMARK    8  A    between atoms: O_25  and  C_26
REMARK    9  A    between atoms: C_26  and  C_30
REMARK   10  A    between atoms: C_30  and  O_31
REMARK                            x       y       z     vdW  Elec       q    Type
REMARK                         _______ _______ _______ _____ _____    ______ ____
ROOT
ATOM      1  C   UNL     1      33.051 -13.070 -24.489  0.00  0.00    +0.014 C 
ENDROOT
BRANCH   1   2
ATOM      2  C   UNL     1      33.912 -11.921 -25.006  0.00  0.00    +0.078 C 
BRANCH   2   7
ATOM      3  O   UNL     1      32.231  -8.767 -21.920  0.00  0.00    -0.191 OA
ATOM      4  N   UNL     1      34.079  -8.742 -23.334  0.00  0.00    -0.151 N 
ATOM      5  N   UNL     1      34.572  -9.633 -24.236  0.00  0.00    -0.229 N 
ATOM      6  N   UNL     1      32.733 -10.552 -23.328  0.00  0.00    -0.308 NA
ATOM      7  C   UNL     1      33.718 -10.693 -24.184  0.00  0.00    +0.187 C 
ATOM      8  C   UNL     1      32.941  -9.290 -22.770  0.00  0.00    +0.286 C 
ATOM      9  H   UNL     1      35.372  -9.535 -24.802  0.00  0.00    +0.173 HD
BRANCH   4  10
ATOM     10  C   UNL     1      34.723  -7.476 -23.118  0.00  0.00    +0.152 C 
BRANCH  10  11
ATOM     11  C   UNL     1      34.154  -6.399 -23.994  0.00  0.00    +0.000 C 
ATOM     12  C   UNL     1      34.852  -5.995 -25.126  0.00  0.00    -0.003 C 
ATOM     13  C   UNL     1      32.937  -5.815 -23.665  0.00  0.00    -0.003 C 
ATOM     14  C   UNL     1      33.103  -4.403 -25.618  0.00  0.00    -0.022 C 
ATOM     15  C   UNL     1      34.323  -4.993 -25.942  0.00  0.00    -0.005 C 
ATOM     16  C   UNL     1      32.409  -4.814 -24.480  0.00  0.00    -0.005 C 
ATOM     17  C   UNL     1      32.538  -3.332 -26.490  0.00  0.00    +0.031 C 
ENDBRANCH  10  11
ENDBRANCH   4  10
ENDBRANCH   2   7
ENDBRANCH   1   2
BRANCH   1  18
ATOM     18  C   UNL     1      33.132 -14.311 -25.385  0.00  0.00    +0.027 C 
BRANCH  18  19
ATOM     19  C   UNL     1      33.892 -15.429 -24.719  0.00  0.00    -0.022 C 
ATOM     20  C   UNL     1      34.572 -15.179 -23.536  0.00  0.00    -0.001 C 
ATOM     21  C   UNL     1      33.899 -16.688 -25.299  0.00  0.00    -0.001 C 
ATOM     22  C   UNL     1      35.290 -17.485 -23.491  0.00  0.00    +0.139 C 
ATOM     23  C   UNL     1      35.275 -16.213 -22.918  0.00  0.00    +0.037 C 
ATOM     24  C   UNL     1      34.603 -17.723 -24.681  0.00  0.00    +0.037 C 
BRANCH  22  25
ATOM     25  O   UNL     1      35.977 -18.495 -22.889  0.00  0.00    -0.472 OA
BRANCH  25  26
ATOM     26  C   UNL     1      35.645 -18.788 -21.533  0.00  0.00    +0.221 C 
ATOM     27  C   UNL     1      35.287 -17.477 -20.841  0.00  0.00    +0.055 C 
ATOM     28  C   UNL     1      34.485 -19.779 -21.534  0.00  0.00    +0.055 C 
BRANCH  26  30
ATOM     29  O   UNL     1      38.043 -19.097 -21.241  0.00  0.00    -0.246 OA
ATOM     30  C   UNL     1      36.899 -19.406 -20.929  0.00  0.00    +0.350 C 
BRANCH  30  31
ATOM     31  O   UNL     1      36.634 -20.353 -19.992  0.00  0.00    -0.478 OA
ATOM     32  H   UNL     1      35.758 -20.658 -19.869  0.00  0.00    +0.295 HD
ENDBRANCH  30  31
ENDBRANCH  26  30
ENDBRANCH  25  26
ENDBRANCH  22  25
ENDBRANCH  18  19
ENDBRANCH   1  18
TORSDOF 10
ENDMDL
MODEL 7
REMARK VINA RESULT:     -10.3      2.420      4.009
REMARK  Name = 9909438
REMARK  10 active torsions:
REMARK  status: ('A' for Active; 'I' for Inactive)
REMARK    1  A    between atoms: C_1  and  C_2
REMARK    2  A    between atoms: C_1  and  C_18
REMARK    3  A    between atoms: C_2  and  C_7
REMARK    4  A    between atoms: N_4  and  C_10
REMARK    5  A    between atoms: C_10  and  C_11
REMARK    6  A    between atoms: C_18  and  C_19
REMARK    7  A    between atoms: C_22  and  O_25
REMARK    8  A    between atoms: O_25  and  C_26
REMARK    9  A    between atoms: C_26  and  C_30
REMARK   10  A    between atoms: C_30  and  O_31
REMARK                            x       y       z     vdW  Elec       q    Type
REMARK                         _______ _______ _______ _____ _____    ______ ____
ROOT
ATOM      1  C   UNL     1      35.078 -19.607 -21.388  0.00  0.00    +0.014 C 
ENDROOT
BRANCH   1   2
ATOM      2  C   UNL     1      35.313 -19.945 -22.858  0.00  0.00    +0.078 C 
BRANCH   2   7
ATOM      3  O   UNL     1      33.278 -17.391 -26.268  0.00  0.00    -0.191 OA
ATOM      4  N   UNL     1      34.690 -16.813 -24.511  0.00  0.00    -0.151 N 
ATOM      5  N   UNL     1      35.294 -17.534 -23.528  0.00  0.00    -0.229 N 
ATOM      6  N   UNL     1      34.094 -18.974 -24.768  0.00  0.00    -0.308 NA
ATOM      7  C   UNL     1      34.896 -18.820 -23.741  0.00  0.00    +0.187 C 
ATOM      8  C   UNL     1      33.950 -17.687 -25.288  0.00  0.00    +0.286 C 
ATOM      9  H   UNL     1      35.888 -17.201 -22.817  0.00  0.00    +0.173 HD
BRANCH   4  10
ATOM     10  C   UNL     1      34.887 -15.395 -24.615  0.00  0.00    +0.152 C 
BRANCH  10  11
ATOM     11  C   UNL     1      34.121 -14.642 -23.565  0.00  0.00    +0.000 C 
ATOM     12  C   UNL     1      33.105 -13.775 -23.947  0.00  0.00    -0.003 C 
ATOM     13  C   UNL     1      34.437 -14.820 -22.224  0.00  0.00    -0.003 C 
ATOM     14  C   UNL     1      32.704 -13.249 -21.623  0.00  0.00    -0.022 C 
ATOM     15  C   UNL     1      32.393 -13.075 -22.971  0.00  0.00    -0.005 C 
ATOM     16  C   UNL     1      33.726 -14.121 -21.249  0.00  0.00    -0.005 C 
ATOM     17  C   UNL     1      31.943 -12.500 -20.581  0.00  0.00    +0.031 C 
ENDBRANCH  10  11
ENDBRANCH   4  10
ENDBRANCH   2   7
ENDBRANCH   1   2
BRANCH   1  18
ATOM     18  C   UNL     1      33.732 -20.132 -20.876  0.00  0.00    +0.027 C 
BRANCH  18  19
ATOM     19  C   UNL     1      33.915 -21.211 -19.839  0.00  0.00    -0.022 C 
ATOM     20  C   UNL     1      32.805 -21.707 -19.171  0.00  0.00    -0.001 C 
ATOM     21  C   UNL     1      35.188 -21.690 -19.572  0.00  0.00    -0.001 C 
ATOM     22  C   UNL     1      34.249 -23.198 -17.934  0.00  0.00    +0.139 C 
ATOM     23  C   UNL     1      32.973 -22.707 -18.212  0.00  0.00    +0.037 C 
ATOM     24  C   UNL     1      35.356 -22.689 -18.613  0.00  0.00    +0.037 C 
BRANCH  22  25
ATOM     25  O   UNL     1      34.414 -24.172 -16.998  0.00  0.00    -0.472 OA
BRANCH  25  26
ATOM     26  C   UNL     1      34.729 -23.751 -15.671  0.00  0.00    +0.221 C 
ATOM     27  C   UNL     1      35.720 -22.595 -15.766  0.00  0.00    +0.055 C 
ATOM     28  C   UNL     1      33.429 -23.344 -14.984  0.00  0.00    +0.055 C 
BRANCH  26  30
ATOM     29  O   UNL     1      36.116 -25.748 -15.548  0.00  0.00    -0.246 OA
ATOM     30  C   UNL     1      35.356 -24.963 -14.995  0.00  0.00    +0.350 C 
BRANCH  30  31
ATOM     31  O   UNL     1      34.991 -25.101 -13.694  0.00  0.00    -0.478 OA
ATOM     32  H   UNL     1      35.104 -25.924 -13.261  0.00  0.00    +0.295 HD
ENDBRANCH  30  31
ENDBRANCH  26  30
ENDBRANCH  25  26
ENDBRANCH  22  25
ENDBRANCH  18  19
ENDBRANCH   1  18
TORSDOF 10
ENDMDL
MODEL 8
REMARK VINA RESULT:     -10.2      1.686      2.404
REMARK  Name = 9909438
REMARK  10 active torsions:
REMARK  status: ('A' for Active; 'I' for Inactive)
REMARK    1  A    between atoms: C_1  and  C_2
REMARK    2  A    between atoms: C_1  and  C_18
REMARK    3  A    between atoms: C_2  and  C_7
REMARK    4  A    between atoms: N_4  and  C_10
REMARK    5  A    between atoms: C_10  and  C_11
REMARK    6  A    between atoms: C_18  and  C_19
REMARK    7  A    between atoms: C_22  and  O_25
REMARK    8  A    between atoms: O_25  and  C_26
REMARK    9  A    between atoms: C_26  and  C_30
REMARK   10  A    between atoms: C_30  and  O_31
REMARK                            x       y       z     vdW  Elec       q    Type
REMARK                         _______ _______ _______ _____ _____    ______ ____
ROOT
ATOM      1  C   UNL     1      34.793 -20.583 -20.331  0.00  0.00    +0.014 C 
ENDROOT
BRANCH   1   2
ATOM      2  C   UNL     1      35.953 -19.864 -21.016  0.00  0.00    +0.078 C 
BRANCH   2   7
ATOM      3  O   UNL     1      33.818 -18.524 -25.008  0.00  0.00    -0.191 OA
ATOM      4  N   UNL     1      35.143 -17.374 -23.480  0.00  0.00    -0.151 N 
ATOM      5  N   UNL     1      35.775 -17.744 -22.333  0.00  0.00    -0.229 N 
ATOM      6  N   UNL     1      34.711 -19.558 -23.124  0.00  0.00    -0.308 NA
ATOM      7  C   UNL     1      35.476 -19.064 -22.179  0.00  0.00    +0.187 C 
ATOM      8  C   UNL     1      34.487 -18.483 -23.984  0.00  0.00    +0.286 C 
ATOM      9  H   UNL     1      36.326 -17.181 -21.743  0.00  0.00    +0.173 HD
BRANCH   4  10
ATOM     10  C   UNL     1      35.239 -16.029 -23.976  0.00  0.00    +0.152 C 
BRANCH  10  11
ATOM     11  C   UNL     1      34.360 -15.083 -23.211  0.00  0.00    +0.000 C 
ATOM     12  C   UNL     1      34.462 -15.019 -21.826  0.00  0.00    -0.003 C 
ATOM     13  C   UNL     1      33.452 -14.283 -23.894  0.00  0.00    -0.003 C 
ATOM     14  C   UNL     1      32.732 -13.333 -21.793  0.00  0.00    -0.022 C 
ATOM     15  C   UNL     1      33.644 -14.140 -21.115  0.00  0.00    -0.005 C 
ATOM     16  C   UNL     1      32.636 -13.404 -23.183  0.00  0.00    -0.005 C 
ATOM     17  C   UNL     1      31.858 -12.393 -21.032  0.00  0.00    +0.031 C 
ENDBRANCH  10  11
ENDBRANCH   4  10
ENDBRANCH   2   7
ENDBRANCH   1   2
BRANCH   1  18
ATOM     18  C   UNL     1      35.082 -22.069 -20.097  0.00  0.00    +0.027 C 
BRANCH  18  19
ATOM     19  C   UNL     1      35.284 -22.373 -18.635  0.00  0.00    -0.022 C 
ATOM     20  C   UNL     1      36.492 -22.055 -18.033  0.00  0.00    -0.001 C 
ATOM     21  C   UNL     1      34.257 -22.965 -17.914  0.00  0.00    -0.001 C 
ATOM     22  C   UNL     1      35.654 -22.929 -15.943  0.00  0.00    +0.139 C 
ATOM     23  C   UNL     1      36.679 -22.334 -16.680  0.00  0.00    +0.037 C 
ATOM     24  C   UNL     1      34.444 -23.245 -16.560  0.00  0.00    +0.037 C 
BRANCH  22  25
ATOM     25  O   UNL     1      35.836 -23.203 -14.622  0.00  0.00    -0.472 OA
BRANCH  25  26
ATOM     26  C   UNL     1      36.544 -24.399 -14.299  0.00  0.00    +0.221 C 
ATOM     27  C   UNL     1      35.833 -25.566 -14.978  0.00  0.00    +0.055 C 
ATOM     28  C   UNL     1      37.984 -24.240 -14.778  0.00  0.00    +0.055 C 
BRANCH  26  30
ATOM     29  O   UNL     1      36.709 -23.601 -12.005  0.00  0.00    -0.246 OA
ATOM     30  C   UNL     1      36.476 -24.519 -12.783  0.00  0.00    +0.350 C 
BRANCH  30  31
ATOM     31  O   UNL     1      36.127 -25.760 -12.356  0.00  0.00    -0.478 OA
ATOM     32  H   UNL     1      36.180 -25.973 -11.445  0.00  0.00    +0.295 HD
ENDBRANCH  30  31
ENDBRANCH  26  30
ENDBRANCH  25  26
ENDBRANCH  22  25
ENDBRANCH  18  19
ENDBRANCH   1  18
TORSDOF 10
ENDMDL
MODEL 9
REMARK VINA RESULT:      -9.9      3.053      3.989
REMARK  Name = 9909438
REMARK  10 active torsions:
REMARK  status: ('A' for Active; 'I' for Inactive)
REMARK    1  A    between atoms: C_1  and  C_2
REMARK    2  A    between atoms: C_1  and  C_18
REMARK    3  A    between atoms: C_2  and  C_7
REMARK    4  A    between atoms: N_4  and  C_10
REMARK    5  A    between atoms: C_10  and  C_11
REMARK    6  A    between atoms: C_18  and  C_19
REMARK    7  A    between atoms: C_22  and  O_25
REMARK    8  A    between atoms: O_25  and  C_26
REMARK    9  A    between atoms: C_26  and  C_30
REMARK   10  A    between atoms: C_30  and  O_31
REMARK                            x       y       z     vdW  Elec       q    Type
REMARK                         _______ _______ _______ _____ _____    ______ ____
ROOT
ATOM      1  C   UNL     1      35.248 -20.889 -20.272  0.00  0.00    +0.014 C 
ENDROOT
BRANCH   1   2
ATOM      2  C   UNL     1      36.210 -19.813 -20.766  0.00  0.00    +0.078 C 
BRANCH   2   7
ATOM      3  O   UNL     1      33.794 -18.746 -24.679  0.00  0.00    -0.191 OA
ATOM      4  N   UNL     1      35.231 -17.500 -23.339  0.00  0.00    -0.151 N 
ATOM      5  N   UNL     1      35.943 -17.792 -22.217  0.00  0.00    -0.229 N 
ATOM      6  N   UNL     1      34.819 -19.650 -22.795  0.00  0.00    -0.308 NA
ATOM      7  C   UNL     1      35.653 -19.095 -21.946  0.00  0.00    +0.187 C 
ATOM      8  C   UNL     1      34.536 -18.637 -23.712  0.00  0.00    +0.286 C 
ATOM      9  H   UNL     1      36.538 -17.192 -21.711  0.00  0.00    +0.173 HD
BRANCH   4  10
ATOM     10  C   UNL     1      35.294 -16.196 -23.937  0.00  0.00    +0.152 C 
BRANCH  10  11
ATOM     11  C   UNL     1      34.409 -15.210 -23.232  0.00  0.00    +0.000 C 
ATOM     12  C   UNL     1      34.472 -15.098 -21.848  0.00  0.00    -0.003 C 
ATOM     13  C   UNL     1      33.535 -14.420 -23.969  0.00  0.00    -0.003 C 
ATOM     14  C   UNL     1      32.770 -13.385 -21.925  0.00  0.00    -0.022 C 
ATOM     15  C   UNL     1      33.649 -14.181 -21.192  0.00  0.00    -0.005 C 
ATOM     16  C   UNL     1      32.713 -13.504 -23.313  0.00  0.00    -0.005 C 
ATOM     17  C   UNL     1      31.890 -12.406 -21.223  0.00  0.00    +0.031 C 
ENDBRANCH  10  11
ENDBRANCH   4  10
ENDBRANCH   2   7
ENDBRANCH   1   2
BRANCH   1  18
ATOM     18  C   UNL     1      35.845 -21.735 -19.142  0.00  0.00    +0.027 C 
BRANCH  18  19
ATOM     19  C   UNL     1      34.772 -22.393 -18.313  0.00  0.00    -0.022 C 
ATOM     20  C   UNL     1      35.132 -23.129 -17.194  0.00  0.00    -0.001 C 
ATOM     21  C   UNL     1      33.443 -22.250 -18.682  0.00  0.00    -0.001 C 
ATOM     22  C   UNL     1      32.798 -23.602 -16.786  0.00  0.00    +0.139 C 
ATOM     23  C   UNL     1      34.140 -23.738 -16.426  0.00  0.00    +0.037 C 
ATOM     24  C   UNL     1      32.450 -22.860 -17.914  0.00  0.00    +0.037 C 
BRANCH  22  25
ATOM     25  O   UNL     1      31.829 -24.197 -16.038  0.00  0.00    -0.472 OA
BRANCH  25  26
ATOM     26  C   UNL     1      31.959 -24.111 -14.620  0.00  0.00    +0.221 C 
ATOM     27  C   UNL     1      33.387 -24.500 -14.252  0.00  0.00    +0.055 C 
ATOM     28  C   UNL     1      31.622 -22.683 -14.201  0.00  0.00    +0.055 C 
BRANCH  26  30
ATOM     29  O   UNL     1      30.427 -26.001 -14.702  0.00  0.00    -0.246 OA
ATOM     30  C   UNL     1      30.953 -25.104 -14.055  0.00  0.00    +0.350 C 
BRANCH  30  31
ATOM     31  O   UNL     1      30.680 -24.905 -12.739  0.00  0.00    -0.478 OA
ATOM     32  H   UNL     1      29.796 -24.779 -12.458  0.00  0.00    +0.295 HD
ENDBRANCH  30  31
ENDBRANCH  26  30
ENDBRANCH  25  26
ENDBRANCH  22  25
ENDBRANCH  18  19
ENDBRANCH   1  18
TORSDOF 10
ENDMDL
