MODEL 1
REMARK VINA RESULT:     -13.0      0.000      0.000
REMARK  Name = 76958312
REMARK  3 active torsions:
REMARK  status: ('A' for Active; 'I' for Inactive)
REMARK    1  A    between atoms: C_16  and  C_21
REMARK    2  A    between atoms: C_26  and  N_28
REMARK    3  A    between atoms: N_29  and  C_34
REMARK                            x       y       z     vdW  Elec       q    Type
REMARK                         _______ _______ _______ _____ _____    ______ ____
ROOT
ATOM      1  O   UNL     1      30.818 -23.188 -13.027  0.00  0.00    -0.350 OA
ATOM      2  O   UNL     1      38.686 -25.632 -12.758  0.00  0.00    -0.350 OA
ATOM      3  N   UNL     1      31.926 -24.740 -15.118  0.00  0.00    -0.231 N 
ATOM      4  N   UNL     1      34.192 -24.880 -14.721  0.00  0.00    -0.246 NA
ATOM      5  N   UNL     1      33.323 -23.643 -16.586  0.00  0.00    -0.260 NA
ATOM      6  N   UNL     1      36.502 -24.965 -14.396  0.00  0.00    -0.228 N 
ATOM      7  N   UNL     1      35.692 -23.754 -16.218  0.00  0.00    -0.260 NA
ATOM      8  C   UNL     1      31.628 -25.365 -13.829  0.00  0.00    +0.114 C 
ATOM      9  C   UNL     1      30.782 -23.868 -15.387  0.00  0.00    +0.114 C 
ATOM     10  C   UNL     1      30.159 -25.783 -14.018  0.00  0.00    +0.025 C 
ATOM     11  C   UNL     1      29.600 -24.794 -15.049  0.00  0.00    +0.025 C 
ATOM     12  C   UNL     1      30.878 -22.707 -14.379  0.00  0.00    +0.163 C 
ATOM     13  C   UNL     1      31.751 -24.253 -12.772  0.00  0.00    +0.163 C 
ATOM     14  C   UNL     1      33.197 -24.409 -15.490  0.00  0.00    +0.224 C 
ATOM     15  C   UNL     1      35.412 -24.512 -15.146  0.00  0.00    +0.224 C 
ATOM     16  C   UNL     1      34.599 -23.355 -16.889  0.00  0.00    +0.163 C 
ATOM     17  C   UNL     1      37.866 -24.605 -14.797  0.00  0.00    +0.135 C 
ATOM     18  C   UNL     1      36.310 -25.185 -12.956  0.00  0.00    +0.135 C 
ATOM     19  C   UNL     1      37.388 -26.127 -12.432  0.00  0.00    +0.164 C 
ATOM     20  C   UNL     1      38.861 -25.578 -14.173  0.00  0.00    +0.164 C 
ENDROOT
BRANCH  16  21
ATOM     21  C   UNL     1      34.819 -22.537 -18.053  0.00  0.00    +0.087 C 
ATOM     22  C   UNL     1      36.109 -22.121 -18.379  0.00  0.00    +0.013 C 
ATOM     23  C   UNL     1      33.740 -22.159 -18.853  0.00  0.00    +0.013 C 
ATOM     24  C   UNL     1      36.321 -21.327 -19.507  0.00  0.00    +0.015 C 
ATOM     25  C   UNL     1      33.953 -21.366 -19.981  0.00  0.00    +0.015 C 
ATOM     26  C   UNL     1      35.244 -20.950 -20.307  0.00  0.00    +0.052 C 
BRANCH  26  28
ATOM     27  O   UNL     1      33.289 -19.514 -22.049  0.00  0.00    -0.252 OA
ATOM     28  N   UNL     1      35.456 -20.156 -21.435  0.00  0.00    -0.268 N 
ATOM     29  N   UNL     1      35.146 -18.799 -23.278  0.00  0.00    -0.268 N 
ATOM     30  C   UNL     1      34.501 -19.488 -22.239  0.00  0.00    +0.308 C 
ATOM     31  H   UNL     1      36.396 -20.046 -21.709  0.00  0.00    +0.156 HD
ATOM     32  H   UNL     1      36.128 -18.873 -23.301  0.00  0.00    +0.156 HD
BRANCH  29  34
ATOM     33  N   UNL     1      33.400 -16.453 -26.306  0.00  0.00    -0.242 NA
ATOM     34  C   UNL     1      34.559 -18.011 -24.296  0.00  0.00    +0.055 C 
ATOM     35  C   UNL     1      34.781 -16.639 -24.331  0.00  0.00    +0.035 C 
ATOM     36  C   UNL     1      33.759 -18.606 -25.265  0.00  0.00    +0.035 C 
ATOM     37  C   UNL     1      34.183 -15.911 -25.347  0.00  0.00    +0.100 C 
ATOM     38  C   UNL     1      33.208 -17.789 -26.240  0.00  0.00    +0.100 C 
ENDBRANCH  29  34
ENDBRANCH  26  28
ENDBRANCH  16  21
TORSDOF 3
ENDMDL
MODEL 2
REMARK VINA RESULT:     -13.0      0.923      4.584
REMARK  Name = 76958312
REMARK  3 active torsions:
REMARK  status: ('A' for Active; 'I' for Inactive)
REMARK    1  A    between atoms: C_16  and  C_21
REMARK    2  A    between atoms: C_26  and  N_28
REMARK    3  A    between atoms: N_29  and  C_34
REMARK                            x       y       z     vdW  Elec       q    Type
REMARK                         _______ _______ _______ _____ _____    ______ ____
ROOT
ATOM      1  O   UNL     1      37.872 -27.278 -14.379  0.00  0.00    -0.350 OA
ATOM      2  O   UNL     1      29.957 -25.107 -13.609  0.00  0.00    -0.350 OA
ATOM      3  N   UNL     1      37.138 -24.563 -14.064  0.00  0.00    -0.231 N 
ATOM      4  N   UNL     1      34.840 -24.468 -14.215  0.00  0.00    -0.246 NA
ATOM      5  N   UNL     1      36.245 -23.516 -15.912  0.00  0.00    -0.260 NA
ATOM      6  N   UNL     1      32.523 -24.326 -14.452  0.00  0.00    -0.228 N 
ATOM      7  N   UNL     1      33.858 -23.391 -16.121  0.00  0.00    -0.260 NA
ATOM      8  C   UNL     1      37.058 -25.475 -12.921  0.00  0.00    +0.114 C 
ATOM      9  C   UNL     1      38.395 -24.903 -14.730  0.00  0.00    +0.114 C 
ATOM     10  C   UNL     1      38.480 -25.372 -12.343  0.00  0.00    +0.025 C 
ATOM     11  C   UNL     1      39.364 -24.994 -13.538  0.00  0.00    +0.025 C 
ATOM     12  C   UNL     1      38.183 -26.287 -15.373  0.00  0.00    +0.163 C 
ATOM     13  C   UNL     1      36.803 -26.876 -13.506  0.00  0.00    +0.163 C 
ATOM     14  C   UNL     1      36.031 -24.166 -14.757  0.00  0.00    +0.224 C 
ATOM     15  C   UNL     1      33.799 -24.050 -14.952  0.00  0.00    +0.224 C 
ATOM     16  C   UNL     1      35.113 -23.160 -16.539  0.00  0.00    +0.163 C 
ATOM     17  C   UNL     1      31.335 -23.901 -15.201  0.00  0.00    +0.135 C 
ATOM     18  C   UNL     1      32.345 -25.532 -13.630  0.00  0.00    +0.135 C 
ATOM     19  C   UNL     1      31.085 -25.396 -12.784  0.00  0.00    +0.164 C 
ATOM     20  C   UNL     1      30.128 -23.854 -14.270  0.00  0.00    +0.164 C 
ENDROOT
BRANCH  16  21
ATOM     21  C   UNL     1      35.258 -22.457 -17.787  0.00  0.00    +0.087 C 
ATOM     22  C   UNL     1      36.499 -21.936 -18.155  0.00  0.00    +0.013 C 
ATOM     23  C   UNL     1      34.157 -22.298 -18.629  0.00  0.00    +0.013 C 
ATOM     24  C   UNL     1      36.638 -21.256 -19.365  0.00  0.00    +0.015 C 
ATOM     25  C   UNL     1      34.297 -21.617 -19.839  0.00  0.00    +0.015 C 
ATOM     26  C   UNL     1      35.538 -21.096 -20.206  0.00  0.00    +0.052 C 
BRANCH  26  28
ATOM     27  O   UNL     1      33.557 -19.478 -21.747  0.00  0.00    -0.252 OA
ATOM     28  N   UNL     1      35.677 -20.416 -21.416  0.00  0.00    -0.268 N 
ATOM     29  N   UNL     1      35.274 -19.140 -23.299  0.00  0.00    -0.268 N 
ATOM     30  C   UNL     1      34.713 -19.655 -22.120  0.00  0.00    +0.308 C 
ATOM     31  H   UNL     1      36.566 -20.472 -21.837  0.00  0.00    +0.156 HD
ATOM     32  H   UNL     1      36.217 -19.369 -23.464  0.00  0.00    +0.156 HD
BRANCH  29  34
ATOM     33  N   UNL     1      33.420 -16.736 -26.215  0.00  0.00    -0.242 NA
ATOM     34  C   UNL     1      34.650 -18.333 -24.280  0.00  0.00    +0.055 C 
ATOM     35  C   UNL     1      34.920 -16.969 -24.334  0.00  0.00    +0.035 C 
ATOM     36  C   UNL     1      33.766 -18.898 -25.191  0.00  0.00    +0.035 C 
ATOM     37  C   UNL     1      34.284 -16.221 -25.311  0.00  0.00    +0.100 C 
ATOM     38  C   UNL     1      33.183 -18.063 -26.131  0.00  0.00    +0.100 C 
ENDBRANCH  29  34
ENDBRANCH  26  28
ENDBRANCH  16  21
TORSDOF 3
ENDMDL
