MODEL 1
REMARK VINA RESULT:     -12.0      0.000      0.000
REMARK  Name = 118598754
REMARK  1 active torsions:
REMARK  status: ('A' for Active; 'I' for Inactive)
REMARK    1  A    between atoms: C_15  and  N_19
REMARK                            x       y       z     vdW  Elec       q    Type
REMARK                         _______ _______ _______ _____ _____    ______ ____
ROOT
ATOM      1  O   UNL     1      32.066 -24.728 -13.117  0.00  0.00    -0.269 OA
ATOM      2  O   UNL     1      36.631 -23.355 -16.486  0.00  0.00    -0.268 OA
ATOM      3  N   UNL     1      34.813 -23.902 -15.147  0.00  0.00    -0.238 N 
ATOM      4  N   UNL     1      34.405 -24.719 -13.038  0.00  0.00    -0.288 N 
ATOM      5  C   UNL     1      35.511 -24.362 -13.919  0.00  0.00    +0.124 C 
ATOM      6  C   UNL     1      36.379 -25.605 -14.197  0.00  0.00    +0.038 C 
ATOM      7  C   UNL     1      36.338 -23.226 -13.285  0.00  0.00    +0.038 C 
ATOM      8  C   UNL     1      37.136 -23.692 -12.066  0.00  0.00    +0.003 C 
ATOM      9  C   UNL     1      37.177 -26.050 -12.972  0.00  0.00    +0.003 C 
ATOM     10  C   UNL     1      38.001 -24.906 -12.389  0.00  0.00    +0.000 C 
ATOM     11  C   UNL     1      33.442 -23.992 -14.976  0.00  0.00    +0.105 C 
ATOM     12  C   UNL     1      33.157 -24.518 -13.615  0.00  0.00    +0.260 C 
ATOM     13  C   UNL     1      35.417 -23.445 -16.311  0.00  0.00    +0.267 C 
ATOM     14  C   UNL     1      32.584 -23.636 -15.943  0.00  0.00    -0.002 C 
ATOM     15  C   UNL     1      34.469 -23.041 -17.410  0.00  0.00    +0.104 C 
ATOM     16  C   UNL     1      33.147 -23.148 -17.190  0.00  0.00    +0.016 C 
ATOM     17  C   UNL     1      31.086 -23.683 -15.887  0.00  0.00    +0.033 C 
ATOM     18  H   UNL     1      34.528 -25.067 -12.126  0.00  0.00    +0.151 HD
ENDROOT
BRANCH  15  19
ATOM     19  N   UNL     1      35.036 -22.588 -18.566  0.00  0.00    -0.298 N 
ATOM     20  N   UNL     1      33.172 -21.620 -19.657  0.00  0.00    -0.233 NA
ATOM     21  N   UNL     1      33.520 -19.908 -21.317  0.00  0.00    -0.234 NA
ATOM     22  C   UNL     1      34.511 -21.683 -19.495  0.00  0.00    +0.113 C 
ATOM     23  C   UNL     1      35.405 -20.903 -20.199  0.00  0.00    +0.121 C 
ATOM     24  C   UNL     1      34.847 -20.024 -21.105  0.00  0.00    +0.107 C 
ATOM     25  C   UNL     1      32.751 -20.723 -20.570  0.00  0.00    +0.252 C 
ATOM     26  H   UNL     1      35.930 -22.944 -18.772  0.00  0.00    +0.153 HD
ATOM     27  N   UNL     1      35.733 -19.207 -21.849  0.00  0.00    -0.346 N 
ATOM     28  H   UNL     1      35.378 -18.566 -22.506  0.00  0.00    +0.143 HD
ATOM     29  H   UNL     1      36.706 -19.279 -21.709  0.00  0.00    +0.143 HD
ENDBRANCH  15  19
TORSDOF 1
ENDMDL
MODEL 2
REMARK VINA RESULT:      -9.9     10.862     14.937
REMARK  Name = 118598754
REMARK  1 active torsions:
REMARK  status: ('A' for Active; 'I' for Inactive)
REMARK    1  A    between atoms: C_15  and  N_19
REMARK                            x       y       z     vdW  Elec       q    Type
REMARK                         _______ _______ _______ _____ _____    ______ ____
ROOT
ATOM      1  O   UNL     1      31.773  -8.800 -19.707  0.00  0.00    -0.269 OA
ATOM      2  O   UNL     1      33.530 -10.590 -24.977  0.00  0.00    -0.268 OA
ATOM      3  N   UNL     1      32.832  -9.879 -22.879  0.00  0.00    -0.238 N 
ATOM      4  N   UNL     1      32.462  -7.908 -21.758  0.00  0.00    -0.288 N 
ATOM      5  C   UNL     1      32.896  -8.406 -23.058  0.00  0.00    +0.124 C 
ATOM      6  C   UNL     1      34.336  -7.937 -23.343  0.00  0.00    +0.038 C 
ATOM      7  C   UNL     1      31.920  -7.930 -24.152  0.00  0.00    +0.038 C 
ATOM      8  C   UNL     1      32.025  -6.427 -24.418  0.00  0.00    +0.003 C 
ATOM      9  C   UNL     1      34.421  -6.435 -23.617  0.00  0.00    +0.003 C 
ATOM     10  C   UNL     1      33.459  -6.008 -24.722  0.00  0.00    +0.000 C 
ATOM     11  C   UNL     1      32.402 -10.184 -21.598  0.00  0.00    +0.105 C 
ATOM     12  C   UNL     1      32.157  -8.920 -20.856  0.00  0.00    +0.260 C 
ATOM     13  C   UNL     1      33.149 -10.836 -23.834  0.00  0.00    +0.267 C 
ATOM     14  C   UNL     1      32.261 -11.451 -21.182  0.00  0.00    -0.002 C 
ATOM     15  C   UNL     1      32.996 -12.267 -23.386  0.00  0.00    +0.104 C 
ATOM     16  C   UNL     1      32.576 -12.505 -22.131  0.00  0.00    +0.016 C 
ATOM     17  C   UNL     1      31.807 -11.915 -19.831  0.00  0.00    +0.033 C 
ATOM     18  H   UNL     1      32.392  -6.950 -21.540  0.00  0.00    +0.151 HD
ENDROOT
BRANCH  15  19
ATOM     19  N   UNL     1      33.302 -13.228 -24.305  0.00  0.00    -0.298 N 
ATOM     20  N   UNL     1      34.669 -14.679 -23.031  0.00  0.00    -0.233 NA
ATOM     21  N   UNL     1      34.894 -16.987 -23.689  0.00  0.00    -0.234 NA
ATOM     22  C   UNL     1      33.847 -14.498 -24.086  0.00  0.00    +0.113 C 
ATOM     23  C   UNL     1      33.507 -15.497 -24.974  0.00  0.00    +0.121 C 
ATOM     24  C   UNL     1      34.066 -16.735 -24.723  0.00  0.00    +0.107 C 
ATOM     25  C   UNL     1      35.150 -15.930 -22.894  0.00  0.00    +0.252 C 
ATOM     26  H   UNL     1      33.113 -12.998 -25.244  0.00  0.00    +0.153 HD
ATOM     27  N   UNL     1      33.743 -17.787 -25.614  0.00  0.00    -0.346 N 
ATOM     28  H   UNL     1      34.120 -18.686 -25.472  0.00  0.00    +0.143 HD
ATOM     29  H   UNL     1      33.141 -17.622 -26.375  0.00  0.00    +0.143 HD
ENDBRANCH  15  19
TORSDOF 1
ENDMDL
MODEL 3
REMARK VINA RESULT:      -9.1      2.841      4.969
REMARK  Name = 118598754
REMARK  1 active torsions:
REMARK  status: ('A' for Active; 'I' for Inactive)
REMARK    1  A    between atoms: C_15  and  N_19
REMARK                            x       y       z     vdW  Elec       q    Type
REMARK                         _______ _______ _______ _____ _____    ______ ____
ROOT
ATOM      1  O   UNL     1      38.386 -22.381 -16.293  0.00  0.00    -0.269 OA
ATOM      2  O   UNL     1      33.480 -24.932 -14.424  0.00  0.00    -0.268 OA
ATOM      3  N   UNL     1      35.432 -23.915 -15.168  0.00  0.00    -0.238 N 
ATOM      4  N   UNL     1      37.605 -23.632 -14.477  0.00  0.00    -0.288 N 
ATOM      5  C   UNL     1      36.354 -24.251 -14.054  0.00  0.00    +0.124 C 
ATOM      6  C   UNL     1      35.883 -23.625 -12.727  0.00  0.00    +0.038 C 
ATOM      7  C   UNL     1      36.544 -25.775 -13.923  0.00  0.00    +0.038 C 
ATOM      8  C   UNL     1      37.422 -26.156 -12.729  0.00  0.00    +0.003 C 
ATOM      9  C   UNL     1      36.765 -24.025 -11.544  0.00  0.00    +0.003 C 
ATOM     10  C   UNL     1      36.908 -25.540 -11.433  0.00  0.00    +0.000 C 
ATOM     11  C   UNL     1      36.099 -23.175 -16.130  0.00  0.00    +0.105 C 
ATOM     12  C   UNL     1      37.509 -22.981 -15.700  0.00  0.00    +0.260 C 
ATOM     13  C   UNL     1      34.093 -24.274 -15.263  0.00  0.00    +0.267 C 
ATOM     14  C   UNL     1      35.487 -22.743 -17.242  0.00  0.00    -0.002 C 
ATOM     15  C   UNL     1      33.387 -23.798 -16.506  0.00  0.00    +0.104 C 
ATOM     16  C   UNL     1      34.083 -23.082 -17.407  0.00  0.00    +0.016 C 
ATOM     17  C   UNL     1      36.089 -21.939 -18.355  0.00  0.00    +0.033 C 
ATOM     18  H   UNL     1      38.435 -23.670 -13.949  0.00  0.00    +0.151 HD
ENDROOT
BRANCH  15  19
ATOM     19  N   UNL     1      32.070 -24.136 -16.624  0.00  0.00    -0.298 N 
ATOM     20  N   UNL     1      31.095 -22.838 -14.903  0.00  0.00    -0.233 NA
ATOM     21  N   UNL     1      28.760 -22.253 -15.029  0.00  0.00    -0.234 NA
ATOM     22  C   UNL     1      30.955 -23.494 -16.074  0.00  0.00    +0.113 C 
ATOM     23  C   UNL     1      29.768 -23.574 -16.772  0.00  0.00    +0.121 C 
ATOM     24  C   UNL     1      28.692 -22.928 -16.196  0.00  0.00    +0.107 C 
ATOM     25  C   UNL     1      29.973 -22.249 -14.445  0.00  0.00    +0.252 C 
ATOM     26  H   UNL     1      31.881 -24.935 -17.167  0.00  0.00    +0.153 HD
ATOM     27  N   UNL     1      27.454 -22.988 -16.880  0.00  0.00    -0.346 N 
ATOM     28  H   UNL     1      26.661 -22.541 -16.505  0.00  0.00    +0.143 HD
ATOM     29  H   UNL     1      27.385 -23.476 -17.733  0.00  0.00    +0.143 HD
ENDBRANCH  15  19
TORSDOF 1
ENDMDL
