MODEL 1
REMARK VINA RESULT:     -11.1      0.000      0.000
REMARK  Name = 16048422
REMARK  11 active torsions:
REMARK  status: ('A' for Active; 'I' for Inactive)
REMARK    1  A    between atoms: C_1  and  C_4
REMARK    2  A    between atoms: C_1  and  N_18
REMARK    3  A    between atoms: C_1  and  C_33
REMARK    4  A    between atoms: N_3  and  C_6
REMARK    5  A    between atoms: C_6  and  C_9
REMARK    6  A    between atoms: C_9  and  C_11
REMARK    7  A    between atoms: C_19  and  C_21
REMARK    8  A    between atoms: C_24  and  C_27
REMARK    9  A    between atoms: C_33  and  C_34
REMARK   10  A    between atoms: C_34  and  C_36
REMARK   11  A    between atoms: C_36  and  O_37
REMARK                            x       y       z     vdW  Elec       q    Type
REMARK                         _______ _______ _______ _____ _____    ______ ____
ROOT
ATOM      1  C   UNL     1      31.627 -23.605 -15.297  0.00  0.00    +0.149 C 
ENDROOT
BRANCH   1   4
ATOM      2  O   UNL     1      32.780 -25.359 -14.095  0.00  0.00    -0.273 OA
ATOM      3  N   UNL     1      33.954 -23.434 -14.654  0.00  0.00    -0.306 N 
ATOM      4  C   UNL     1      32.832 -24.250 -14.624  0.00  0.00    +0.240 C 
ATOM      5  H   UNL     1      33.886 -22.562 -15.106  0.00  0.00    +0.149 HD
BRANCH   3   6
ATOM      6  C   UNL     1      35.216 -23.802 -14.054  0.00  0.00    +0.061 C 
ATOM      7  C   UNL     1      36.231 -22.672 -14.280  0.00  0.00    +0.020 C 
ATOM      8  C   UNL     1      34.993 -23.967 -12.541  0.00  0.00    +0.020 C 
BRANCH   6   9
ATOM      9  C   UNL     1      35.720 -25.153 -14.627  0.00  0.00    +0.044 C 
BRANCH   9  11
ATOM     10  F   UNL     1      41.171 -26.318 -13.765  0.00  0.00    -0.204 F 
ATOM     11  C   UNL     1      37.181 -25.465 -14.396  0.00  0.00    -0.020 C 
ATOM     12  C   UNL     1      38.132 -25.095 -15.347  0.00  0.00    -0.002 C 
ATOM     13  C   UNL     1      37.578 -26.123 -13.232  0.00  0.00    -0.002 C 
ATOM     14  C   UNL     1      39.480 -25.383 -15.134  0.00  0.00    +0.029 C 
ATOM     15  C   UNL     1      38.926 -26.411 -13.019  0.00  0.00    +0.029 C 
ATOM     16  C   UNL     1      39.877 -26.041 -13.970  0.00  0.00    +0.140 C 
ENDBRANCH   9  11
ENDBRANCH   6   9
ENDBRANCH   3   6
ENDBRANCH   1   4
BRANCH   1  18
ATOM     17  O   UNL     1      33.456 -24.557 -17.296  0.00  0.00    -0.270 OA
ATOM     18  N   UNL     1      32.159 -22.852 -16.406  0.00  0.00    -0.295 N 
ATOM     19  C   UNL     1      33.042 -23.401 -17.325  0.00  0.00    +0.246 C 
ATOM     20  H   UNL     1      31.887 -21.913 -16.516  0.00  0.00    +0.150 HD
BRANCH  19  21
ATOM     21  C   UNL     1      33.520 -22.487 -18.394  0.00  0.00    +0.053 C 
ATOM     22  C   UNL     1      32.604 -21.742 -19.136  0.00  0.00    +0.005 C 
ATOM     23  C   UNL     1      34.885 -22.373 -18.654  0.00  0.00    +0.005 C 
ATOM     24  C   UNL     1      34.418 -20.769 -20.400  0.00  0.00    +0.000 C 
ATOM     25  C   UNL     1      33.053 -20.883 -20.140  0.00  0.00    +0.000 C 
ATOM     26  C   UNL     1      35.335 -21.514 -19.657  0.00  0.00    +0.000 C 
BRANCH  24  27
ATOM     27  C   UNL     1      34.885 -19.879 -21.440  0.00  0.00    +0.000 C 
ATOM     28  C   UNL     1      36.067 -19.159 -21.265  0.00  0.00    +0.000 C 
ATOM     29  C   UNL     1      34.153 -19.740 -22.620  0.00  0.00    +0.000 C 
ATOM     30  C   UNL     1      36.518 -18.302 -22.269  0.00  0.00    +0.000 C 
ATOM     31  C   UNL     1      34.604 -18.882 -23.624  0.00  0.00    +0.000 C 
ATOM     32  C   UNL     1      35.786 -18.163 -23.447  0.00  0.00    +0.000 C 
ENDBRANCH  24  27
ENDBRANCH  19  21
ENDBRANCH   1  18
BRANCH   1  33
ATOM     33  C   UNL     1      30.620 -24.653 -15.787  0.00  0.00    +0.041 C 
BRANCH  33  34
ATOM     34  C   UNL     1      29.155 -24.256 -15.598  0.00  0.00    +0.112 C 
BRANCH  34  36
ATOM     35  O   UNL     1      27.735 -24.270 -17.577  0.00  0.00    -0.250 OA
ATOM     36  C   UNL     1      28.523 -23.684 -16.848  0.00  0.00    +0.314 C 
BRANCH  36  37
ATOM     37  O   UNL     1      28.917 -22.401 -17.061  0.00  0.00    -0.480 OA
ATOM     38  H   UNL     1      28.278 -21.718 -17.114  0.00  0.00    +0.295 HD
ENDBRANCH  36  37
ENDBRANCH  34  36
ENDBRANCH  33  34
ENDBRANCH   1  33
TORSDOF 11
ENDMDL
MODEL 2
REMARK VINA RESULT:     -10.3      2.350      3.599
REMARK  Name = 16048422
REMARK  11 active torsions:
REMARK  status: ('A' for Active; 'I' for Inactive)
REMARK    1  A    between atoms: C_1  and  C_4
REMARK    2  A    between atoms: C_1  and  N_18
REMARK    3  A    between atoms: C_1  and  C_33
REMARK    4  A    between atoms: N_3  and  C_6
REMARK    5  A    between atoms: C_6  and  C_9
REMARK    6  A    between atoms: C_9  and  C_11
REMARK    7  A    between atoms: C_19  and  C_21
REMARK    8  A    between atoms: C_24  and  C_27
REMARK    9  A    between atoms: C_33  and  C_34
REMARK   10  A    between atoms: C_34  and  C_36
REMARK   11  A    between atoms: C_36  and  O_37
REMARK                            x       y       z     vdW  Elec       q    Type
REMARK                         _______ _______ _______ _____ _____    ______ ____
ROOT
ATOM      1  C   UNL     1      34.600 -23.420 -15.604  0.00  0.00    +0.149 C 
ENDROOT
BRANCH   1   4
ATOM      2  O   UNL     1      36.983 -23.586 -15.986  0.00  0.00    -0.273 OA
ATOM      3  N   UNL     1      35.883 -25.383 -15.008  0.00  0.00    -0.306 N 
ATOM      4  C   UNL     1      35.957 -24.110 -15.554  0.00  0.00    +0.240 C 
ATOM      5  H   UNL     1      35.009 -25.707 -14.692  0.00  0.00    +0.149 HD
BRANCH   3   6
ATOM      6  C   UNL     1      37.027 -26.256 -14.880  0.00  0.00    +0.061 C 
ATOM      7  C   UNL     1      36.800 -27.515 -15.730  0.00  0.00    +0.020 C 
ATOM      8  C   UNL     1      38.258 -25.512 -15.424  0.00  0.00    +0.020 C 
BRANCH   6   9
ATOM      9  C   UNL     1      37.284 -26.606 -13.390  0.00  0.00    +0.044 C 
BRANCH   9  11
ATOM     10  F   UNL     1      36.773 -22.346  -9.729  0.00  0.00    -0.204 F 
ATOM     11  C   UNL     1      37.147 -25.464 -12.409  0.00  0.00    -0.020 C 
ATOM     12  C   UNL     1      36.079 -25.440 -11.511  0.00  0.00    -0.002 C 
ATOM     13  C   UNL     1      38.088 -24.435 -12.401  0.00  0.00    -0.002 C 
ATOM     14  C   UNL     1      35.953 -24.387 -10.606  0.00  0.00    +0.029 C 
ATOM     15  C   UNL     1      37.962 -23.382 -11.495  0.00  0.00    +0.029 C 
ATOM     16  C   UNL     1      36.894 -23.358 -10.598  0.00  0.00    +0.140 C 
ENDBRANCH   9  11
ENDBRANCH   6   9
ENDBRANCH   3   6
ENDBRANCH   1   4
BRANCH   1  18
ATOM     17  O   UNL     1      33.813 -24.107 -18.278  0.00  0.00    -0.270 OA
ATOM     18  N   UNL     1      34.643 -22.561 -16.761  0.00  0.00    -0.295 N 
ATOM     19  C   UNL     1      34.240 -22.984 -18.019  0.00  0.00    +0.246 C 
ATOM     20  H   UNL     1      34.972 -21.640 -16.655  0.00  0.00    +0.150 HD
BRANCH  19  21
ATOM     21  C   UNL     1      34.372 -21.988 -19.114  0.00  0.00    +0.053 C 
ATOM     22  C   UNL     1      35.637 -21.617 -19.570  0.00  0.00    +0.005 C 
ATOM     23  C   UNL     1      33.231 -21.426 -19.686  0.00  0.00    +0.005 C 
ATOM     24  C   UNL     1      34.620 -20.119 -21.169  0.00  0.00    +0.000 C 
ATOM     25  C   UNL     1      35.761 -20.681 -20.597  0.00  0.00    +0.000 C 
ATOM     26  C   UNL     1      33.355 -20.490 -20.714  0.00  0.00    +0.000 C 
BRANCH  24  27
ATOM     27  C   UNL     1      34.748 -19.149 -22.235  0.00  0.00    +0.000 C 
ATOM     28  C   UNL     1      34.257 -19.441 -23.507  0.00  0.00    +0.000 C 
ATOM     29  C   UNL     1      35.362 -17.920 -21.990  0.00  0.00    +0.000 C 
ATOM     30  C   UNL     1      34.379 -18.505 -24.534  0.00  0.00    +0.000 C 
ATOM     31  C   UNL     1      35.485 -16.985 -23.018  0.00  0.00    +0.000 C 
ATOM     32  C   UNL     1      34.993 -17.278 -24.290  0.00  0.00    +0.000 C 
ENDBRANCH  24  27
ENDBRANCH  19  21
ENDBRANCH   1  18
BRANCH   1  33
ATOM     33  C   UNL     1      33.452 -24.430 -15.721  0.00  0.00    +0.041 C 
BRANCH  33  34
ATOM     34  C   UNL     1      32.184 -24.034 -14.961  0.00  0.00    +0.112 C 
BRANCH  34  36
ATOM     35  O   UNL     1      30.992 -24.921 -13.030  0.00  0.00    -0.250 OA
ATOM     36  C   UNL     1      32.044 -24.733 -13.627  0.00  0.00    +0.314 C 
BRANCH  36  37
ATOM     37  O   UNL     1      33.245 -25.167 -13.164  0.00  0.00    -0.480 OA
ATOM     38  H   UNL     1      34.011 -24.641 -13.283  0.00  0.00    +0.295 HD
ENDBRANCH  36  37
ENDBRANCH  34  36
ENDBRANCH  33  34
ENDBRANCH   1  33
TORSDOF 11
ENDMDL
MODEL 3
REMARK VINA RESULT:     -10.3      6.785     11.983
REMARK  Name = 16048422
REMARK  11 active torsions:
REMARK  status: ('A' for Active; 'I' for Inactive)
REMARK    1  A    between atoms: C_1  and  C_4
REMARK    2  A    between atoms: C_1  and  N_18
REMARK    3  A    between atoms: C_1  and  C_33
REMARK    4  A    between atoms: N_3  and  C_6
REMARK    5  A    between atoms: C_6  and  C_9
REMARK    6  A    between atoms: C_9  and  C_11
REMARK    7  A    between atoms: C_19  and  C_21
REMARK    8  A    between atoms: C_24  and  C_27
REMARK    9  A    between atoms: C_33  and  C_34
REMARK   10  A    between atoms: C_34  and  C_36
REMARK   11  A    between atoms: C_36  and  O_37
REMARK                            x       y       z     vdW  Elec       q    Type
REMARK                         _______ _______ _______ _____ _____    ______ ____
ROOT
ATOM      1  C   UNL     1      35.522 -16.720 -23.615  0.00  0.00    +0.149 C 
ENDROOT
BRANCH   1   4
ATOM      2  O   UNL     1      34.681 -15.140 -21.988  0.00  0.00    -0.273 OA
ATOM      3  N   UNL     1      34.211 -14.783 -24.234  0.00  0.00    -0.306 N 
ATOM      4  C   UNL     1      34.778 -15.468 -23.169  0.00  0.00    +0.240 C 
ATOM      5  H   UNL     1      34.351 -15.134 -25.144  0.00  0.00    +0.149 HD
BRANCH   3   6
ATOM      6  C   UNL     1      33.426 -13.581 -24.073  0.00  0.00    +0.061 C 
ATOM      7  C   UNL     1      34.361 -12.405 -23.751  0.00  0.00    +0.020 C 
ATOM      8  C   UNL     1      32.718 -13.293 -25.408  0.00  0.00    +0.020 C 
BRANCH   6   9
ATOM      9  C   UNL     1      32.346 -13.776 -22.976  0.00  0.00    +0.044 C 
BRANCH   9  11
ATOM     10  F   UNL     1      31.426  -9.349 -19.604  0.00  0.00    -0.204 F 
ATOM     11  C   UNL     1      32.100 -12.589 -22.072  0.00  0.00    -0.020 C 
ATOM     12  C   UNL     1      32.228 -12.727 -20.690  0.00  0.00    -0.002 C 
ATOM     13  C   UNL     1      31.744 -11.357 -22.621  0.00  0.00    -0.002 C 
ATOM     14  C   UNL     1      32.001 -11.632 -19.857  0.00  0.00    +0.029 C 
ATOM     15  C   UNL     1      31.517 -10.262 -21.787  0.00  0.00    +0.029 C 
ATOM     16  C   UNL     1      31.645 -10.400 -20.405  0.00  0.00    +0.140 C 
ENDBRANCH   9  11
ENDBRANCH   6   9
ENDBRANCH   3   6
ENDBRANCH   1   4
BRANCH   1  18
ATOM     17  O   UNL     1      37.315 -18.777 -22.719  0.00  0.00    -0.270 OA
ATOM     18  N   UNL     1      35.259 -17.710 -22.598  0.00  0.00    -0.295 N 
ATOM     19  C   UNL     1      36.193 -18.668 -22.232  0.00  0.00    +0.246 C 
ATOM     20  H   UNL     1      34.384 -17.705 -22.148  0.00  0.00    +0.150 HD
BRANCH  19  21
ATOM     21  C   UNL     1      35.758 -19.633 -21.189  0.00  0.00    +0.053 C 
ATOM     22  C   UNL     1      36.705 -20.246 -20.368  0.00  0.00    +0.005 C 
ATOM     23  C   UNL     1      34.404 -19.924 -21.030  0.00  0.00    +0.005 C 
ATOM     24  C   UNL     1      34.942 -21.444 -19.230  0.00  0.00    +0.000 C 
ATOM     25  C   UNL     1      36.297 -21.152 -19.389  0.00  0.00    +0.000 C 
ATOM     26  C   UNL     1      33.995 -20.830 -20.051  0.00  0.00    +0.000 C 
BRANCH  24  27
ATOM     27  C   UNL     1      34.518 -22.383 -18.215  0.00  0.00    +0.000 C 
ATOM     28  C   UNL     1      35.423 -22.820 -17.248  0.00  0.00    +0.000 C 
ATOM     29  C   UNL     1      33.204 -22.851 -18.202  0.00  0.00    +0.000 C 
ATOM     30  C   UNL     1      35.014 -23.725 -16.268  0.00  0.00    +0.000 C 
ATOM     31  C   UNL     1      32.796 -23.756 -17.222  0.00  0.00    +0.000 C 
ATOM     32  C   UNL     1      33.701 -24.193 -16.255  0.00  0.00    +0.000 C 
ENDBRANCH  24  27
ENDBRANCH  19  21
ENDBRANCH   1  18
BRANCH   1  33
ATOM     33  C   UNL     1      35.041 -17.211 -24.986  0.00  0.00    +0.041 C 
BRANCH  33  34
ATOM     34  C   UNL     1      34.022 -18.350 -24.926  0.00  0.00    +0.112 C 
BRANCH  34  36
ATOM     35  O   UNL     1      31.925 -18.917 -26.029  0.00  0.00    -0.250 OA
ATOM     36  C   UNL     1      32.785 -18.091 -25.758  0.00  0.00    +0.314 C 
BRANCH  36  37
ATOM     37  O   UNL     1      32.718 -16.794 -26.157  0.00  0.00    -0.480 OA
ATOM     38  H   UNL     1      33.169 -16.130 -25.674  0.00  0.00    +0.295 HD
ENDBRANCH  36  37
ENDBRANCH  34  36
ENDBRANCH  33  34
ENDBRANCH   1  33
TORSDOF 11
ENDMDL
MODEL 4
REMARK VINA RESULT:     -10.0     10.160     15.436
REMARK  Name = 16048422
REMARK  11 active torsions:
REMARK  status: ('A' for Active; 'I' for Inactive)
REMARK    1  A    between atoms: C_1  and  C_4
REMARK    2  A    between atoms: C_1  and  N_18
REMARK    3  A    between atoms: C_1  and  C_33
REMARK    4  A    between atoms: N_3  and  C_6
REMARK    5  A    between atoms: C_6  and  C_9
REMARK    6  A    between atoms: C_9  and  C_11
REMARK    7  A    between atoms: C_19  and  C_21
REMARK    8  A    between atoms: C_24  and  C_27
REMARK    9  A    between atoms: C_33  and  C_34
REMARK   10  A    between atoms: C_34  and  C_36
REMARK   11  A    between atoms: C_36  and  O_37
REMARK                            x       y       z     vdW  Elec       q    Type
REMARK                         _______ _______ _______ _____ _____    ______ ____
ROOT
ATOM      1  C   UNL     1      34.218 -11.367 -24.097  0.00  0.00    +0.149 C 
ENDROOT
BRANCH   1   4
ATOM      2  O   UNL     1      32.441 -11.454 -22.458  0.00  0.00    -0.273 OA
ATOM      3  N   UNL     1      33.322  -9.385 -23.036  0.00  0.00    -0.306 N 
ATOM      4  C   UNL     1      33.234 -10.768 -23.100  0.00  0.00    +0.240 C 
ATOM      5  H   UNL     1      33.995  -8.933 -23.595  0.00  0.00    +0.149 HD
BRANCH   3   6
ATOM      6  C   UNL     1      32.474  -8.577 -22.191  0.00  0.00    +0.061 C 
ATOM      7  C   UNL     1      31.069  -8.503 -22.806  0.00  0.00    +0.020 C 
ATOM      8  C   UNL     1      32.374  -9.265 -20.819  0.00  0.00    +0.020 C 
BRANCH   6   9
ATOM      9  C   UNL     1      33.089  -7.167 -21.989  0.00  0.00    +0.044 C 
BRANCH   9  11
ATOM     10  F   UNL     1      33.796  -4.089 -26.662  0.00  0.00    -0.204 F 
ATOM     11  C   UNL     1      33.278  -6.341 -23.242  0.00  0.00    -0.020 C 
ATOM     12  C   UNL     1      32.345  -5.361 -23.579  0.00  0.00    -0.002 C 
ATOM     13  C   UNL     1      34.386  -6.561 -24.060  0.00  0.00    -0.002 C 
ATOM     14  C   UNL     1      32.520  -4.600 -24.734  0.00  0.00    +0.029 C 
ATOM     15  C   UNL     1      34.562  -5.799 -25.215  0.00  0.00    +0.029 C 
ATOM     16  C   UNL     1      33.628  -4.819 -25.552  0.00  0.00    +0.140 C 
ENDBRANCH   9  11
ENDBRANCH   6   9
ENDBRANCH   3   6
ENDBRANCH   1   4
BRANCH   1  18
ATOM     17  O   UNL     1      32.746 -13.804 -24.472  0.00  0.00    -0.270 OA
ATOM     18  N   UNL     1      34.558 -12.667 -23.573  0.00  0.00    -0.295 N 
ATOM     19  C   UNL     1      33.781 -13.792 -23.809  0.00  0.00    +0.246 C 
ATOM     20  H   UNL     1      35.371 -12.761 -23.027  0.00  0.00    +0.150 HD
BRANCH  19  21
ATOM     21  C   UNL     1      34.251 -15.052 -23.177  0.00  0.00    +0.053 C 
ATOM     22  C   UNL     1      34.472 -16.185 -23.959  0.00  0.00    +0.005 C 
ATOM     23  C   UNL     1      34.472 -15.100 -21.801  0.00  0.00    +0.005 C 
ATOM     24  C   UNL     1      35.134 -17.416 -21.989  0.00  0.00    +0.000 C 
ATOM     25  C   UNL     1      34.913 -17.368 -23.365  0.00  0.00    +0.000 C 
ATOM     26  C   UNL     1      34.913 -16.282 -21.206  0.00  0.00    +0.000 C 
BRANCH  24  27
ATOM     27  C   UNL     1      35.592 -18.642 -21.372  0.00  0.00    +0.000 C 
ATOM     28  C   UNL     1      36.951 -18.829 -21.116  0.00  0.00    +0.000 C 
ATOM     29  C   UNL     1      34.675 -19.636 -21.031  0.00  0.00    +0.000 C 
ATOM     30  C   UNL     1      37.392 -20.010 -20.520  0.00  0.00    +0.000 C 
ATOM     31  C   UNL     1      35.117 -20.818 -20.436  0.00  0.00    +0.000 C 
ATOM     32  C   UNL     1      36.476 -21.005 -20.180  0.00  0.00    +0.000 C 
ENDBRANCH  24  27
ENDBRANCH  19  21
ENDBRANCH   1  18
BRANCH   1  33
ATOM     33  C   UNL     1      33.605 -11.490 -25.497  0.00  0.00    +0.041 C 
BRANCH  33  34
ATOM     34  C   UNL     1      34.585 -11.958 -26.575  0.00  0.00    +0.112 C 
BRANCH  34  36
ATOM     35  O   UNL     1      34.785 -13.901 -28.031  0.00  0.00    -0.250 OA
ATOM     36  C   UNL     1      34.090 -13.156 -27.355  0.00  0.00    +0.314 C 
BRANCH  36  37
ATOM     37  O   UNL     1      32.753 -13.336 -27.193  0.00  0.00    -0.480 OA
ATOM     38  H   UNL     1      32.247 -12.701 -26.725  0.00  0.00    +0.295 HD
ENDBRANCH  36  37
ENDBRANCH  34  36
ENDBRANCH  33  34
ENDBRANCH   1  33
TORSDOF 11
ENDMDL
MODEL 5
REMARK VINA RESULT:      -9.7      7.158     12.538
REMARK  Name = 16048422
REMARK  11 active torsions:
REMARK  status: ('A' for Active; 'I' for Inactive)
REMARK    1  A    between atoms: C_1  and  C_4
REMARK    2  A    between atoms: C_1  and  N_18
REMARK    3  A    between atoms: C_1  and  C_33
REMARK    4  A    between atoms: N_3  and  C_6
REMARK    5  A    between atoms: C_6  and  C_9
REMARK    6  A    between atoms: C_9  and  C_11
REMARK    7  A    between atoms: C_19  and  C_21
REMARK    8  A    between atoms: C_24  and  C_27
REMARK    9  A    between atoms: C_33  and  C_34
REMARK   10  A    between atoms: C_34  and  C_36
REMARK   11  A    between atoms: C_36  and  O_37
REMARK                            x       y       z     vdW  Elec       q    Type
REMARK                         _______ _______ _______ _____ _____    ______ ____
ROOT
ATOM      1  C   UNL     1      35.428 -16.645 -23.277  0.00  0.00    +0.149 C 
ENDROOT
BRANCH   1   4
ATOM      2  O   UNL     1      34.877 -15.145 -21.461  0.00  0.00    -0.273 OA
ATOM      3  N   UNL     1      34.272 -14.547 -23.622  0.00  0.00    -0.306 N 
ATOM      4  C   UNL     1      34.849 -15.374 -22.669  0.00  0.00    +0.240 C 
ATOM      5  H   UNL     1      34.305 -14.827 -24.565  0.00  0.00    +0.149 HD
BRANCH   3   6
ATOM      6  C   UNL     1      33.625 -13.297 -23.297  0.00  0.00    +0.061 C 
ATOM      7  C   UNL     1      32.132 -13.552 -23.042  0.00  0.00    +0.020 C 
ATOM      8  C   UNL     1      34.258 -12.756 -22.004  0.00  0.00    +0.020 C 
BRANCH   6   9
ATOM      9  C   UNL     1      33.847 -12.257 -24.426  0.00  0.00    +0.044 C 
BRANCH   9  11
ATOM     10  F   UNL     1      33.486  -6.839 -22.898  0.00  0.00    -0.204 F 
ATOM     11  C   UNL     1      33.750 -10.804 -24.016  0.00  0.00    -0.020 C 
ATOM     12  C   UNL     1      34.839  -9.953 -24.202  0.00  0.00    -0.002 C 
ATOM     13  C   UNL     1      32.572 -10.316 -23.452  0.00  0.00    -0.002 C 
ATOM     14  C   UNL     1      34.750  -8.613 -23.826  0.00  0.00    +0.029 C 
ATOM     15  C   UNL     1      32.482  -8.976 -23.075  0.00  0.00    +0.029 C 
ATOM     16  C   UNL     1      33.571  -8.125 -23.262  0.00  0.00    +0.140 C 
ENDBRANCH   9  11
ENDBRANCH   6   9
ENDBRANCH   3   6
ENDBRANCH   1   4
BRANCH   1  18
ATOM     17  O   UNL     1      37.168 -18.870 -22.760  0.00  0.00    -0.270 OA
ATOM     18  N   UNL     1      35.240 -17.672 -22.281  0.00  0.00    -0.295 N 
ATOM     19  C   UNL     1      36.141 -18.712 -22.105  0.00  0.00    +0.246 C 
ATOM     20  H   UNL     1      34.443 -17.633 -21.705  0.00  0.00    +0.150 HD
BRANCH  19  21
ATOM     21  C   UNL     1      35.790 -19.704 -21.056  0.00  0.00    +0.053 C 
ATOM     22  C   UNL     1      34.465 -20.109 -20.894  0.00  0.00    +0.005 C 
ATOM     23  C   UNL     1      36.786 -20.231 -20.235  0.00  0.00    +0.005 C 
ATOM     24  C   UNL     1      35.132 -21.567 -19.087  0.00  0.00    +0.000 C 
ATOM     25  C   UNL     1      34.136 -21.040 -19.908  0.00  0.00    +0.000 C 
ATOM     26  C   UNL     1      36.458 -21.163 -19.249  0.00  0.00    +0.000 C 
BRANCH  24  27
ATOM     27  C   UNL     1      34.792 -22.533 -18.065  0.00  0.00    +0.000 C 
ATOM     28  C   UNL     1      33.544 -23.156 -18.082  0.00  0.00    +0.000 C 
ATOM     29  C   UNL     1      35.712 -22.844 -17.063  0.00  0.00    +0.000 C 
ATOM     30  C   UNL     1      33.216 -24.089 -17.098  0.00  0.00    +0.000 C 
ATOM     31  C   UNL     1      35.383 -23.776 -16.079  0.00  0.00    +0.000 C 
ATOM     32  C   UNL     1      34.135 -24.398 -16.096  0.00  0.00    +0.000 C 
ENDBRANCH  24  27
ENDBRANCH  19  21
ENDBRANCH   1  18
BRANCH   1  33
ATOM     33  C   UNL     1      34.722 -17.023 -24.585  0.00  0.00    +0.041 C 
BRANCH  33  34
ATOM     34  C   UNL     1      34.072 -18.408 -24.573  0.00  0.00    +0.112 C 
BRANCH  34  36
ATOM     35  O   UNL     1      32.188 -19.504 -25.660  0.00  0.00    -0.250 OA
ATOM     36  C   UNL     1      32.948 -18.550 -25.576  0.00  0.00    +0.314 C 
BRANCH  36  37
ATOM     37  O   UNL     1      32.855 -17.457 -26.376  0.00  0.00    -0.480 OA
ATOM     38  H   UNL     1      32.264 -17.456 -27.103  0.00  0.00    +0.295 HD
ENDBRANCH  36  37
ENDBRANCH  34  36
ENDBRANCH  33  34
ENDBRANCH   1  33
TORSDOF 11
ENDMDL
MODEL 6
REMARK VINA RESULT:      -9.6      7.638     11.256
REMARK  Name = 16048422
REMARK  11 active torsions:
REMARK  status: ('A' for Active; 'I' for Inactive)
REMARK    1  A    between atoms: C_1  and  C_4
REMARK    2  A    between atoms: C_1  and  N_18
REMARK    3  A    between atoms: C_1  and  C_33
REMARK    4  A    between atoms: N_3  and  C_6
REMARK    5  A    between atoms: C_6  and  C_9
REMARK    6  A    between atoms: C_9  and  C_11
REMARK    7  A    between atoms: C_19  and  C_21
REMARK    8  A    between atoms: C_24  and  C_27
REMARK    9  A    between atoms: C_33  and  C_34
REMARK   10  A    between atoms: C_34  and  C_36
REMARK   11  A    between atoms: C_36  and  O_37
REMARK                            x       y       z     vdW  Elec       q    Type
REMARK                         _______ _______ _______ _____ _____    ______ ____
ROOT
ATOM      1  C   UNL     1      33.745 -15.840 -24.180  0.00  0.00    +0.149 C 
ENDROOT
BRANCH   1   4
ATOM      2  O   UNL     1      35.484 -15.444 -22.547  0.00  0.00    -0.273 OA
ATOM      3  N   UNL     1      34.894 -17.636 -23.035  0.00  0.00    -0.306 N 
ATOM      4  C   UNL     1      34.795 -16.258 -23.158  0.00  0.00    +0.240 C 
ATOM      5  H   UNL     1      34.291 -18.199 -23.574  0.00  0.00    +0.149 HD
BRANCH   3   6
ATOM      6  C   UNL     1      35.838 -18.286 -22.155  0.00  0.00    +0.061 C 
ATOM      7  C   UNL     1      37.258 -17.808 -22.496  0.00  0.00    +0.020 C 
ATOM      8  C   UNL     1      35.512 -17.865 -20.713  0.00  0.00    +0.020 C 
BRANCH   6   9
ATOM      9  C   UNL     1      35.709 -19.828 -22.259  0.00  0.00    +0.044 C 
BRANCH   9  11
ATOM     10  F   UNL     1      32.695 -22.332 -18.202  0.00  0.00    -0.204 F 
ATOM     11  C   UNL     1      34.901 -20.500 -21.171  0.00  0.00    -0.020 C 
ATOM     12  C   UNL     1      35.539 -21.292 -20.217  0.00  0.00    -0.002 C 
ATOM     13  C   UNL     1      33.518 -20.327 -21.123  0.00  0.00    -0.002 C 
ATOM     14  C   UNL     1      34.794 -21.910 -19.213  0.00  0.00    +0.029 C 
ATOM     15  C   UNL     1      32.773 -20.945 -20.120  0.00  0.00    +0.029 C 
ATOM     16  C   UNL     1      33.411 -21.737 -19.165  0.00  0.00    +0.140 C 
ENDBRANCH   9  11
ENDBRANCH   6   9
ENDBRANCH   3   6
ENDBRANCH   1   4
BRANCH   1  18
ATOM     17  O   UNL     1      32.571 -14.160 -22.170  0.00  0.00    -0.270 OA
ATOM     18  N   UNL     1      33.737 -14.398 -24.161  0.00  0.00    -0.295 N 
ATOM     19  C   UNL     1      33.142 -13.670 -23.141  0.00  0.00    +0.246 C 
ATOM     20  H   UNL     1      34.170 -13.912 -24.898  0.00  0.00    +0.150 HD
BRANCH  19  21
ATOM     21  C   UNL     1      33.195 -12.192 -23.281  0.00  0.00    +0.053 C 
ATOM     22  C   UNL     1      32.326 -11.389 -22.542  0.00  0.00    +0.005 C 
ATOM     23  C   UNL     1      34.115 -11.607 -24.151  0.00  0.00    +0.005 C 
ATOM     24  C   UNL     1      33.295  -9.417 -23.545  0.00  0.00    +0.000 C 
ATOM     25  C   UNL     1      32.375 -10.001 -22.675  0.00  0.00    +0.000 C 
ATOM     26  C   UNL     1      34.165 -10.219 -24.283  0.00  0.00    +0.000 C 
BRANCH  24  27
ATOM     27  C   UNL     1      33.347  -7.978 -23.682  0.00  0.00    +0.000 C 
ATOM     28  C   UNL     1      32.346  -7.186 -23.119  0.00  0.00    +0.000 C 
ATOM     29  C   UNL     1      34.400  -7.380 -24.376  0.00  0.00    +0.000 C 
ATOM     30  C   UNL     1      32.398  -5.798 -23.250  0.00  0.00    +0.000 C 
ATOM     31  C   UNL     1      34.450  -5.992 -24.508  0.00  0.00    +0.000 C 
ATOM     32  C   UNL     1      33.449  -5.202 -23.945  0.00  0.00    +0.000 C 
ENDBRANCH  24  27
ENDBRANCH  19  21
ENDBRANCH   1  18
BRANCH   1  33
ATOM     33  C   UNL     1      34.078 -16.362 -25.584  0.00  0.00    +0.041 C 
BRANCH  33  34
ATOM     34  C   UNL     1      32.957 -17.172 -26.237  0.00  0.00    +0.112 C 
BRANCH  34  36
ATOM     35  O   UNL     1      33.996 -19.290 -25.628  0.00  0.00    -0.250 OA
ATOM     36  C   UNL     1      32.989 -18.640 -25.872  0.00  0.00    +0.314 C 
BRANCH  36  37
ATOM     37  O   UNL     1      31.737 -19.165 -25.814  0.00  0.00    -0.480 OA
ATOM     38  H   UNL     1      31.267 -19.168 -25.003  0.00  0.00    +0.295 HD
ENDBRANCH  36  37
ENDBRANCH  34  36
ENDBRANCH  33  34
ENDBRANCH   1  33
TORSDOF 11
ENDMDL
MODEL 7
REMARK VINA RESULT:      -9.6      7.459     10.838
REMARK  Name = 16048422
REMARK  11 active torsions:
REMARK  status: ('A' for Active; 'I' for Inactive)
REMARK    1  A    between atoms: C_1  and  C_4
REMARK    2  A    between atoms: C_1  and  N_18
REMARK    3  A    between atoms: C_1  and  C_33
REMARK    4  A    between atoms: N_3  and  C_6
REMARK    5  A    between atoms: C_6  and  C_9
REMARK    6  A    between atoms: C_9  and  C_11
REMARK    7  A    between atoms: C_19  and  C_21
REMARK    8  A    between atoms: C_24  and  C_27
REMARK    9  A    between atoms: C_33  and  C_34
REMARK   10  A    between atoms: C_34  and  C_36
REMARK   11  A    between atoms: C_36  and  O_37
REMARK                            x       y       z     vdW  Elec       q    Type
REMARK                         _______ _______ _______ _____ _____    ______ ____
ROOT
ATOM      1  C   UNL     1      34.223 -16.057 -23.740  0.00  0.00    +0.149 C 
ENDROOT
BRANCH   1   4
ATOM      2  O   UNL     1      35.305 -16.011 -21.577  0.00  0.00    -0.273 OA
ATOM      3  N   UNL     1      35.249 -18.013 -22.752  0.00  0.00    -0.306 N 
ATOM      4  C   UNL     1      34.971 -16.668 -22.562  0.00  0.00    +0.240 C 
ATOM      5  H   UNL     1      34.935 -18.444 -23.580  0.00  0.00    +0.149 HD
BRANCH   3   6
ATOM      6  C   UNL     1      35.978 -18.813 -21.794  0.00  0.00    +0.061 C 
ATOM      7  C   UNL     1      37.486 -18.647 -22.039  0.00  0.00    +0.020 C 
ATOM      8  C   UNL     1      35.650 -18.287 -20.387  0.00  0.00    +0.020 C 
BRANCH   6   9
ATOM      9  C   UNL     1      35.542 -20.299 -21.878  0.00  0.00    +0.044 C 
BRANCH   9  11
ATOM     10  F   UNL     1      34.890 -22.964 -16.950  0.00  0.00    -0.204 F 
ATOM     11  C   UNL     1      35.367 -21.013 -20.557  0.00  0.00    -0.020 C 
ATOM     12  C   UNL     1      36.484 -21.344 -19.790  0.00  0.00    -0.002 C 
ATOM     13  C   UNL     1      34.089 -21.341 -20.106  0.00  0.00    -0.002 C 
ATOM     14  C   UNL     1      36.323 -22.002 -18.571  0.00  0.00    +0.029 C 
ATOM     15  C   UNL     1      33.928 -22.000 -18.886  0.00  0.00    +0.029 C 
ATOM     16  C   UNL     1      35.045 -22.330 -18.120  0.00  0.00    +0.140 C 
ENDBRANCH   9  11
ENDBRANCH   6   9
ENDBRANCH   3   6
ENDBRANCH   1   4
BRANCH   1  18
ATOM     17  O   UNL     1      32.887 -14.073 -25.328  0.00  0.00    -0.270 OA
ATOM     18  N   UNL     1      33.968 -14.687 -23.370  0.00  0.00    -0.295 N 
ATOM     19  C   UNL     1      33.311 -13.798 -24.209  0.00  0.00    +0.246 C 
ATOM     20  H   UNL     1      34.272 -14.369 -22.490  0.00  0.00    +0.150 HD
BRANCH  19  21
ATOM     21  C   UNL     1      33.151 -12.415 -23.692  0.00  0.00    +0.053 C 
ATOM     22  C   UNL     1      32.330 -12.172 -22.591  0.00  0.00    +0.005 C 
ATOM     23  C   UNL     1      33.822 -11.359 -24.309  0.00  0.00    +0.005 C 
ATOM     24  C   UNL     1      32.850  -9.816 -22.723  0.00  0.00    +0.000 C 
ATOM     25  C   UNL     1      32.179 -10.872 -22.106  0.00  0.00    +0.000 C 
ATOM     26  C   UNL     1      33.672 -10.059 -23.824  0.00  0.00    +0.000 C 
BRANCH  24  27
ATOM     27  C   UNL     1      32.695  -8.469 -22.220  0.00  0.00    +0.000 C 
ATOM     28  C   UNL     1      32.768  -7.385 -23.096  0.00  0.00    +0.000 C 
ATOM     29  C   UNL     1      32.470  -8.252 -20.861  0.00  0.00    +0.000 C 
ATOM     30  C   UNL     1      32.617  -6.085 -22.612  0.00  0.00    +0.000 C 
ATOM     31  C   UNL     1      32.319  -6.952 -20.377  0.00  0.00    +0.000 C 
ATOM     32  C   UNL     1      32.393  -5.869 -21.252  0.00  0.00    +0.000 C 
ENDBRANCH  24  27
ENDBRANCH  19  21
ENDBRANCH   1  18
BRANCH   1  33
ATOM     33  C   UNL     1      35.046 -16.126 -25.033  0.00  0.00    +0.041 C 
BRANCH  33  34
ATOM     34  C   UNL     1      34.362 -16.879 -26.176  0.00  0.00    +0.112 C 
BRANCH  34  36
ATOM     35  O   UNL     1      34.202 -19.101 -25.190  0.00  0.00    -0.250 OA
ATOM     36  C   UNL     1      33.662 -18.143 -25.725  0.00  0.00    +0.314 C 
BRANCH  36  37
ATOM     37  O   UNL     1      32.326 -18.082 -25.962  0.00  0.00    -0.480 OA
ATOM     38  H   UNL     1      31.733 -18.578 -25.432  0.00  0.00    +0.295 HD
ENDBRANCH  36  37
ENDBRANCH  34  36
ENDBRANCH  33  34
ENDBRANCH   1  33
TORSDOF 11
ENDMDL
MODEL 8
REMARK VINA RESULT:      -9.3      6.805     12.201
REMARK  Name = 16048422
REMARK  11 active torsions:
REMARK  status: ('A' for Active; 'I' for Inactive)
REMARK    1  A    between atoms: C_1  and  C_4
REMARK    2  A    between atoms: C_1  and  N_18
REMARK    3  A    between atoms: C_1  and  C_33
REMARK    4  A    between atoms: N_3  and  C_6
REMARK    5  A    between atoms: C_6  and  C_9
REMARK    6  A    between atoms: C_9  and  C_11
REMARK    7  A    between atoms: C_19  and  C_21
REMARK    8  A    between atoms: C_24  and  C_27
REMARK    9  A    between atoms: C_33  and  C_34
REMARK   10  A    between atoms: C_34  and  C_36
REMARK   11  A    between atoms: C_36  and  O_37
REMARK                            x       y       z     vdW  Elec       q    Type
REMARK                         _______ _______ _______ _____ _____    ______ ____
ROOT
ATOM      1  C   UNL     1      35.293 -17.494 -22.619  0.00  0.00    +0.149 C 
ENDROOT
BRANCH   1   4
ATOM      2  O   UNL     1      34.902 -15.953 -20.796  0.00  0.00    -0.273 OA
ATOM      3  N   UNL     1      34.330 -15.299 -22.949  0.00  0.00    -0.306 N 
ATOM      4  C   UNL     1      34.840 -16.176 -22.003  0.00  0.00    +0.240 C 
ATOM      5  H   UNL     1      34.327 -15.578 -23.893  0.00  0.00    +0.149 HD
BRANCH   3   6
ATOM      6  C   UNL     1      33.804 -13.995 -22.616  0.00  0.00    +0.061 C 
ATOM      7  C   UNL     1      32.569 -14.162 -21.717  0.00  0.00    +0.020 C 
ATOM      8  C   UNL     1      34.883 -13.233 -21.829  0.00  0.00    +0.020 C 
BRANCH   6   9
ATOM      9  C   UNL     1      33.475 -13.193 -23.902  0.00  0.00    +0.044 C 
BRANCH   9  11
ATOM     10  F   UNL     1      34.236  -7.612 -23.595  0.00  0.00    -0.204 F 
ATOM     11  C   UNL     1      33.679 -11.697 -23.820  0.00  0.00    -0.020 C 
ATOM     12  C   UNL     1      32.771 -10.907 -23.114  0.00  0.00    -0.002 C 
ATOM     13  C   UNL     1      34.775 -11.107 -24.450  0.00  0.00    -0.002 C 
ATOM     14  C   UNL     1      32.960  -9.527 -23.038  0.00  0.00    +0.029 C 
ATOM     15  C   UNL     1      34.963  -9.727 -24.373  0.00  0.00    +0.029 C 
ATOM     16  C   UNL     1      34.055  -8.938 -23.667  0.00  0.00    +0.140 C 
ENDBRANCH   9  11
ENDBRANCH   6   9
ENDBRANCH   3   6
ENDBRANCH   1   4
BRANCH   1  18
ATOM     17  O   UNL     1      35.241 -20.361 -22.771  0.00  0.00    -0.270 OA
ATOM     18  N   UNL     1      35.410 -18.417 -21.517  0.00  0.00    -0.295 N 
ATOM     19  C   UNL     1      35.374 -19.793 -21.690  0.00  0.00    +0.246 C 
ATOM     20  H   UNL     1      35.520 -18.057 -20.607  0.00  0.00    +0.150 HD
BRANCH  19  21
ATOM     21  C   UNL     1      35.480 -20.607 -20.451  0.00  0.00    +0.053 C 
ATOM     22  C   UNL     1      34.359 -21.273 -19.956  0.00  0.00    +0.005 C 
ATOM     23  C   UNL     1      36.701 -20.705 -19.785  0.00  0.00    +0.005 C 
ATOM     24  C   UNL     1      35.680 -22.135 -18.126  0.00  0.00    +0.000 C 
ATOM     25  C   UNL     1      34.459 -22.037 -18.793  0.00  0.00    +0.000 C 
ATOM     26  C   UNL     1      36.802 -21.469 -18.621  0.00  0.00    +0.000 C 
BRANCH  24  27
ATOM     27  C   UNL     1      35.784 -22.927 -16.920  0.00  0.00    +0.000 C 
ATOM     28  C   UNL     1      37.025 -23.105 -16.307  0.00  0.00    +0.000 C 
ATOM     29  C   UNL     1      34.644 -23.512 -16.368  0.00  0.00    +0.000 C 
ATOM     30  C   UNL     1      37.125 -23.868 -15.143  0.00  0.00    +0.000 C 
ATOM     31  C   UNL     1      34.745 -24.275 -15.205  0.00  0.00    +0.000 C 
ATOM     32  C   UNL     1      35.985 -24.453 -14.593  0.00  0.00    +0.000 C 
ENDBRANCH  24  27
ENDBRANCH  19  21
ENDBRANCH   1  18
BRANCH   1  33
ATOM     33  C   UNL     1      34.289 -18.013 -23.656  0.00  0.00    +0.041 C 
BRANCH  33  34
ATOM     34  C   UNL     1      34.640 -17.661 -25.103  0.00  0.00    +0.112 C 
BRANCH  34  36
ATOM     35  O   UNL     1      32.422 -17.957 -26.065  0.00  0.00    -0.250 OA
ATOM     36  C   UNL     1      33.435 -17.285 -25.937  0.00  0.00    +0.314 C 
BRANCH  36  37
ATOM     37  O   UNL     1      33.595 -16.068 -26.520  0.00  0.00    -0.480 OA
ATOM     38  H   UNL     1      34.379 -15.577 -26.374  0.00  0.00    +0.295 HD
ENDBRANCH  36  37
ENDBRANCH  34  36
ENDBRANCH  33  34
ENDBRANCH   1  33
TORSDOF 11
ENDMDL
MODEL 9
REMARK VINA RESULT:      -9.3     10.083     14.198
REMARK  Name = 16048422
REMARK  11 active torsions:
REMARK  status: ('A' for Active; 'I' for Inactive)
REMARK    1  A    between atoms: C_1  and  C_4
REMARK    2  A    between atoms: C_1  and  N_18
REMARK    3  A    between atoms: C_1  and  C_33
REMARK    4  A    between atoms: N_3  and  C_6
REMARK    5  A    between atoms: C_6  and  C_9
REMARK    6  A    between atoms: C_9  and  C_11
REMARK    7  A    between atoms: C_19  and  C_21
REMARK    8  A    between atoms: C_24  and  C_27
REMARK    9  A    between atoms: C_33  and  C_34
REMARK   10  A    between atoms: C_34  and  C_36
REMARK   11  A    between atoms: C_36  and  O_37
REMARK                            x       y       z     vdW  Elec       q    Type
REMARK                         _______ _______ _______ _____ _____    ______ ____
ROOT
ATOM      1  C   UNL     1      33.345 -12.777 -23.026  0.00  0.00    +0.149 C 
ENDROOT
BRANCH   1   4
ATOM      2  O   UNL     1      33.117 -12.777 -25.435  0.00  0.00    -0.273 OA
ATOM      3  N   UNL     1      33.709 -14.755 -24.372  0.00  0.00    -0.306 N 
ATOM      4  C   UNL     1      33.382 -13.408 -24.413  0.00  0.00    +0.240 C 
ATOM      5  H   UNL     1      33.903 -15.164 -23.497  0.00  0.00    +0.149 HD
BRANCH   3   6
ATOM      6  C   UNL     1      33.778 -15.589 -25.550  0.00  0.00    +0.061 C 
ATOM      7  C   UNL     1      32.425 -16.287 -25.755  0.00  0.00    +0.020 C 
ATOM      8  C   UNL     1      34.049 -14.680 -26.761  0.00  0.00    +0.020 C 
BRANCH   6   9
ATOM      9  C   UNL     1      34.941 -16.609 -25.432  0.00  0.00    +0.044 C 
BRANCH   9  11
ATOM     10  F   UNL     1      35.138 -19.581 -20.642  0.00  0.00    -0.204 F 
ATOM     11  C   UNL     1      34.994 -17.405 -24.147  0.00  0.00    -0.020 C 
ATOM     12  C   UNL     1      35.448 -16.805 -22.973  0.00  0.00    -0.002 C 
ATOM     13  C   UNL     1      34.589 -18.740 -24.138  0.00  0.00    -0.002 C 
ATOM     14  C   UNL     1      35.495 -17.540 -21.788  0.00  0.00    +0.029 C 
ATOM     15  C   UNL     1      34.636 -19.475 -22.953  0.00  0.00    +0.029 C 
ATOM     16  C   UNL     1      35.090 -18.874 -21.779  0.00  0.00    +0.140 C 
ENDBRANCH   9  11
ENDBRANCH   6   9
ENDBRANCH   3   6
ENDBRANCH   1   4
BRANCH   1  18
ATOM     17  O   UNL     1      35.225 -10.744 -23.787  0.00  0.00    -0.270 OA
ATOM     18  N   UNL     1      33.062 -11.380 -23.243  0.00  0.00    -0.295 N 
ATOM     19  C   UNL     1      34.041 -10.469 -23.611  0.00  0.00    +0.246 C 
ATOM     20  H   UNL     1      32.139 -11.060 -23.126  0.00  0.00    +0.150 HD
BRANCH  19  21
ATOM     21  C   UNL     1      33.593  -9.061 -23.769  0.00  0.00    +0.053 C 
ATOM     22  C   UNL     1      34.527  -8.055 -24.013  0.00  0.00    +0.005 C 
ATOM     23  C   UNL     1      32.238  -8.747 -23.674  0.00  0.00    +0.005 C 
ATOM     24  C   UNL     1      32.751  -6.419 -24.066  0.00  0.00    +0.000 C 
ATOM     25  C   UNL     1      34.106  -6.733 -24.161  0.00  0.00    +0.000 C 
ATOM     26  C   UNL     1      31.816  -7.425 -23.822  0.00  0.00    +0.000 C 
BRANCH  24  27
ATOM     27  C   UNL     1      32.313  -5.048 -24.220  0.00  0.00    +0.000 C 
ATOM     28  C   UNL     1      31.534  -4.449 -23.229  0.00  0.00    +0.000 C 
ATOM     29  C   UNL     1      32.672  -4.324 -25.357  0.00  0.00    +0.000 C 
ATOM     30  C   UNL     1      31.113  -3.127 -23.377  0.00  0.00    +0.000 C 
ATOM     31  C   UNL     1      32.250  -3.003 -25.504  0.00  0.00    +0.000 C 
ATOM     32  C   UNL     1      31.471  -2.405 -24.514  0.00  0.00    +0.000 C 
ENDBRANCH  24  27
ENDBRANCH  19  21
ENDBRANCH   1  18
BRANCH   1  33
ATOM     33  C   UNL     1      32.272 -13.417 -22.138  0.00  0.00    +0.041 C 
BRANCH  33  34
ATOM     34  C   UNL     1      32.186 -12.827 -20.729  0.00  0.00    +0.112 C 
BRANCH  34  36
ATOM     35  O   UNL     1      31.731 -10.568 -19.939  0.00  0.00    -0.250 OA
ATOM     36  C   UNL     1      31.456 -11.504 -20.677  0.00  0.00    +0.314 C 
BRANCH  36  37
ATOM     37  O   UNL     1      30.449 -11.456 -21.588  0.00  0.00    -0.480 OA
ATOM     38  H   UNL     1      30.427 -12.070 -22.296  0.00  0.00    +0.295 HD
ENDBRANCH  36  37
ENDBRANCH  34  36
ENDBRANCH  33  34
ENDBRANCH   1  33
TORSDOF 11
ENDMDL
