MODEL 1
REMARK VINA RESULT:     -11.6      0.000      0.000
REMARK  Name = 56842109
REMARK  7 active torsions:
REMARK  status: ('A' for Active; 'I' for Inactive)
REMARK    1  A    between atoms: C_1  and  C_24
REMARK    2  A    between atoms: C_3  and  C_9
REMARK    3  A    between atoms: C_5  and  O_22
REMARK    4  A    between atoms: N_8  and  C_11
REMARK    5  A    between atoms: C_11  and  C_12
REMARK    6  A    between atoms: C_15  and  C_21
REMARK    7  A    between atoms: C_24  and  C_29
REMARK                            x       y       z     vdW  Elec       q    Type
REMARK                         _______ _______ _______ _____ _____    ______ ____
ROOT
ATOM      1  C   UNL     1      33.552 -14.567 -24.885  0.00  0.00    -0.018 C 
ATOM      2  C   UNL     1      34.263 -15.041 -23.782  0.00  0.00    +0.003 C 
ATOM      3  C   UNL     1      34.635 -16.383 -23.717  0.00  0.00    +0.087 C 
ATOM      4  C   UNL     1      33.215 -15.435 -25.922  0.00  0.00    -0.001 C 
ATOM      5  C   UNL     1      34.298 -17.252 -24.754  0.00  0.00    +0.143 C 
ATOM      6  C   UNL     1      33.588 -16.778 -25.857  0.00  0.00    +0.037 C 
ENDROOT
BRANCH   3   9
ATOM      7  O   UNL     1      35.295 -16.260 -21.470  0.00  0.00    -0.270 OA
ATOM      8  N   UNL     1      36.155 -18.008 -22.728  0.00  0.00    -0.297 N 
ATOM      9  C   UNL     1      35.379 -16.857 -22.557  0.00  0.00    +0.249 C 
ATOM     10  H   UNL     1      36.175 -18.429 -23.618  0.00  0.00    +0.150 HD
BRANCH   8  11
ATOM     11  C   UNL     1      36.929 -18.612 -21.668  0.00  0.00    +0.117 C 
BRANCH  11  12
ATOM     12  C   UNL     1      36.160 -19.682 -20.949  0.00  0.00    -0.003 C 
ATOM     13  C   UNL     1      36.827 -20.580 -20.116  0.00  0.00    -0.003 C 
ATOM     14  C   UNL     1      34.778 -19.778 -21.113  0.00  0.00    -0.003 C 
ATOM     15  C   UNL     1      34.731 -21.670 -19.611  0.00  0.00    +0.071 C 
ATOM     16  C   UNL     1      36.113 -21.575 -19.447  0.00  0.00    +0.004 C 
ATOM     17  C   UNL     1      34.064 -20.772 -20.444  0.00  0.00    +0.004 C 
BRANCH  15  21
ATOM     18  F   UNL     1      32.672 -22.373 -18.653  0.00  0.00    -0.166 F 
ATOM     19  F   UNL     1      33.900 -23.913 -19.576  0.00  0.00    -0.166 F 
ATOM     20  F   UNL     1      34.491 -23.054 -17.674  0.00  0.00    -0.166 F 
ATOM     21  C   UNL     1      33.967 -22.731 -18.894  0.00  0.00    +0.419 C 
ENDBRANCH  15  21
ENDBRANCH  11  12
ENDBRANCH   8  11
ENDBRANCH   3   9
BRANCH   5  22
ATOM     22  O   UNL     1      34.656 -18.567 -24.710  0.00  0.00    -0.471 OA
ATOM     23  C   UNL     1      33.905 -19.469 -25.520  0.00  0.00    +0.252 C 
ENDBRANCH   5  22
BRANCH   1  24
ATOM     24  C   UNL     1      33.151 -13.114 -24.955  0.00  0.00    +0.080 C 
BRANCH  24  29
ATOM     25  O   UNL     1      32.819 -11.908 -22.890  0.00  0.00    -0.428 OA
ATOM     26  O   UNL     1      35.155 -10.824 -25.248  0.00  0.00    -0.271 OA
ATOM     27  O   UNL     1      31.996  -9.939 -22.069  0.00  0.00    -0.226 OA
ATOM     28  N   UNL     1      33.636 -10.005 -23.695  0.00  0.00    -0.218 N 
ATOM     29  C   UNL     1      33.803 -12.290 -23.865  0.00  0.00    +0.250 C 
ATOM     30  C   UNL     1      34.310 -10.973 -24.379  0.00  0.00    +0.271 C 
ATOM     31  C   UNL     1      32.750 -10.544 -22.818  0.00  0.00    +0.408 C 
ATOM     32  H   UNL     1      33.774  -9.039 -23.820  0.00  0.00    +0.161 HD
ENDBRANCH  24  29
ENDBRANCH   1  24
TORSDOF 7
ENDMDL
MODEL 2
REMARK VINA RESULT:     -11.5      7.332     12.445
REMARK  Name = 56842109
REMARK  7 active torsions:
REMARK  status: ('A' for Active; 'I' for Inactive)
REMARK    1  A    between atoms: C_1  and  C_24
REMARK    2  A    between atoms: C_3  and  C_9
REMARK    3  A    between atoms: C_5  and  O_22
REMARK    4  A    between atoms: N_8  and  C_11
REMARK    5  A    between atoms: C_11  and  C_12
REMARK    6  A    between atoms: C_15  and  C_21
REMARK    7  A    between atoms: C_24  and  C_29
REMARK                            x       y       z     vdW  Elec       q    Type
REMARK                         _______ _______ _______ _____ _____    ______ ____
ROOT
ATOM      1  C   UNL     1      35.956 -23.981 -14.329  0.00  0.00    -0.018 C 
ATOM      2  C   UNL     1      35.227 -23.658 -15.474  0.00  0.00    +0.003 C 
ATOM      3  C   UNL     1      33.833 -23.643 -15.432  0.00  0.00    +0.087 C 
ATOM      4  C   UNL     1      35.290 -24.286 -13.143  0.00  0.00    -0.001 C 
ATOM      5  C   UNL     1      33.167 -23.949 -14.245  0.00  0.00    +0.143 C 
ATOM      6  C   UNL     1      33.896 -24.271 -13.100  0.00  0.00    +0.037 C 
ENDROOT
BRANCH   3   9
ATOM      7  O   UNL     1      31.854 -23.190 -16.606  0.00  0.00    -0.270 OA
ATOM      8  N   UNL     1      33.838 -23.088 -17.803  0.00  0.00    -0.297 N 
ATOM      9  C   UNL     1      33.091 -23.301 -16.638  0.00  0.00    +0.249 C 
ATOM     10  H   UNL     1      34.815 -23.195 -17.755  0.00  0.00    +0.150 HD
BRANCH   8  11
ATOM     11  C   UNL     1      33.250 -22.722 -19.070  0.00  0.00    +0.117 C 
BRANCH  11  12
ATOM     12  C   UNL     1      34.059 -21.679 -19.785  0.00  0.00    -0.003 C 
ATOM     13  C   UNL     1      33.424 -20.737 -20.595  0.00  0.00    -0.003 C 
ATOM     14  C   UNL     1      35.446 -21.651 -19.640  0.00  0.00    -0.003 C 
ATOM     15  C   UNL     1      35.561 -19.740 -21.113  0.00  0.00    +0.071 C 
ATOM     16  C   UNL     1      34.175 -19.767 -21.259  0.00  0.00    +0.004 C 
ATOM     17  C   UNL     1      36.197 -20.682 -20.304  0.00  0.00    +0.004 C 
BRANCH  15  21
ATOM     18  F   UNL     1      36.061 -17.435 -21.413  0.00  0.00    -0.166 F 
ATOM     19  F   UNL     1      37.712 -18.832 -21.636  0.00  0.00    -0.166 F 
ATOM     20  F   UNL     1      36.190 -18.703 -23.175  0.00  0.00    -0.166 F 
ATOM     21  C   UNL     1      36.365 -18.702 -21.821  0.00  0.00    +0.419 C 
ENDBRANCH  15  21
ENDBRANCH  11  12
ENDBRANCH   8  11
ENDBRANCH   3   9
BRANCH   5  22
ATOM     22  O   UNL     1      31.806 -23.936 -14.184  0.00  0.00    -0.471 OA
ATOM     23  C   UNL     1      31.181 -24.994 -13.459  0.00  0.00    +0.252 C 
ENDBRANCH   5  22
BRANCH   1  24
ATOM     24  C   UNL     1      37.464 -23.996 -14.375  0.00  0.00    +0.080 C 
BRANCH  24  29
ATOM     25  O   UNL     1      39.470 -25.082 -13.582  0.00  0.00    -0.428 OA
ATOM     26  O   UNL     1      36.787 -26.945 -14.816  0.00  0.00    -0.271 OA
ATOM     27  O   UNL     1      41.278 -26.276 -14.312  0.00  0.00    -0.226 OA
ATOM     28  N   UNL     1      39.108 -26.937 -14.749  0.00  0.00    -0.218 N 
ATOM     29  C   UNL     1      38.041 -25.209 -13.675  0.00  0.00    +0.250 C 
ATOM     30  C   UNL     1      37.858 -26.465 -14.478  0.00  0.00    +0.271 C 
ATOM     31  C   UNL     1      40.067 -26.127 -14.231  0.00  0.00    +0.408 C 
ATOM     32  H   UNL     1      39.293 -27.760 -15.256  0.00  0.00    +0.161 HD
ENDBRANCH  24  29
ENDBRANCH   1  24
TORSDOF 7
ENDMDL
MODEL 3
REMARK VINA RESULT:     -11.2      7.351     12.133
REMARK  Name = 56842109
REMARK  7 active torsions:
REMARK  status: ('A' for Active; 'I' for Inactive)
REMARK    1  A    between atoms: C_1  and  C_24
REMARK    2  A    between atoms: C_3  and  C_9
REMARK    3  A    between atoms: C_5  and  O_22
REMARK    4  A    between atoms: N_8  and  C_11
REMARK    5  A    between atoms: C_11  and  C_12
REMARK    6  A    between atoms: C_15  and  C_21
REMARK    7  A    between atoms: C_24  and  C_29
REMARK                            x       y       z     vdW  Elec       q    Type
REMARK                         _______ _______ _______ _____ _____    ______ ____
ROOT
ATOM      1  C   UNL     1      35.713 -23.830 -14.392  0.00  0.00    -0.018 C 
ATOM      2  C   UNL     1      35.341 -23.703 -15.731  0.00  0.00    +0.003 C 
ATOM      3  C   UNL     1      33.998 -23.811 -16.094  0.00  0.00    +0.087 C 
ATOM      4  C   UNL     1      34.744 -24.063 -13.418  0.00  0.00    -0.001 C 
ATOM      5  C   UNL     1      33.028 -24.044 -15.119  0.00  0.00    +0.143 C 
ATOM      6  C   UNL     1      33.401 -24.171 -13.781  0.00  0.00    +0.037 C 
ENDROOT
BRANCH   3   9
ATOM      7  O   UNL     1      33.714 -24.645 -18.266  0.00  0.00    -0.270 OA
ATOM      8  N   UNL     1      33.166 -22.420 -17.911  0.00  0.00    -0.297 N 
ATOM      9  C   UNL     1      33.630 -23.674 -17.496  0.00  0.00    +0.249 C 
ATOM     10  H   UNL     1      33.127 -21.695 -17.246  0.00  0.00    +0.150 HD
BRANCH   8  11
ATOM     11  C   UNL     1      32.743 -22.134 -19.262  0.00  0.00    +0.117 C 
BRANCH  11  12
ATOM     12  C   UNL     1      33.712 -21.239 -19.977  0.00  0.00    -0.003 C 
ATOM     13  C   UNL     1      35.081 -21.356 -19.731  0.00  0.00    -0.003 C 
ATOM     14  C   UNL     1      33.247 -20.291 -20.889  0.00  0.00    -0.003 C 
ATOM     15  C   UNL     1      35.517 -19.578 -21.306  0.00  0.00    +0.071 C 
ATOM     16  C   UNL     1      35.983 -20.525 -20.395  0.00  0.00    +0.004 C 
ATOM     17  C   UNL     1      34.149 -19.460 -21.552  0.00  0.00    +0.004 C 
BRANCH  15  21
ATOM     18  F   UNL     1      36.459 -18.871 -23.372  0.00  0.00    -0.166 F 
ATOM     19  F   UNL     1      36.248 -17.359 -21.823  0.00  0.00    -0.166 F 
ATOM     20  F   UNL     1      37.781 -18.883 -21.645  0.00  0.00    -0.166 F 
ATOM     21  C   UNL     1      36.481 -18.691 -22.019  0.00  0.00    +0.419 C 
ENDBRANCH  15  21
ENDBRANCH  11  12
ENDBRANCH   8  11
ENDBRANCH   3   9
BRANCH   5  22
ATOM     22  O   UNL     1      31.711 -24.149 -15.454  0.00  0.00    -0.471 OA
ATOM     23  C   UNL     1      30.800 -23.291 -14.770  0.00  0.00    +0.252 C 
ENDBRANCH   5  22
BRANCH   1  24
ATOM     24  C   UNL     1      37.165 -23.712 -14.000  0.00  0.00    +0.080 C 
BRANCH  24  29
ATOM     25  O   UNL     1      37.637 -25.611 -15.415  0.00  0.00    -0.428 OA
ATOM     26  O   UNL     1      37.365 -25.974 -11.953  0.00  0.00    -0.271 OA
ATOM     27  O   UNL     1      36.711 -27.552 -16.190  0.00  0.00    -0.226 OA
ATOM     28  N   UNL     1      36.895 -27.090 -13.934  0.00  0.00    -0.218 N 
ATOM     29  C   UNL     1      37.897 -25.032 -14.126  0.00  0.00    +0.250 C 
ATOM     30  C   UNL     1      37.368 -26.065 -13.171  0.00  0.00    +0.271 C 
ATOM     31  C   UNL     1      37.043 -26.833 -15.259  0.00  0.00    +0.408 C 
ATOM     32  H   UNL     1      36.496 -27.914 -13.571  0.00  0.00    +0.161 HD
ENDBRANCH  24  29
ENDBRANCH   1  24
TORSDOF 7
ENDMDL
MODEL 4
REMARK VINA RESULT:     -11.2      4.419      7.506
REMARK  Name = 56842109
REMARK  7 active torsions:
REMARK  status: ('A' for Active; 'I' for Inactive)
REMARK    1  A    between atoms: C_1  and  C_24
REMARK    2  A    between atoms: C_3  and  C_9
REMARK    3  A    between atoms: C_5  and  O_22
REMARK    4  A    between atoms: N_8  and  C_11
REMARK    5  A    between atoms: C_11  and  C_12
REMARK    6  A    between atoms: C_15  and  C_21
REMARK    7  A    between atoms: C_24  and  C_29
REMARK                            x       y       z     vdW  Elec       q    Type
REMARK                         _______ _______ _______ _____ _____    ______ ____
ROOT
ATOM      1  C   UNL     1      34.926 -20.182 -21.071  0.00  0.00    -0.018 C 
ATOM      2  C   UNL     1      34.249 -21.188 -20.380  0.00  0.00    +0.003 C 
ATOM      3  C   UNL     1      34.910 -21.926 -19.398  0.00  0.00    +0.087 C 
ATOM      4  C   UNL     1      36.263 -19.915 -20.779  0.00  0.00    -0.001 C 
ATOM      5  C   UNL     1      36.247 -21.658 -19.106  0.00  0.00    +0.143 C 
ATOM      6  C   UNL     1      36.924 -20.652 -19.797  0.00  0.00    +0.037 C 
ENDROOT
BRANCH   3   9
ATOM      7  O   UNL     1      33.809 -23.993 -19.286  0.00  0.00    -0.270 OA
ATOM      8  N   UNL     1      33.960 -22.769 -17.321  0.00  0.00    -0.297 N 
ATOM      9  C   UNL     1      34.185 -22.970 -18.688  0.00  0.00    +0.249 C 
ATOM     10  H   UNL     1      34.285 -21.934 -16.914  0.00  0.00    +0.150 HD
BRANCH   8  11
ATOM     11  C   UNL     1      33.277 -23.722 -16.477  0.00  0.00    +0.117 C 
BRANCH  11  12
ATOM     12  C   UNL     1      34.083 -24.076 -15.262  0.00  0.00    -0.003 C 
ATOM     13  C   UNL     1      35.416 -24.463 -15.398  0.00  0.00    -0.003 C 
ATOM     14  C   UNL     1      33.500 -24.018 -13.996  0.00  0.00    -0.003 C 
ATOM     15  C   UNL     1      35.583 -24.733 -13.004  0.00  0.00    +0.071 C 
ATOM     16  C   UNL     1      36.167 -24.792 -14.269  0.00  0.00    +0.004 C 
ATOM     17  C   UNL     1      34.250 -24.347 -12.867  0.00  0.00    +0.004 C 
BRANCH  15  21
ATOM     18  F   UNL     1      37.040 -26.273 -11.927  0.00  0.00    -0.166 F 
ATOM     19  F   UNL     1      37.354 -24.164 -11.498  0.00  0.00    -0.166 F 
ATOM     20  F   UNL     1      35.641 -25.196 -10.658  0.00  0.00    -0.166 F 
ATOM     21  C   UNL     1      36.386 -25.082 -11.797  0.00  0.00    +0.419 C 
ENDBRANCH  15  21
ENDBRANCH  11  12
ENDBRANCH   8  11
ENDBRANCH   3   9
BRANCH   5  22
ATOM     22  O   UNL     1      36.909 -22.366 -18.148  0.00  0.00    -0.471 OA
ATOM     23  C   UNL     1      37.215 -21.683 -16.934  0.00  0.00    +0.252 C 
ENDBRANCH   5  22
BRANCH   1  24
ATOM     24  C   UNL     1      34.210 -19.384 -22.132  0.00  0.00    +0.080 C 
BRANCH  24  29
ATOM     25  O   UNL     1      35.397 -17.298 -22.402  0.00  0.00    -0.428 OA
ATOM     26  O   UNL     1      34.221 -19.067 -25.173  0.00  0.00    -0.271 OA
ATOM     27  O   UNL     1      35.092 -15.123 -23.038  0.00  0.00    -0.226 OA
ATOM     28  N   UNL     1      34.542 -16.897 -24.412  0.00  0.00    -0.218 N 
ATOM     29  C   UNL     1      35.171 -18.589 -22.991  0.00  0.00    +0.250 C 
ATOM     30  C   UNL     1      34.586 -18.257 -24.335  0.00  0.00    +0.271 C 
ATOM     31  C   UNL     1      35.012 -16.320 -23.276  0.00  0.00    +0.408 C 
ATOM     32  H   UNL     1      34.210 -16.396 -25.192  0.00  0.00    +0.161 HD
ENDBRANCH  24  29
ENDBRANCH   1  24
TORSDOF 7
ENDMDL
MODEL 5
REMARK VINA RESULT:     -11.1      5.861     10.863
REMARK  Name = 56842109
REMARK  7 active torsions:
REMARK  status: ('A' for Active; 'I' for Inactive)
REMARK    1  A    between atoms: C_1  and  C_24
REMARK    2  A    between atoms: C_3  and  C_9
REMARK    3  A    between atoms: C_5  and  O_22
REMARK    4  A    between atoms: N_8  and  C_11
REMARK    5  A    between atoms: C_11  and  C_12
REMARK    6  A    between atoms: C_15  and  C_21
REMARK    7  A    between atoms: C_24  and  C_29
REMARK                            x       y       z     vdW  Elec       q    Type
REMARK                         _______ _______ _______ _____ _____    ______ ____
ROOT
ATOM      1  C   UNL     1      34.803 -23.159 -16.704  0.00  0.00    -0.018 C 
ATOM      2  C   UNL     1      35.719 -22.522 -17.541  0.00  0.00    +0.003 C 
ATOM      3  C   UNL     1      35.302 -22.009 -18.769  0.00  0.00    +0.087 C 
ATOM      4  C   UNL     1      33.470 -23.281 -17.095  0.00  0.00    -0.001 C 
ATOM      5  C   UNL     1      33.970 -22.131 -19.161  0.00  0.00    +0.143 C 
ATOM      6  C   UNL     1      33.053 -22.768 -18.323  0.00  0.00    +0.037 C 
ENDROOT
BRANCH   3   9
ATOM      7  O   UNL     1      37.375 -21.877 -19.857  0.00  0.00    -0.270 OA
ATOM      8  N   UNL     1      35.899 -20.119 -20.183  0.00  0.00    -0.297 N 
ATOM      9  C   UNL     1      36.276 -21.347 -19.627  0.00  0.00    +0.249 C 
ATOM     10  H   UNL     1      35.012 -19.757 -19.956  0.00  0.00    +0.150 HD
BRANCH   8  11
ATOM     11  C   UNL     1      36.744 -19.353 -21.070  0.00  0.00    +0.117 C 
BRANCH  11  12
ATOM     12  C   UNL     1      35.958 -18.698 -22.168  0.00  0.00    -0.003 C 
ATOM     13  C   UNL     1      35.236 -19.479 -23.070  0.00  0.00    -0.003 C 
ATOM     14  C   UNL     1      35.950 -17.308 -22.288  0.00  0.00    -0.003 C 
ATOM     15  C   UNL     1      34.496 -17.482 -24.209  0.00  0.00    +0.071 C 
ATOM     16  C   UNL     1      34.504 -18.872 -24.091  0.00  0.00    +0.004 C 
ATOM     17  C   UNL     1      35.220 -16.700 -23.308  0.00  0.00    +0.004 C 
BRANCH  15  21
ATOM     18  F   UNL     1      32.770 -17.661 -25.835  0.00  0.00    -0.166 F 
ATOM     19  F   UNL     1      33.032 -15.718 -24.894  0.00  0.00    -0.166 F 
ATOM     20  F   UNL     1      34.478 -16.418 -26.352  0.00  0.00    -0.166 F 
ATOM     21  C   UNL     1      33.713 -16.832 -25.299  0.00  0.00    +0.419 C 
ENDBRANCH  15  21
ENDBRANCH  11  12
ENDBRANCH   8  11
ENDBRANCH   3   9
BRANCH   5  22
ATOM     22  O   UNL     1      33.543 -21.634 -20.355  0.00  0.00    -0.471 OA
ATOM     23  C   UNL     1      32.499 -20.662 -20.315  0.00  0.00    +0.252 C 
ENDBRANCH   5  22
BRANCH   1  24
ATOM     24  C   UNL     1      35.254 -23.713 -15.375  0.00  0.00    +0.080 C 
BRANCH  24  29
ATOM     25  O   UNL     1      36.715 -25.632 -15.503  0.00  0.00    -0.428 OA
ATOM     26  O   UNL     1      37.616 -22.808 -13.658  0.00  0.00    -0.271 OA
ATOM     27  O   UNL     1      37.558 -27.339 -14.238  0.00  0.00    -0.226 OA
ATOM     28  N   UNL     1      37.796 -25.123 -13.631  0.00  0.00    -0.218 N 
ATOM     29  C   UNL     1      36.688 -24.197 -15.418  0.00  0.00    +0.250 C 
ATOM     30  C   UNL     1      37.419 -23.914 -14.137  0.00  0.00    +0.271 C 
ATOM     31  C   UNL     1      37.382 -26.144 -14.425  0.00  0.00    +0.408 C 
ATOM     32  H   UNL     1      38.304 -25.241 -12.796  0.00  0.00    +0.161 HD
ENDBRANCH  24  29
ENDBRANCH   1  24
TORSDOF 7
ENDMDL
MODEL 6
REMARK VINA RESULT:     -11.0      1.503      2.265
REMARK  Name = 56842109
REMARK  7 active torsions:
REMARK  status: ('A' for Active; 'I' for Inactive)
REMARK    1  A    between atoms: C_1  and  C_24
REMARK    2  A    between atoms: C_3  and  C_9
REMARK    3  A    between atoms: C_5  and  O_22
REMARK    4  A    between atoms: N_8  and  C_11
REMARK    5  A    between atoms: C_11  and  C_12
REMARK    6  A    between atoms: C_15  and  C_21
REMARK    7  A    between atoms: C_24  and  C_29
REMARK                            x       y       z     vdW  Elec       q    Type
REMARK                         _______ _______ _______ _____ _____    ______ ____
ROOT
ATOM      1  C   UNL     1      34.047 -14.733 -23.604  0.00  0.00    -0.018 C 
ATOM      2  C   UNL     1      34.762 -15.842 -23.152  0.00  0.00    +0.003 C 
ATOM      3  C   UNL     1      34.798 -17.008 -23.917  0.00  0.00    +0.087 C 
ATOM      4  C   UNL     1      33.369 -14.790 -24.821  0.00  0.00    -0.001 C 
ATOM      5  C   UNL     1      34.121 -17.065 -25.135  0.00  0.00    +0.143 C 
ATOM      6  C   UNL     1      33.406 -15.956 -25.587  0.00  0.00    +0.037 C 
ENDROOT
BRANCH   3   9
ATOM      7  O   UNL     1      35.608 -19.201 -24.093  0.00  0.00    -0.270 OA
ATOM      8  N   UNL     1      36.214 -18.001 -22.204  0.00  0.00    -0.297 N 
ATOM      9  C   UNL     1      35.553 -18.154 -23.427  0.00  0.00    +0.249 C 
ATOM     10  H   UNL     1      36.126 -17.143 -21.730  0.00  0.00    +0.150 HD
BRANCH   8  11
ATOM     11  C   UNL     1      37.020 -19.037 -21.599  0.00  0.00    +0.117 C 
BRANCH  11  12
ATOM     12  C   UNL     1      36.190 -20.002 -20.803  0.00  0.00    -0.003 C 
ATOM     13  C   UNL     1      34.802 -20.006 -20.941  0.00  0.00    -0.003 C 
ATOM     14  C   UNL     1      36.806 -20.895 -19.926  0.00  0.00    -0.003 C 
ATOM     15  C   UNL     1      34.646 -21.794 -19.326  0.00  0.00    +0.071 C 
ATOM     16  C   UNL     1      34.029 -20.902 -20.202  0.00  0.00    +0.004 C 
ATOM     17  C   UNL     1      36.034 -21.791 -19.187  0.00  0.00    +0.004 C 
BRANCH  15  21
ATOM     18  F   UNL     1      33.704 -23.970 -19.148  0.00  0.00    -0.166 F 
ATOM     19  F   UNL     1      34.323 -23.016 -17.294  0.00  0.00    -0.166 F 
ATOM     20  F   UNL     1      32.541 -22.329 -18.322  0.00  0.00    -0.166 F 
ATOM     21  C   UNL     1      33.821 -22.755 -18.538  0.00  0.00    +0.419 C 
ENDBRANCH  15  21
ENDBRANCH  11  12
ENDBRANCH   8  11
ENDBRANCH   3   9
BRANCH   5  22
ATOM     22  O   UNL     1      34.147 -18.194 -25.898  0.00  0.00    -0.471 OA
ATOM     23  C   UNL     1      32.973 -19.004 -25.896  0.00  0.00    +0.252 C 
ENDBRANCH   5  22
BRANCH   1  24
ATOM     24  C   UNL     1      34.008 -13.472 -22.776  0.00  0.00    +0.080 C 
BRANCH  24  29
ATOM     25  O   UNL     1      32.616 -11.502 -22.879  0.00  0.00    -0.428 OA
ATOM     26  O   UNL     1      31.922 -14.075 -20.624  0.00  0.00    -0.271 OA
ATOM     27  O   UNL     1      32.050  -9.634 -21.688  0.00  0.00    -0.226 OA
ATOM     28  N   UNL     1      31.833 -11.763 -20.817  0.00  0.00    -0.218 N 
ATOM     29  C   UNL     1      32.604 -12.920 -22.646  0.00  0.00    +0.250 C 
ATOM     30  C   UNL     1      32.079 -13.035 -21.243  0.00  0.00    +0.271 C 
ATOM     31  C   UNL     1      32.151 -10.850 -21.771  0.00  0.00    +0.408 C 
ATOM     32  H   UNL     1      31.470 -11.535 -19.931  0.00  0.00    +0.161 HD
ENDBRANCH  24  29
ENDBRANCH   1  24
TORSDOF 7
ENDMDL
MODEL 7
REMARK VINA RESULT:     -11.0      2.008      3.212
REMARK  Name = 56842109
REMARK  7 active torsions:
REMARK  status: ('A' for Active; 'I' for Inactive)
REMARK    1  A    between atoms: C_1  and  C_24
REMARK    2  A    between atoms: C_3  and  C_9
REMARK    3  A    between atoms: C_5  and  O_22
REMARK    4  A    between atoms: N_8  and  C_11
REMARK    5  A    between atoms: C_11  and  C_12
REMARK    6  A    between atoms: C_15  and  C_21
REMARK    7  A    between atoms: C_24  and  C_29
REMARK                            x       y       z     vdW  Elec       q    Type
REMARK                         _______ _______ _______ _____ _____    ______ ____
ROOT
ATOM      1  C   UNL     1      34.799 -16.006 -22.646  0.00  0.00    -0.018 C 
ATOM      2  C   UNL     1      35.356 -16.932 -21.764  0.00  0.00    +0.003 C 
ATOM      3  C   UNL     1      35.539 -18.255 -22.166  0.00  0.00    +0.087 C 
ATOM      4  C   UNL     1      34.426 -16.403 -23.930  0.00  0.00    -0.001 C 
ATOM      5  C   UNL     1      35.165 -18.652 -23.450  0.00  0.00    +0.143 C 
ATOM      6  C   UNL     1      34.609 -17.726 -24.332  0.00  0.00    +0.037 C 
ENDROOT
BRANCH   3   9
ATOM      7  O   UNL     1      37.165 -18.922 -20.615  0.00  0.00    -0.270 OA
ATOM      8  N   UNL     1      35.447 -20.418 -21.051  0.00  0.00    -0.297 N 
ATOM      9  C   UNL     1      36.124 -19.206 -21.230  0.00  0.00    +0.249 C 
ATOM     10  H   UNL     1      34.627 -20.575 -21.573  0.00  0.00    +0.150 HD
BRANCH   8  11
ATOM     11  C   UNL     1      35.889 -21.450 -20.142  0.00  0.00    +0.117 C 
BRANCH  11  12
ATOM     12  C   UNL     1      34.787 -21.905 -19.230  0.00  0.00    -0.003 C 
ATOM     13  C   UNL     1      33.461 -21.591 -19.529  0.00  0.00    -0.003 C 
ATOM     14  C   UNL     1      35.088 -22.643 -18.085  0.00  0.00    -0.003 C 
ATOM     15  C   UNL     1      32.737 -22.751 -17.538  0.00  0.00    +0.071 C 
ATOM     16  C   UNL     1      32.436 -22.014 -18.683  0.00  0.00    +0.004 C 
ATOM     17  C   UNL     1      34.063 -23.065 -17.239  0.00  0.00    +0.004 C 
BRANCH  15  21
ATOM     18  F   UNL     1      31.609 -24.563 -16.490  0.00  0.00    -0.166 F 
ATOM     19  F   UNL     1      31.734 -22.705 -15.366  0.00  0.00    -0.166 F 
ATOM     20  F   UNL     1      30.394 -22.853 -17.065  0.00  0.00    -0.166 F 
ATOM     21  C   UNL     1      31.641 -23.206 -16.635  0.00  0.00    +0.419 C 
ENDBRANCH  15  21
ENDBRANCH  11  12
ENDBRANCH   8  11
ENDBRANCH   3   9
BRANCH   5  22
ATOM     22  O   UNL     1      35.339 -19.940 -23.862  0.00  0.00    -0.471 OA
ATOM     23  C   UNL     1      34.644 -20.341 -25.042  0.00  0.00    +0.252 C 
ENDBRANCH   5  22
BRANCH   1  24
ATOM     24  C   UNL     1      34.603 -14.575 -22.211  0.00  0.00    +0.080 C 
BRANCH  24  29
ATOM     25  O   UNL     1      33.865 -12.917 -23.805  0.00  0.00    -0.428 OA
ATOM     26  O   UNL     1      31.975 -13.639 -20.959  0.00  0.00    -0.271 OA
ATOM     27  O   UNL     1      33.555 -10.665 -24.046  0.00  0.00    -0.226 OA
ATOM     28  N   UNL     1      32.565 -11.869 -22.340  0.00  0.00    -0.218 N 
ATOM     29  C   UNL     1      33.413 -13.931 -22.892  0.00  0.00    +0.250 C 
ATOM     30  C   UNL     1      32.554 -13.167 -21.925  0.00  0.00    +0.271 C 
ATOM     31  C   UNL     1      33.339 -11.708 -23.445  0.00  0.00    +0.408 C 
ATOM     32  H   UNL     1      32.075 -11.140 -21.896  0.00  0.00    +0.161 HD
ENDBRANCH  24  29
ENDBRANCH   1  24
TORSDOF 7
ENDMDL
MODEL 8
REMARK VINA RESULT:     -10.8      7.210     11.255
REMARK  Name = 56842109
REMARK  7 active torsions:
REMARK  status: ('A' for Active; 'I' for Inactive)
REMARK    1  A    between atoms: C_1  and  C_24
REMARK    2  A    between atoms: C_3  and  C_9
REMARK    3  A    between atoms: C_5  and  O_22
REMARK    4  A    between atoms: N_8  and  C_11
REMARK    5  A    between atoms: C_11  and  C_12
REMARK    6  A    between atoms: C_15  and  C_21
REMARK    7  A    between atoms: C_24  and  C_29
REMARK                            x       y       z     vdW  Elec       q    Type
REMARK                         _______ _______ _______ _____ _____    ______ ____
ROOT
ATOM      1  C   UNL     1      32.128 -23.323 -14.657  0.00  0.00    -0.018 C 
ATOM      2  C   UNL     1      33.253 -23.194 -15.472  0.00  0.00    +0.003 C 
ATOM      3  C   UNL     1      34.498 -23.628 -15.017  0.00  0.00    +0.087 C 
ATOM      4  C   UNL     1      32.249 -23.887 -13.387  0.00  0.00    -0.001 C 
ATOM      5  C   UNL     1      34.619 -24.192 -13.748  0.00  0.00    +0.143 C 
ATOM      6  C   UNL     1      33.495 -24.321 -12.932  0.00  0.00    +0.037 C 
ENDROOT
BRANCH   3   9
ATOM      7  O   UNL     1      36.652 -24.215 -15.732  0.00  0.00    -0.270 OA
ATOM      8  N   UNL     1      35.581 -22.519 -16.894  0.00  0.00    -0.297 N 
ATOM      9  C   UNL     1      35.659 -23.486 -15.886  0.00  0.00    +0.249 C 
ATOM     10  H   UNL     1      34.763 -21.975 -16.957  0.00  0.00    +0.150 HD
BRANCH   8  11
ATOM     11  C   UNL     1      36.640 -22.274 -17.847  0.00  0.00    +0.117 C 
BRANCH  11  12
ATOM     12  C   UNL     1      36.152 -21.516 -19.047  0.00  0.00    -0.003 C 
ATOM     13  C   UNL     1      37.025 -20.686 -19.750  0.00  0.00    -0.003 C 
ATOM     14  C   UNL     1      34.825 -21.641 -19.460  0.00  0.00    -0.003 C 
ATOM     15  C   UNL     1      35.247 -20.106 -21.277  0.00  0.00    +0.071 C 
ATOM     16  C   UNL     1      36.574 -19.980 -20.865  0.00  0.00    +0.004 C 
ATOM     17  C   UNL     1      34.373 -20.936 -20.575  0.00  0.00    +0.004 C 
BRANCH  15  21
ATOM     18  F   UNL     1      35.360 -19.767 -23.628  0.00  0.00    -0.166 F 
ATOM     19  F   UNL     1      33.420 -19.477 -22.689  0.00  0.00    -0.166 F 
ATOM     20  F   UNL     1      34.992 -18.010 -22.401  0.00  0.00    -0.166 F 
ATOM     21  C   UNL     1      34.764 -19.355 -22.471  0.00  0.00    +0.419 C 
ENDBRANCH  15  21
ENDBRANCH  11  12
ENDBRANCH   8  11
ENDBRANCH   3   9
BRANCH   5  22
ATOM     22  O   UNL     1      35.826 -24.625 -13.287  0.00  0.00    -0.471 OA
ATOM     23  C   UNL     1      36.332 -23.999 -12.109  0.00  0.00    +0.252 C 
ENDBRANCH   5  22
BRANCH   1  24
ATOM     24  C   UNL     1      30.782 -22.853 -15.150  0.00  0.00    +0.080 C 
BRANCH  24  29
ATOM     25  O   UNL     1      29.409 -22.841 -17.137  0.00  0.00    -0.428 OA
ATOM     26  O   UNL     1      29.835 -25.758 -15.265  0.00  0.00    -0.271 OA
ATOM     27  O   UNL     1      27.235 -23.007 -17.822  0.00  0.00    -0.226 OA
ATOM     28  N   UNL     1      28.244 -24.631 -16.525  0.00  0.00    -0.218 N 
ATOM     29  C   UNL     1      30.311 -23.642 -16.354  0.00  0.00    +0.250 C 
ATOM     30  C   UNL     1      29.470 -24.824 -15.962  0.00  0.00    +0.271 C 
ATOM     31  C   UNL     1      28.194 -23.462 -17.216  0.00  0.00    +0.408 C 
ATOM     32  H   UNL     1      27.490 -25.258 -16.442  0.00  0.00    +0.161 HD
ENDBRANCH  24  29
ENDBRANCH   1  24
TORSDOF 7
ENDMDL
MODEL 9
REMARK VINA RESULT:     -10.8      3.465      6.133
REMARK  Name = 56842109
REMARK  7 active torsions:
REMARK  status: ('A' for Active; 'I' for Inactive)
REMARK    1  A    between atoms: C_1  and  C_24
REMARK    2  A    between atoms: C_3  and  C_9
REMARK    3  A    between atoms: C_5  and  O_22
REMARK    4  A    between atoms: N_8  and  C_11
REMARK    5  A    between atoms: C_11  and  C_12
REMARK    6  A    between atoms: C_15  and  C_21
REMARK    7  A    between atoms: C_24  and  C_29
REMARK                            x       y       z     vdW  Elec       q    Type
REMARK                         _______ _______ _______ _____ _____    ______ ____
ROOT
ATOM      1  C   UNL     1      32.407  -9.095 -22.763  0.00  0.00    -0.018 C 
ATOM      2  C   UNL     1      33.013 -10.036 -23.595  0.00  0.00    +0.003 C 
ATOM      3  C   UNL     1      32.869 -11.398 -23.328  0.00  0.00    +0.087 C 
ATOM      4  C   UNL     1      31.657  -9.515 -21.666  0.00  0.00    -0.001 C 
ATOM      5  C   UNL     1      32.119 -11.819 -22.231  0.00  0.00    +0.143 C 
ATOM      6  C   UNL     1      31.513 -10.877 -21.399  0.00  0.00    +0.037 C 
ENDROOT
BRANCH   3   9
ATOM      7  O   UNL     1      34.560 -12.073 -24.805  0.00  0.00    -0.270 OA
ATOM      8  N   UNL     1      32.898 -13.618 -24.329  0.00  0.00    -0.297 N 
ATOM      9  C   UNL     1      33.509 -12.364 -24.211  0.00  0.00    +0.249 C 
ATOM     10  H   UNL     1      32.065 -13.779 -23.828  0.00  0.00    +0.150 HD
BRANCH   8  11
ATOM     11  C   UNL     1      33.424 -14.687 -25.146  0.00  0.00    +0.117 C 
BRANCH  11  12
ATOM     12  C   UNL     1      34.135 -15.723 -24.326  0.00  0.00    -0.003 C 
ATOM     13  C   UNL     1      34.618 -15.398 -23.058  0.00  0.00    -0.003 C 
ATOM     14  C   UNL     1      34.315 -17.011 -24.830  0.00  0.00    -0.003 C 
ATOM     15  C   UNL     1      35.458 -17.647 -22.799  0.00  0.00    +0.071 C 
ATOM     16  C   UNL     1      35.279 -16.359 -22.294  0.00  0.00    +0.004 C 
ATOM     17  C   UNL     1      34.977 -17.973 -24.068  0.00  0.00    +0.004 C 
BRANCH  15  21
ATOM     18  F   UNL     1      37.491 -18.767 -22.284  0.00  0.00    -0.166 F 
ATOM     19  F   UNL     1      36.108 -18.440 -20.638  0.00  0.00    -0.166 F 
ATOM     20  F   UNL     1      35.664 -19.938 -22.142  0.00  0.00    -0.166 F 
ATOM     21  C   UNL     1      36.163 -18.677 -21.982  0.00  0.00    +0.419 C 
ENDBRANCH  15  21
ENDBRANCH  11  12
ENDBRANCH   8  11
ENDBRANCH   3   9
BRANCH   5  22
ATOM     22  O   UNL     1      31.965 -13.144 -21.955  0.00  0.00    -0.471 OA
ATOM     23  C   UNL     1      32.367 -13.588 -20.661  0.00  0.00    +0.252 C 
ENDBRANCH   5  22
BRANCH   1  24
ATOM     24  C   UNL     1      32.562  -7.622 -23.053  0.00  0.00    +0.080 C 
BRANCH  24  29
ATOM     25  O   UNL     1      30.892  -5.959 -23.578  0.00  0.00    -0.428 OA
ATOM     26  O   UNL     1      32.303  -6.144 -20.389  0.00  0.00    -0.271 OA
ATOM     27  O   UNL     1      30.624  -3.707 -23.870  0.00  0.00    -0.226 OA
ATOM     28  N   UNL     1      31.510  -4.601 -21.932  0.00  0.00    -0.218 N 
ATOM     29  C   UNL     1      31.390  -6.815 -22.536  0.00  0.00    +0.250 C 
ATOM     30  C   UNL     1      31.800  -5.847 -21.462  0.00  0.00    +0.271 C 
ATOM     31  C   UNL     1      30.979  -4.653 -23.181  0.00  0.00    +0.408 C 
ATOM     32  H   UNL     1      31.665  -3.768 -21.430  0.00  0.00    +0.161 HD
ENDBRANCH  24  29
ENDBRANCH   1  24
TORSDOF 7
ENDMDL
