MODEL 1
REMARK VINA RESULT:     -11.6      0.000      0.000
REMARK  Name = 11610526
REMARK  3 active torsions:
REMARK  status: ('A' for Active; 'I' for Inactive)
REMARK    1  A    between atoms: C_2  and  C_21
REMARK    2  A    between atoms: C_9  and  C_14
REMARK    3  A    between atoms: C_21  and  C_23
REMARK                            x       y       z     vdW  Elec       q    Type
REMARK                         _______ _______ _______ _____ _____    ______ ____
ROOT
ATOM      1  N   UNL     1      35.046 -16.915 -22.698  0.00  0.00    -0.388 NA
ATOM      2  C   UNL     1      35.299 -18.197 -22.973  0.00  0.00    +0.167 C 
ATOM      3  C   UNL     1      35.022 -18.855 -24.139  0.00  0.00    +0.031 C 
ATOM      4  C   UNL     1      34.453 -16.224 -23.696  0.00  0.00    +0.167 C 
ATOM      5  C   UNL     1      34.413 -18.111 -25.143  0.00  0.00    -0.015 C 
ATOM      6  C   UNL     1      34.119 -16.769 -24.925  0.00  0.00    +0.101 C 
ATOM      7  O   UNL     1      33.162 -14.221 -25.516  0.00  0.00    -0.270 OA
ATOM      8  N   UNL     1      34.154 -14.872 -23.487  0.00  0.00    -0.259 N 
ATOM      9  C   UNL     1      33.547 -13.980 -24.376  0.00  0.00    +0.255 C 
ATOM     10  H   UNL     1      34.399 -14.506 -22.607  0.00  0.00    +0.157 HD
ENDROOT
BRANCH   9  14
ATOM     11  F   UNL     1      31.942 -13.375 -22.157  0.00  0.00    -0.204 F 
ATOM     12  F   UNL     1      34.832 -11.797 -25.581  0.00  0.00    -0.204 F 
ATOM     13  F   UNL     1      32.948  -8.764 -22.478  0.00  0.00    -0.204 F 
ATOM     14  C   UNL     1      33.388 -12.592 -23.871  0.00  0.00    +0.109 C 
ATOM     15  C   UNL     1      32.581 -12.371 -22.773  0.00  0.00    +0.149 C 
ATOM     16  C   UNL     1      34.051 -11.569 -24.515  0.00  0.00    +0.149 C 
ATOM     17  C   UNL     1      32.431 -11.068 -22.300  0.00  0.00    +0.060 C 
ATOM     18  C   UNL     1      33.900 -10.265 -24.041  0.00  0.00    +0.060 C 
ATOM     19  C   UNL     1      33.091 -10.015 -22.933  0.00  0.00    +0.145 C 
ENDBRANCH   9  14
BRANCH   2  21
ATOM     20  O   UNL     1      36.988 -18.519 -21.358  0.00  0.00    -0.289 OA
ATOM     21  C   UNL     1      35.951 -18.945 -21.861  0.00  0.00    +0.202 C 
BRANCH  21  23
ATOM     22  N   UNL     1      34.096 -21.666 -19.152  0.00  0.00    +0.386 N 
ATOM     23  C   UNL     1      35.325 -20.215 -21.373  0.00  0.00    +0.060 C 
ATOM     24  C   UNL     1      33.896 -19.936 -20.909  0.00  0.00    -0.015 C 
ATOM     25  C   UNL     1      36.149 -20.805 -20.230  0.00  0.00    -0.015 C 
ATOM     26  C   UNL     1      33.271 -21.174 -20.264  0.00  0.00    -0.077 C 
ATOM     27  C   UNL     1      35.448 -22.014 -19.608  0.00  0.00    -0.077 C 
ATOM     28  C   UNL     1      33.459 -22.817 -18.513  0.00  0.00    -0.101 C 
ATOM     29  H   UNL     1      34.179 -20.915 -18.466  0.00  0.00    -0.080 HD
ENDBRANCH  21  23
ENDBRANCH   2  21
TORSDOF 3
ENDMDL
MODEL 2
REMARK VINA RESULT:     -11.5      3.607      6.229
REMARK  Name = 11610526
REMARK  3 active torsions:
REMARK  status: ('A' for Active; 'I' for Inactive)
REMARK    1  A    between atoms: C_2  and  C_21
REMARK    2  A    between atoms: C_9  and  C_14
REMARK    3  A    between atoms: C_21  and  C_23
REMARK                            x       y       z     vdW  Elec       q    Type
REMARK                         _______ _______ _______ _____ _____    ______ ____
ROOT
ATOM      1  N   UNL     1      34.522 -21.420 -20.117  0.00  0.00    -0.388 NA
ATOM      2  C   UNL     1      34.967 -22.160 -19.098  0.00  0.00    +0.167 C 
ATOM      3  C   UNL     1      36.208 -22.106 -18.525  0.00  0.00    +0.031 C 
ATOM      4  C   UNL     1      35.417 -20.537 -20.612  0.00  0.00    +0.167 C 
ATOM      5  C   UNL     1      37.100 -21.184 -19.062  0.00  0.00    -0.015 C 
ATOM      6  C   UNL     1      36.704 -20.381 -20.126  0.00  0.00    +0.101 C 
ATOM      7  O   UNL     1      36.946 -18.429 -22.099  0.00  0.00    -0.270 OA
ATOM      8  N   UNL     1      35.028 -19.722 -21.683  0.00  0.00    -0.259 N 
ATOM      9  C   UNL     1      35.787 -18.751 -22.342  0.00  0.00    +0.255 C 
ATOM     10  H   UNL     1      34.109 -19.850 -22.012  0.00  0.00    +0.157 HD
ENDROOT
BRANCH   9  14
ATOM     11  F   UNL     1      35.426 -15.970 -22.295  0.00  0.00    -0.204 F 
ATOM     12  F   UNL     1      34.732 -20.078 -24.577  0.00  0.00    -0.204 F 
ATOM     13  F   UNL     1      33.136 -16.031 -26.434  0.00  0.00    -0.204 F 
ATOM     14  C   UNL     1      35.082 -18.027 -23.431  0.00  0.00    +0.109 C 
ATOM     15  C   UNL     1      34.942 -16.657 -23.339  0.00  0.00    +0.149 C 
ATOM     16  C   UNL     1      34.589 -18.747 -24.499  0.00  0.00    +0.149 C 
ATOM     17  C   UNL     1      34.279 -15.978 -24.361  0.00  0.00    +0.060 C 
ATOM     18  C   UNL     1      33.926 -18.067 -25.521  0.00  0.00    +0.060 C 
ATOM     19  C   UNL     1      33.771 -16.683 -25.452  0.00  0.00    +0.145 C 
ENDBRANCH   9  14
BRANCH   2  21
ATOM     20  O   UNL     1      33.621 -24.092 -19.244  0.00  0.00    -0.289 OA
ATOM     21  C   UNL     1      33.970 -23.130 -18.564  0.00  0.00    +0.202 C 
BRANCH  21  23
ATOM     22  N   UNL     1      32.035 -24.060 -14.879  0.00  0.00    +0.386 N 
ATOM     23  C   UNL     1      33.405 -22.913 -17.194  0.00  0.00    +0.060 C 
ATOM     24  C   UNL     1      34.116 -23.828 -16.196  0.00  0.00    -0.015 C 
ATOM     25  C   UNL     1      31.903 -23.190 -17.192  0.00  0.00    -0.015 C 
ATOM     26  C   UNL     1      33.468 -23.748 -14.812  0.00  0.00    -0.077 C 
ATOM     27  C   UNL     1      31.331 -23.131 -15.774  0.00  0.00    -0.077 C 
ATOM     28  C   UNL     1      31.442 -24.031 -13.542  0.00  0.00    -0.101 C 
ATOM     29  H   UNL     1      31.935 -25.001 -15.261  0.00  0.00    -0.080 HD
ENDBRANCH  21  23
ENDBRANCH   2  21
TORSDOF 3
ENDMDL
MODEL 3
REMARK VINA RESULT:     -11.5      3.605      6.221
REMARK  Name = 11610526
REMARK  3 active torsions:
REMARK  status: ('A' for Active; 'I' for Inactive)
REMARK    1  A    between atoms: C_2  and  C_21
REMARK    2  A    between atoms: C_9  and  C_14
REMARK    3  A    between atoms: C_21  and  C_23
REMARK                            x       y       z     vdW  Elec       q    Type
REMARK                         _______ _______ _______ _____ _____    ______ ____
ROOT
ATOM      1  N   UNL     1      34.525 -21.420 -20.119  0.00  0.00    -0.388 NA
ATOM      2  C   UNL     1      34.969 -22.160 -19.100  0.00  0.00    +0.167 C 
ATOM      3  C   UNL     1      36.209 -22.103 -18.525  0.00  0.00    +0.031 C 
ATOM      4  C   UNL     1      35.418 -20.534 -20.613  0.00  0.00    +0.167 C 
ATOM      5  C   UNL     1      37.100 -21.179 -19.060  0.00  0.00    -0.015 C 
ATOM      6  C   UNL     1      36.704 -20.375 -20.124  0.00  0.00    +0.101 C 
ATOM      7  O   UNL     1      36.945 -18.423 -22.097  0.00  0.00    -0.270 OA
ATOM      8  N   UNL     1      35.029 -19.720 -21.683  0.00  0.00    -0.259 N 
ATOM      9  C   UNL     1      35.787 -18.747 -22.341  0.00  0.00    +0.255 C 
ATOM     10  H   UNL     1      34.111 -19.850 -22.014  0.00  0.00    +0.157 HD
ENDROOT
BRANCH   9  14
ATOM     11  F   UNL     1      34.736 -20.075 -24.576  0.00  0.00    -0.204 F 
ATOM     12  F   UNL     1      35.421 -15.966 -22.295  0.00  0.00    -0.204 F 
ATOM     13  F   UNL     1      33.138 -16.030 -26.437  0.00  0.00    -0.204 F 
ATOM     14  C   UNL     1      35.082 -18.024 -23.431  0.00  0.00    +0.109 C 
ATOM     15  C   UNL     1      34.591 -18.745 -24.500  0.00  0.00    +0.149 C 
ATOM     16  C   UNL     1      34.940 -16.655 -23.339  0.00  0.00    +0.149 C 
ATOM     17  C   UNL     1      33.930 -18.066 -25.523  0.00  0.00    +0.060 C 
ATOM     18  C   UNL     1      34.279 -15.977 -24.363  0.00  0.00    +0.060 C 
ATOM     19  C   UNL     1      33.774 -16.682 -25.455  0.00  0.00    +0.145 C 
ENDBRANCH   9  14
BRANCH   2  21
ATOM     20  O   UNL     1      33.626 -24.093 -19.250  0.00  0.00    -0.289 OA
ATOM     21  C   UNL     1      33.974 -23.132 -18.568  0.00  0.00    +0.202 C 
BRANCH  21  23
ATOM     22  N   UNL     1      32.030 -24.069 -14.890  0.00  0.00    +0.386 N 
ATOM     23  C   UNL     1      33.408 -22.919 -17.198  0.00  0.00    +0.060 C 
ATOM     24  C   UNL     1      34.114 -23.841 -16.203  0.00  0.00    -0.015 C 
ATOM     25  C   UNL     1      31.905 -23.189 -17.198  0.00  0.00    -0.015 C 
ATOM     26  C   UNL     1      33.465 -23.764 -14.820  0.00  0.00    -0.077 C 
ATOM     27  C   UNL     1      31.331 -23.133 -15.781  0.00  0.00    -0.077 C 
ATOM     28  C   UNL     1      31.436 -24.043 -13.553  0.00  0.00    -0.101 C 
ATOM     29  H   UNL     1      31.926 -25.008 -15.276  0.00  0.00    -0.080 HD
ENDBRANCH  21  23
ENDBRANCH   2  21
TORSDOF 3
ENDMDL
MODEL 4
REMARK VINA RESULT:     -10.9      6.297     11.693
REMARK  Name = 11610526
REMARK  3 active torsions:
REMARK  status: ('A' for Active; 'I' for Inactive)
REMARK    1  A    between atoms: C_2  and  C_21
REMARK    2  A    between atoms: C_9  and  C_14
REMARK    3  A    between atoms: C_21  and  C_23
REMARK                            x       y       z     vdW  Elec       q    Type
REMARK                         _______ _______ _______ _____ _____    ______ ____
ROOT
ATOM      1  N   UNL     1      35.769 -21.761 -18.751  0.00  0.00    -0.388 NA
ATOM      2  C   UNL     1      35.055 -21.164 -19.708  0.00  0.00    +0.167 C 
ATOM      3  C   UNL     1      33.706 -21.268 -19.909  0.00  0.00    +0.031 C 
ATOM      4  C   UNL     1      35.056 -22.542 -17.910  0.00  0.00    +0.167 C 
ATOM      5  C   UNL     1      33.005 -22.080 -19.024  0.00  0.00    -0.015 C 
ATOM      6  C   UNL     1      33.686 -22.733 -18.002  0.00  0.00    +0.101 C 
ATOM      7  O   UNL     1      34.017 -24.376 -15.777  0.00  0.00    -0.270 OA
ATOM      8  N   UNL     1      35.731 -23.203 -16.878  0.00  0.00    -0.259 N 
ATOM      9  C   UNL     1      35.193 -24.052 -15.906  0.00  0.00    +0.255 C 
ATOM     10  H   UNL     1      36.703 -23.054 -16.831  0.00  0.00    +0.157 HD
ENDROOT
BRANCH   9  14
ATOM     11  F   UNL     1      36.400 -22.419 -13.972  0.00  0.00    -0.204 F 
ATOM     12  F   UNL     1      35.946 -26.754 -15.858  0.00  0.00    -0.204 F 
ATOM     13  F   UNL     1      38.860 -26.051 -12.199  0.00  0.00    -0.204 F 
ATOM     14  C   UNL     1      36.169 -24.584 -14.919  0.00  0.00    +0.109 C 
ATOM     15  C   UNL     1      36.722 -23.720 -13.997  0.00  0.00    +0.149 C 
ATOM     16  C   UNL     1      36.490 -25.925 -14.957  0.00  0.00    +0.149 C 
ATOM     17  C   UNL     1      37.638 -24.220 -13.071  0.00  0.00    +0.060 C 
ATOM     18  C   UNL     1      37.407 -26.424 -14.031  0.00  0.00    +0.060 C 
ATOM     19  C   UNL     1      37.981 -25.571 -13.088  0.00  0.00    +0.145 C 
ENDBRANCH   9  14
BRANCH   2  21
ATOM     20  O   UNL     1      37.078 -20.425 -20.669  0.00  0.00    -0.289 OA
ATOM     21  C   UNL     1      35.856 -20.308 -20.627  0.00  0.00    +0.202 C 
BRANCH  21  23
ATOM     22  N   UNL     1      35.260 -17.553 -23.827  0.00  0.00    +0.386 N 
ATOM     23  C   UNL     1      35.150 -19.310 -21.493  0.00  0.00    +0.060 C 
ATOM     24  C   UNL     1      35.058 -19.846 -22.921  0.00  0.00    -0.015 C 
ATOM     25  C   UNL     1      35.891 -17.975 -21.473  0.00  0.00    -0.015 C 
ATOM     26  C   UNL     1      34.478 -18.795 -23.871  0.00  0.00    -0.077 C 
ATOM     27  C   UNL     1      35.283 -16.988 -22.471  0.00  0.00    -0.077 C 
ATOM     28  C   UNL     1      34.725 -16.578 -24.778  0.00  0.00    -0.101 C 
ATOM     29  H   UNL     1      36.220 -17.775 -24.091  0.00  0.00    -0.080 HD
ENDBRANCH  21  23
ENDBRANCH   2  21
TORSDOF 3
ENDMDL
MODEL 5
REMARK VINA RESULT:     -10.5      3.190      5.807
REMARK  Name = 11610526
REMARK  3 active torsions:
REMARK  status: ('A' for Active; 'I' for Inactive)
REMARK    1  A    between atoms: C_2  and  C_21
REMARK    2  A    between atoms: C_9  and  C_14
REMARK    3  A    between atoms: C_21  and  C_23
REMARK                            x       y       z     vdW  Elec       q    Type
REMARK                         _______ _______ _______ _____ _____    ______ ____
ROOT
ATOM      1  N   UNL     1      33.290 -12.090 -23.526  0.00  0.00    -0.388 NA
ATOM      2  C   UNL     1      33.040 -13.273 -22.958  0.00  0.00    +0.167 C 
ATOM      3  C   UNL     1      32.337 -13.497 -21.807  0.00  0.00    +0.031 C 
ATOM      4  C   UNL     1      32.783 -11.024 -22.868  0.00  0.00    +0.167 C 
ATOM      5  C   UNL     1      31.831 -12.376 -21.159  0.00  0.00    -0.015 C 
ATOM      6  C   UNL     1      32.054 -11.111 -21.694  0.00  0.00    +0.101 C 
ATOM      7  O   UNL     1      31.915  -8.334 -21.865  0.00  0.00    -0.270 OA
ATOM      8  N   UNL     1      33.001  -9.747 -23.399  0.00  0.00    -0.259 N 
ATOM      9  C   UNL     1      32.571  -8.519 -22.886  0.00  0.00    +0.255 C 
ATOM     10  H   UNL     1      33.522  -9.708 -24.233  0.00  0.00    +0.157 HD
ENDROOT
BRANCH   9  14
ATOM     11  F   UNL     1      35.236  -7.723 -23.242  0.00  0.00    -0.204 F 
ATOM     12  F   UNL     1      30.644  -6.927 -24.158  0.00  0.00    -0.204 F 
ATOM     13  F   UNL     1      33.952  -4.049 -25.933  0.00  0.00    -0.204 F 
ATOM     14  C   UNL     1      32.939  -7.330 -23.697  0.00  0.00    +0.109 C 
ATOM     15  C   UNL     1      34.272  -6.999 -23.827  0.00  0.00    +0.149 C 
ATOM     16  C   UNL     1      31.936  -6.594 -24.293  0.00  0.00    +0.149 C 
ATOM     17  C   UNL     1      34.616  -5.882 -24.589  0.00  0.00    +0.060 C 
ATOM     18  C   UNL     1      32.281  -5.477 -25.053  0.00  0.00    +0.060 C 
ATOM     19  C   UNL     1      33.622  -5.121 -25.201  0.00  0.00    +0.145 C 
ENDBRANCH   9  14
BRANCH   2  21
ATOM     20  O   UNL     1      33.207 -14.705 -24.825  0.00  0.00    -0.289 OA
ATOM     21  C   UNL     1      33.606 -14.438 -23.694  0.00  0.00    +0.202 C 
BRANCH  21  23
ATOM     22  N   UNL     1      35.352 -17.780 -21.703  0.00  0.00    +0.386 N 
ATOM     23  C   UNL     1      34.662 -15.271 -23.036  0.00  0.00    +0.060 C 
ATOM     24  C   UNL     1      34.833 -16.582 -23.804  0.00  0.00    -0.015 C 
ATOM     25  C   UNL     1      34.285 -15.552 -21.583  0.00  0.00    -0.015 C 
ATOM     26  C   UNL     1      35.794 -17.527 -23.080  0.00  0.00    -0.077 C 
ATOM     27  C   UNL     1      35.265 -16.531 -20.934  0.00  0.00    -0.077 C 
ATOM     28  C   UNL     1      36.252 -18.726 -21.042  0.00  0.00    -0.101 C 
ATOM     29  H   UNL     1      34.418 -18.190 -21.742  0.00  0.00    -0.080 HD
ENDBRANCH  21  23
ENDBRANCH   2  21
TORSDOF 3
ENDMDL
MODEL 6
REMARK VINA RESULT:     -10.5      3.143      5.645
REMARK  Name = 11610526
REMARK  3 active torsions:
REMARK  status: ('A' for Active; 'I' for Inactive)
REMARK    1  A    between atoms: C_2  and  C_21
REMARK    2  A    between atoms: C_9  and  C_14
REMARK    3  A    between atoms: C_21  and  C_23
REMARK                            x       y       z     vdW  Elec       q    Type
REMARK                         _______ _______ _______ _____ _____    ______ ____
ROOT
ATOM      1  N   UNL     1      33.332 -12.153 -23.547  0.00  0.00    -0.388 NA
ATOM      2  C   UNL     1      33.109 -13.347 -22.991  0.00  0.00    +0.167 C 
ATOM      3  C   UNL     1      32.441 -13.595 -21.824  0.00  0.00    +0.031 C 
ATOM      4  C   UNL     1      32.834 -11.102 -22.860  0.00  0.00    +0.167 C 
ATOM      5  C   UNL     1      31.942 -12.489 -21.146  0.00  0.00    -0.015 C 
ATOM      6  C   UNL     1      32.138 -11.214 -21.667  0.00  0.00    +0.101 C 
ATOM      7  O   UNL     1      31.969  -8.437 -21.793  0.00  0.00    -0.270 OA
ATOM      8  N   UNL     1      33.025  -9.815 -23.377  0.00  0.00    -0.259 N 
ATOM      9  C   UNL     1      32.598  -8.600 -22.834  0.00  0.00    +0.255 C 
ATOM     10  H   UNL     1      33.522  -9.759 -24.225  0.00  0.00    +0.157 HD
ENDROOT
BRANCH   9  14
ATOM     11  F   UNL     1      30.622  -7.023 -24.049  0.00  0.00    -0.204 F 
ATOM     12  F   UNL     1      35.243  -7.757 -23.231  0.00  0.00    -0.204 F 
ATOM     13  F   UNL     1      33.852  -4.072 -25.851  0.00  0.00    -0.204 F 
ATOM     14  C   UNL     1      32.931  -7.395 -23.637  0.00  0.00    +0.109 C 
ATOM     15  C   UNL     1      31.905  -6.668 -24.205  0.00  0.00    +0.149 C 
ATOM     16  C   UNL     1      34.256  -7.042 -23.788  0.00  0.00    +0.149 C 
ATOM     17  C   UNL     1      32.219  -5.537 -24.959  0.00  0.00    +0.060 C 
ATOM     18  C   UNL     1      34.569  -5.911 -24.543  0.00  0.00    +0.060 C 
ATOM     19  C   UNL     1      33.550  -5.158 -25.128  0.00  0.00    +0.145 C 
ENDBRANCH   9  14
BRANCH   2  21
ATOM     20  O   UNL     1      33.278 -14.716 -24.905  0.00  0.00    -0.289 OA
ATOM     21  C   UNL     1      33.666 -14.495 -23.760  0.00  0.00    +0.202 C 
BRANCH  21  23
ATOM     22  N   UNL     1      35.298 -17.870 -21.728  0.00  0.00    +0.386 N 
ATOM     23  C   UNL     1      34.699 -15.368 -23.118  0.00  0.00    +0.060 C 
ATOM     24  C   UNL     1      34.759 -16.711 -23.846  0.00  0.00    -0.015 C 
ATOM     25  C   UNL     1      34.370 -15.579 -21.641  0.00  0.00    -0.015 C 
ATOM     26  C   UNL     1      35.694 -17.688 -23.131  0.00  0.00    -0.077 C 
ATOM     27  C   UNL     1      35.319 -16.593 -21.001  0.00  0.00    -0.077 C 
ATOM     28  C   UNL     1      36.169 -18.846 -21.073  0.00  0.00    -0.101 C 
ATOM     29  H   UNL     1      34.341 -18.224 -21.714  0.00  0.00    -0.080 HD
ENDBRANCH  21  23
ENDBRANCH   2  21
TORSDOF 3
ENDMDL
MODEL 7
REMARK VINA RESULT:     -10.2      3.380      8.368
REMARK  Name = 11610526
REMARK  3 active torsions:
REMARK  status: ('A' for Active; 'I' for Inactive)
REMARK    1  A    between atoms: C_2  and  C_21
REMARK    2  A    between atoms: C_9  and  C_14
REMARK    3  A    between atoms: C_21  and  C_23
REMARK                            x       y       z     vdW  Elec       q    Type
REMARK                         _______ _______ _______ _____ _____    ______ ____
ROOT
ATOM      1  N   UNL     1      34.234 -14.858 -23.563  0.00  0.00    -0.388 NA
ATOM      2  C   UNL     1      33.766 -14.003 -24.476  0.00  0.00    +0.167 C 
ATOM      3  C   UNL     1      33.331 -14.307 -25.736  0.00  0.00    +0.031 C 
ATOM      4  C   UNL     1      34.268 -16.150 -23.956  0.00  0.00    +0.167 C 
ATOM      5  C   UNL     1      33.382 -15.647 -26.105  0.00  0.00    -0.015 C 
ATOM      6  C   UNL     1      33.858 -16.592 -25.203  0.00  0.00    +0.101 C 
ATOM      7  O   UNL     1      34.573 -19.117 -24.267  0.00  0.00    -0.270 OA
ATOM      8  N   UNL     1      34.745 -17.110 -23.055  0.00  0.00    -0.259 N 
ATOM      9  C   UNL     1      34.866 -18.488 -23.255  0.00  0.00    +0.255 C 
ATOM     10  H   UNL     1      35.031 -16.773 -22.176  0.00  0.00    +0.157 HD
ENDROOT
BRANCH   9  14
ATOM     11  F   UNL     1      37.549 -18.347 -22.451  0.00  0.00    -0.204 F 
ATOM     12  F   UNL     1      33.223 -20.167 -21.722  0.00  0.00    -0.204 F 
ATOM     13  F   UNL     1      36.812 -21.365 -18.883  0.00  0.00    -0.204 F 
ATOM     14  C   UNL     1      35.384 -19.254 -22.091  0.00  0.00    +0.109 C 
ATOM     15  C   UNL     1      36.717 -19.134 -21.755  0.00  0.00    +0.149 C 
ATOM     16  C   UNL     1      34.516 -20.059 -21.385  0.00  0.00    +0.149 C 
ATOM     17  C   UNL     1      37.203 -19.853 -20.663  0.00  0.00    +0.060 C 
ATOM     18  C   UNL     1      35.003 -20.778 -20.293  0.00  0.00    +0.060 C 
ATOM     19  C   UNL     1      36.346 -20.675 -19.932  0.00  0.00    +0.145 C 
ENDBRANCH   9  14
BRANCH   2  21
ATOM     20  O   UNL     1      34.594 -11.795 -24.417  0.00  0.00    -0.289 OA
ATOM     21  C   UNL     1      33.736 -12.583 -24.027  0.00  0.00    +0.202 C 
BRANCH  21  23
ATOM     22  N   UNL     1      31.931 -10.786 -20.607  0.00  0.00    +0.386 N 
ATOM     23  C   UNL     1      32.649 -12.136 -23.100  0.00  0.00    +0.060 C 
ATOM     24  C   UNL     1      32.693 -10.615 -22.954  0.00  0.00    -0.015 C 
ATOM     25  C   UNL     1      32.810 -12.804 -21.736  0.00  0.00    -0.015 C 
ATOM     26  C   UNL     1      31.696 -10.130 -21.900  0.00  0.00    -0.077 C 
ATOM     27  C   UNL     1      31.808 -12.246 -20.723  0.00  0.00    -0.077 C 
ATOM     28  C   UNL     1      31.005 -10.273 -19.597  0.00  0.00    -0.101 C 
ATOM     29  H   UNL     1      32.885 -10.573 -20.314  0.00  0.00    -0.080 HD
ENDBRANCH  21  23
ENDBRANCH   2  21
TORSDOF 3
ENDMDL
MODEL 8
REMARK VINA RESULT:     -10.2      6.720     10.252
REMARK  Name = 11610526
REMARK  3 active torsions:
REMARK  status: ('A' for Active; 'I' for Inactive)
REMARK    1  A    between atoms: C_2  and  C_21
REMARK    2  A    between atoms: C_9  and  C_14
REMARK    3  A    between atoms: C_21  and  C_23
REMARK                            x       y       z     vdW  Elec       q    Type
REMARK                         _______ _______ _______ _____ _____    ______ ____
ROOT
ATOM      1  N   UNL     1      34.664 -23.562 -15.059  0.00  0.00    -0.388 NA
ATOM      2  C   UNL     1      34.165 -24.281 -14.050  0.00  0.00    +0.167 C 
ATOM      3  C   UNL     1      32.920 -24.844 -13.982  0.00  0.00    +0.031 C 
ATOM      4  C   UNL     1      33.826 -23.390 -16.105  0.00  0.00    +0.167 C 
ATOM      5  C   UNL     1      32.087 -24.646 -15.077  0.00  0.00    -0.015 C 
ATOM      6  C   UNL     1      32.541 -23.905 -16.164  0.00  0.00    +0.101 C 
ATOM      7  O   UNL     1      32.435 -22.689 -18.667  0.00  0.00    -0.270 OA
ATOM      8  N   UNL     1      34.274 -22.647 -17.204  0.00  0.00    -0.259 N 
ATOM      9  C   UNL     1      33.578 -22.349 -18.380  0.00  0.00    +0.255 C 
ATOM     10  H   UNL     1      35.189 -22.290 -17.141  0.00  0.00    +0.157 HD
ENDROOT
BRANCH   9  14
ATOM     11  F   UNL     1      36.376 -22.438 -18.541  0.00  0.00    -0.204 F 
ATOM     12  F   UNL     1      32.304 -20.670 -20.231  0.00  0.00    -0.204 F 
ATOM     13  F   UNL     1      36.431 -19.374 -22.146  0.00  0.00    -0.204 F 
ATOM     14  C   UNL     1      34.338 -21.558 -19.382  0.00  0.00    +0.109 C 
ATOM     15  C   UNL     1      35.714 -21.652 -19.401  0.00  0.00    +0.149 C 
ATOM     16  C   UNL     1      33.642 -20.753 -20.261  0.00  0.00    +0.149 C 
ATOM     17  C   UNL     1      36.426 -20.909 -20.343  0.00  0.00    +0.060 C 
ATOM     18  C   UNL     1      34.356 -20.010 -21.201  0.00  0.00    +0.060 C 
ATOM     19  C   UNL     1      35.748 -20.087 -21.242  0.00  0.00    +0.145 C 
ENDBRANCH   9  14
BRANCH   2  21
ATOM     20  O   UNL     1      34.834 -23.970 -11.810  0.00  0.00    -0.289 OA
ATOM     21  C   UNL     1      35.100 -24.461 -12.904  0.00  0.00    +0.202 C 
BRANCH  21  23
ATOM     22  N   UNL     1      38.934 -25.462 -14.478  0.00  0.00    +0.386 N 
ATOM     23  C   UNL     1      36.360 -25.243 -13.109  0.00  0.00    +0.060 C 
ATOM     24  C   UNL     1      37.564 -24.385 -12.723  0.00  0.00    -0.015 C 
ATOM     25  C   UNL     1      36.473 -25.692 -14.565  0.00  0.00    -0.015 C 
ATOM     26  C   UNL     1      38.879 -25.092 -13.058  0.00  0.00    -0.077 C 
ATOM     27  C   UNL     1      37.824 -26.355 -14.837  0.00  0.00    -0.077 C 
ATOM     28  C   UNL     1      40.218 -26.089 -14.794  0.00  0.00    -0.101 C 
ATOM     29  H   UNL     1      38.843 -24.609 -15.030  0.00  0.00    -0.080 HD
ENDBRANCH  21  23
ENDBRANCH   2  21
TORSDOF 3
ENDMDL
MODEL 9
REMARK VINA RESULT:     -10.2      4.584     11.094
REMARK  Name = 11610526
REMARK  3 active torsions:
REMARK  status: ('A' for Active; 'I' for Inactive)
REMARK    1  A    between atoms: C_2  and  C_21
REMARK    2  A    between atoms: C_9  and  C_14
REMARK    3  A    between atoms: C_21  and  C_23
REMARK                            x       y       z     vdW  Elec       q    Type
REMARK                         _______ _______ _______ _____ _____    ______ ____
ROOT
ATOM      1  N   UNL     1      33.562  -9.393 -23.510  0.00  0.00    -0.388 NA
ATOM      2  C   UNL     1      33.135  -8.198 -23.095  0.00  0.00    +0.167 C 
ATOM      3  C   UNL     1      32.180  -7.954 -22.147  0.00  0.00    +0.031 C 
ATOM      4  C   UNL     1      32.967 -10.450 -22.914  0.00  0.00    +0.167 C 
ATOM      5  C   UNL     1      31.591  -9.066 -21.555  0.00  0.00    -0.015 C 
ATOM      6  C   UNL     1      31.988 -10.342 -21.941  0.00  0.00    +0.101 C 
ATOM      7  O   UNL     1      32.017 -13.128 -21.955  0.00  0.00    -0.270 OA
ATOM      8  N   UNL     1      33.360 -11.739 -23.295  0.00  0.00    -0.259 N 
ATOM      9  C   UNL     1      32.879 -12.960 -22.812  0.00  0.00    +0.255 C 
ATOM     10  H   UNL     1      34.057 -11.793 -23.988  0.00  0.00    +0.157 HD
ENDROOT
BRANCH   9  14
ATOM     11  F   UNL     1      34.691 -14.539 -21.365  0.00  0.00    -0.204 F 
ATOM     12  F   UNL     1      32.349 -13.808 -25.433  0.00  0.00    -0.204 F 
ATOM     13  F   UNL     1      35.278 -17.498 -25.009  0.00  0.00    -0.204 F 
ATOM     14  C   UNL     1      33.518 -14.168 -23.397  0.00  0.00    +0.109 C 
ATOM     15  C   UNL     1      34.400 -14.895 -22.624  0.00  0.00    +0.149 C 
ATOM     16  C   UNL     1      33.208 -14.523 -24.693  0.00  0.00    +0.149 C 
ATOM     17  C   UNL     1      34.999 -16.029 -23.174  0.00  0.00    +0.060 C 
ATOM     18  C   UNL     1      33.808 -15.657 -25.242  0.00  0.00    +0.060 C 
ATOM     19  C   UNL     1      34.703 -16.410 -24.482  0.00  0.00    +0.145 C 
ENDBRANCH   9  14
BRANCH   2  21
ATOM     20  O   UNL     1      35.016  -6.901 -23.678  0.00  0.00    -0.289 OA
ATOM     21  C   UNL     1      33.799  -7.044 -23.762  0.00  0.00    +0.202 C 
BRANCH  21  23
ATOM     22  N   UNL     1      32.522  -3.293 -25.338  0.00  0.00    +0.386 N 
ATOM     23  C   UNL     1      32.962  -6.069 -24.531  0.00  0.00    +0.060 C 
ATOM     24  C   UNL     1      33.822  -5.382 -25.593  0.00  0.00    -0.015 C 
ATOM     25  C   UNL     1      32.356  -5.032 -23.587  0.00  0.00    -0.015 C 
ATOM     26  C   UNL     1      33.045  -4.271 -26.301  0.00  0.00    -0.077 C 
ATOM     27  C   UNL     1      31.628  -3.933 -24.364  0.00  0.00    -0.077 C 
ATOM     28  C   UNL     1      31.828  -2.210 -26.035  0.00  0.00    -0.101 C 
ATOM     29  H   UNL     1      33.313  -2.899 -24.828  0.00  0.00    -0.080 HD
ENDBRANCH  21  23
ENDBRANCH   2  21
TORSDOF 3
ENDMDL
