MODEL 1
REMARK VINA RESULT:     -11.2      0.000      0.000
REMARK  Name = 24905142
REMARK  2 active torsions:
REMARK  status: ('A' for Active; 'I' for Inactive)
REMARK    1  A    between atoms: N_1  and  C_20
REMARK    2  A    between atoms: C_7  and  C_12
REMARK                            x       y       z     vdW  Elec       q    Type
REMARK                         _______ _______ _______ _____ _____    ______ ____
ROOT
ATOM      1  N   UNL     1      33.768 -23.015 -17.971  0.00  0.00    -0.200 N 
ATOM      2  N   UNL     1      34.901 -23.358 -17.331  0.00  0.00    -0.181 NA
ATOM      3  N   UNL     1      31.388 -22.849 -17.561  0.00  0.00    -0.232 NA
ATOM      4  N   UNL     1      30.818 -23.502 -15.282  0.00  0.00    -0.234 NA
ATOM      5  C   UNL     1      32.651 -23.121 -17.197  0.00  0.00    +0.137 C 
ATOM      6  C   UNL     1      33.084 -23.567 -15.961  0.00  0.00    +0.150 C 
ATOM      7  C   UNL     1      34.478 -23.694 -16.107  0.00  0.00    +0.091 C 
ATOM      8  C   UNL     1      32.115 -23.757 -14.983  0.00  0.00    +0.112 C 
ATOM      9  C   UNL     1      30.539 -23.070 -16.535  0.00  0.00    +0.252 C 
ATOM     10  N   UNL     1      32.455 -24.207 -13.695  0.00  0.00    -0.346 N 
ATOM     11  H   UNL     1      31.753 -24.335 -13.015  0.00  0.00    +0.143 HD
ATOM     12  H   UNL     1      33.395 -24.393 -13.470  0.00  0.00    +0.143 HD
ENDROOT
BRANCH   7  15
ATOM     13  N   UNL     1      36.738 -25.963 -14.194  0.00  0.00    -0.229 NA
ATOM     14  N   UNL     1      38.099 -25.312 -12.315  0.00  0.00    -0.297 N 
ATOM     15  C   UNL     1      35.424 -24.125 -15.119  0.00  0.00    +0.035 C 
ATOM     16  C   UNL     1      35.930 -23.224 -14.183  0.00  0.00    +0.006 C 
ATOM     17  C   UNL     1      35.853 -25.444 -15.076  0.00  0.00    +0.102 C 
ATOM     18  C   UNL     1      36.853 -23.706 -13.242  0.00  0.00    +0.033 C 
ATOM     19  C   UNL     1      37.196 -25.053 -13.313  0.00  0.00    +0.132 C 
ATOM     20  C   UNL     1      37.585 -23.152 -12.159  0.00  0.00    +0.019 C 
ATOM     21  C   UNL     1      38.343 -24.163 -11.608  0.00  0.00    +0.063 C 
ATOM     22  H   UNL     1      38.509 -26.188 -12.135  0.00  0.00    +0.154 HD
ENDBRANCH   7  15
BRANCH   1  23
ATOM     23  C   UNL     1      33.834 -22.565 -19.414  0.00  0.00    +0.098 C 
ATOM     24  C   UNL     1      35.258 -22.263 -19.926  0.00  0.00    +0.022 C 
ATOM     25  C   UNL     1      33.020 -21.285 -19.671  0.00  0.00    +0.022 C 
ATOM     26  C   UNL     1      35.256 -20.788 -20.310  0.00  0.00    +0.002 C 
ATOM     27  C   UNL     1      33.818 -20.523 -20.717  0.00  0.00    +0.002 C 
ENDBRANCH   1  23
TORSDOF 2
ENDMDL
MODEL 2
REMARK VINA RESULT:     -10.3      5.994      9.411
REMARK  Name = 24905142
REMARK  2 active torsions:
REMARK  status: ('A' for Active; 'I' for Inactive)
REMARK    1  A    between atoms: N_1  and  C_20
REMARK    2  A    between atoms: C_7  and  C_12
REMARK                            x       y       z     vdW  Elec       q    Type
REMARK                         _______ _______ _______ _____ _____    ______ ____
ROOT
ATOM      1  N   UNL     1      34.578 -15.501 -22.719  0.00  0.00    -0.200 N 
ATOM      2  N   UNL     1      34.952 -16.313 -21.712  0.00  0.00    -0.181 NA
ATOM      3  N   UNL     1      34.009 -15.609 -25.070  0.00  0.00    -0.232 NA
ATOM      4  N   UNL     1      34.143 -17.888 -25.927  0.00  0.00    -0.234 NA
ATOM      5  C   UNL     1      34.383 -16.152 -23.901  0.00  0.00    +0.137 C 
ATOM      6  C   UNL     1      34.648 -17.487 -23.649  0.00  0.00    +0.150 C 
ATOM      7  C   UNL     1      34.993 -17.521 -22.285  0.00  0.00    +0.091 C 
ATOM      8  C   UNL     1      34.517 -18.369 -24.716  0.00  0.00    +0.112 C 
ATOM      9  C   UNL     1      33.916 -16.557 -26.027  0.00  0.00    +0.252 C 
ATOM     10  N   UNL     1      34.765 -19.745 -24.561  0.00  0.00    -0.346 N 
ATOM     11  H   UNL     1      34.666 -20.353 -25.330  0.00  0.00    +0.143 HD
ATOM     12  H   UNL     1      35.036 -20.101 -23.685  0.00  0.00    +0.143 HD
ENDROOT
BRANCH   7  15
ATOM     13  N   UNL     1      37.150 -19.928 -20.422  0.00  0.00    -0.229 NA
ATOM     14  N   UNL     1      36.373 -21.915 -19.303  0.00  0.00    -0.297 N 
ATOM     15  C   UNL     1      35.362 -18.668 -21.506  0.00  0.00    +0.035 C 
ATOM     16  C   UNL     1      34.395 -19.582 -21.092  0.00  0.00    +0.006 C 
ATOM     17  C   UNL     1      36.685 -18.888 -21.151  0.00  0.00    +0.102 C 
ATOM     18  C   UNL     1      34.819 -20.683 -20.331  0.00  0.00    +0.033 C 
ATOM     19  C   UNL     1      36.178 -20.781 -20.047  0.00  0.00    +0.132 C 
ATOM     20  C   UNL     1      34.191 -21.806 -19.729  0.00  0.00    +0.019 C 
ATOM     21  C   UNL     1      35.171 -22.546 -19.103  0.00  0.00    +0.063 C 
ATOM     22  H   UNL     1      37.242 -22.229 -18.964  0.00  0.00    +0.154 HD
ENDBRANCH   7  15
BRANCH   1  23
ATOM     23  C   UNL     1      34.416 -14.020 -22.461  0.00  0.00    +0.098 C 
ATOM     24  C   UNL     1      33.370 -13.668 -21.383  0.00  0.00    +0.022 C 
ATOM     25  C   UNL     1      33.993 -13.245 -23.721  0.00  0.00    +0.022 C 
ATOM     26  C   UNL     1      32.306 -12.840 -22.094  0.00  0.00    +0.002 C 
ATOM     27  C   UNL     1      33.070 -12.149 -23.208  0.00  0.00    +0.002 C 
ENDBRANCH   1  23
TORSDOF 2
ENDMDL
MODEL 3
REMARK VINA RESULT:     -10.1      1.718      4.331
REMARK  Name = 24905142
REMARK  2 active torsions:
REMARK  status: ('A' for Active; 'I' for Inactive)
REMARK    1  A    between atoms: N_1  and  C_20
REMARK    2  A    between atoms: C_7  and  C_12
REMARK                            x       y       z     vdW  Elec       q    Type
REMARK                         _______ _______ _______ _____ _____    ______ ____
ROOT
ATOM      1  N   UNL     1      32.371 -23.563 -16.255  0.00  0.00    -0.200 N 
ATOM      2  N   UNL     1      33.277 -24.016 -15.367  0.00  0.00    -0.181 NA
ATOM      3  N   UNL     1      32.281 -22.391 -18.372  0.00  0.00    -0.232 NA
ATOM      4  N   UNL     1      34.510 -21.837 -19.192  0.00  0.00    -0.234 NA
ATOM      5  C   UNL     1      32.929 -22.940 -17.332  0.00  0.00    +0.137 C 
ATOM      6  C   UNL     1      34.298 -22.989 -17.135  0.00  0.00    +0.150 C 
ATOM      7  C   UNL     1      34.448 -23.663 -15.909  0.00  0.00    +0.091 C 
ATOM      8  C   UNL     1      35.098 -22.410 -18.114  0.00  0.00    +0.112 C 
ATOM      9  C   UNL     1      33.157 -21.862 -19.253  0.00  0.00    +0.252 C 
ATOM     10  N   UNL     1      36.500 -22.410 -18.005  0.00  0.00    -0.346 N 
ATOM     11  H   UNL     1      37.049 -21.994 -18.710  0.00  0.00    +0.143 HD
ATOM     12  H   UNL     1      36.934 -22.825 -17.225  0.00  0.00    +0.143 HD
ENDROOT
BRANCH   7  15
ATOM     13  N   UNL     1      37.491 -23.216 -13.797  0.00  0.00    -0.229 NA
ATOM     14  N   UNL     1      39.126 -24.923 -13.334  0.00  0.00    -0.297 N 
ATOM     15  C   UNL     1      35.671 -23.985 -15.233  0.00  0.00    +0.035 C 
ATOM     16  C   UNL     1      36.215 -25.264 -15.324  0.00  0.00    +0.006 C 
ATOM     17  C   UNL     1      36.335 -23.029 -14.477  0.00  0.00    +0.102 C 
ATOM     18  C   UNL     1      37.414 -25.517 -14.640  0.00  0.00    +0.033 C 
ATOM     19  C   UNL     1      37.974 -24.467 -13.918  0.00  0.00    +0.132 C 
ATOM     20  C   UNL     1      38.274 -26.635 -14.471  0.00  0.00    +0.019 C 
ATOM     21  C   UNL     1      39.318 -26.240 -13.663  0.00  0.00    +0.063 C 
ATOM     22  H   UNL     1      39.724 -24.387 -12.765  0.00  0.00    +0.154 HD
ENDBRANCH   7  15
BRANCH   1  23
ATOM     23  C   UNL     1      30.898 -23.774 -15.991  0.00  0.00    +0.098 C 
ATOM     24  C   UNL     1      30.386 -23.147 -14.677  0.00  0.00    +0.022 C 
ATOM     25  C   UNL     1      30.519 -25.264 -15.916  0.00  0.00    +0.022 C 
ATOM     26  C   UNL     1      29.880 -24.311 -13.832  0.00  0.00    +0.002 C 
ATOM     27  C   UNL     1      29.427 -25.333 -14.860  0.00  0.00    +0.002 C 
ENDBRANCH   1  23
TORSDOF 2
ENDMDL
MODEL 4
REMARK VINA RESULT:     -10.0      1.705      6.393
REMARK  Name = 24905142
REMARK  2 active torsions:
REMARK  status: ('A' for Active; 'I' for Inactive)
REMARK    1  A    between atoms: N_1  and  C_20
REMARK    2  A    between atoms: C_7  and  C_12
REMARK                            x       y       z     vdW  Elec       q    Type
REMARK                         _______ _______ _______ _____ _____    ______ ____
ROOT
ATOM      1  N   UNL     1      35.307 -24.379 -15.204  0.00  0.00    -0.200 N 
ATOM      2  N   UNL     1      35.822 -23.684 -16.236  0.00  0.00    -0.181 NA
ATOM      3  N   UNL     1      33.158 -24.951 -14.247  0.00  0.00    -0.232 NA
ATOM      4  N   UNL     1      31.317 -23.986 -15.522  0.00  0.00    -0.234 NA
ATOM      5  C   UNL     1      33.945 -24.354 -15.156  0.00  0.00    +0.137 C 
ATOM      6  C   UNL     1      33.539 -23.588 -16.234  0.00  0.00    +0.150 C 
ATOM      7  C   UNL     1      34.740 -23.205 -16.860  0.00  0.00    +0.091 C 
ATOM      8  C   UNL     1      32.170 -23.411 -16.404  0.00  0.00    +0.112 C 
ATOM      9  C   UNL     1      31.856 -24.710 -14.513  0.00  0.00    +0.252 C 
ATOM     10  N   UNL     1      31.659 -22.649 -17.470  0.00  0.00    -0.346 N 
ATOM     11  H   UNL     1      30.685 -22.536 -17.572  0.00  0.00    +0.143 HD
ATOM     12  H   UNL     1      32.272 -22.229 -18.115  0.00  0.00    +0.143 HD
ENDROOT
BRANCH   7  15
ATOM     13  N   UNL     1      36.421 -21.244 -19.551  0.00  0.00    -0.229 NA
ATOM     14  N   UNL     1      35.298 -20.110 -21.356  0.00  0.00    -0.297 N 
ATOM     15  C   UNL     1      34.894 -22.396 -18.034  0.00  0.00    +0.035 C 
ATOM     16  C   UNL     1      33.779 -21.989 -18.764  0.00  0.00    +0.006 C 
ATOM     17  C   UNL     1      36.154 -22.003 -18.463  0.00  0.00    +0.102 C 
ATOM     18  C   UNL     1      33.996 -21.199 -19.905  0.00  0.00    +0.033 C 
ATOM     19  C   UNL     1      35.312 -20.878 -20.221  0.00  0.00    +0.132 C 
ATOM     20  C   UNL     1      33.175 -20.594 -20.894  0.00  0.00    +0.019 C 
ATOM     21  C   UNL     1      34.004 -19.932 -21.774  0.00  0.00    +0.063 C 
ATOM     22  H   UNL     1      36.095 -19.743 -21.802  0.00  0.00    +0.154 HD
ENDBRANCH   7  15
BRANCH   1  23
ATOM     23  C   UNL     1      36.237 -25.086 -14.244  0.00  0.00    +0.098 C 
ATOM     24  C   UNL     1      37.517 -24.297 -13.894  0.00  0.00    +0.022 C 
ATOM     25  C   UNL     1      36.720 -26.445 -14.782  0.00  0.00    +0.022 C 
ATOM     26  C   UNL     1      38.678 -25.155 -14.384  0.00  0.00    +0.002 C 
ATOM     27  C   UNL     1      38.149 -26.574 -14.278  0.00  0.00    +0.002 C 
ENDBRANCH   1  23
TORSDOF 2
ENDMDL
MODEL 5
REMARK VINA RESULT:     -10.0      1.296      3.887
REMARK  Name = 24905142
REMARK  2 active torsions:
REMARK  status: ('A' for Active; 'I' for Inactive)
REMARK    1  A    between atoms: N_1  and  C_20
REMARK    2  A    between atoms: C_7  and  C_12
REMARK                            x       y       z     vdW  Elec       q    Type
REMARK                         _______ _______ _______ _____ _____    ______ ____
ROOT
ATOM      1  N   UNL     1      32.337 -23.667 -16.662  0.00  0.00    -0.200 N 
ATOM      2  N   UNL     1      33.074 -24.136 -15.637  0.00  0.00    -0.181 NA
ATOM      3  N   UNL     1      32.609 -22.426 -18.722  0.00  0.00    -0.232 NA
ATOM      4  N   UNL     1      34.937 -21.807 -19.102  0.00  0.00    -0.234 NA
ATOM      5  C   UNL     1      33.068 -22.999 -17.599  0.00  0.00    +0.137 C 
ATOM      6  C   UNL     1      34.378 -23.032 -17.156  0.00  0.00    +0.150 C 
ATOM      7  C   UNL     1      34.316 -23.745 -15.944  0.00  0.00    +0.091 C 
ATOM      8  C   UNL     1      35.331 -22.407 -17.953  0.00  0.00    +0.112 C 
ATOM      9  C   UNL     1      33.620 -21.853 -19.411  0.00  0.00    +0.252 C 
ATOM     10  N   UNL     1      36.689 -22.387 -17.588  0.00  0.00    -0.346 N 
ATOM     11  H   UNL     1      37.348 -21.939 -18.167  0.00  0.00    +0.143 HD
ATOM     12  H   UNL     1      36.982 -22.822 -16.755  0.00  0.00    +0.143 HD
ENDROOT
BRANCH   7  15
ATOM     13  N   UNL     1      37.197 -25.626 -14.501  0.00  0.00    -0.229 NA
ATOM     14  N   UNL     1      38.465 -24.959 -12.564  0.00  0.00    -0.297 N 
ATOM     15  C   UNL     1      35.402 -24.069 -15.065  0.00  0.00    +0.035 C 
ATOM     16  C   UNL     1      35.721 -23.234 -13.996  0.00  0.00    +0.006 C 
ATOM     17  C   UNL     1      36.154 -25.219 -15.261  0.00  0.00    +0.102 C 
ATOM     18  C   UNL     1      36.795 -23.606 -13.171  0.00  0.00    +0.033 C 
ATOM     19  C   UNL     1      37.464 -24.785 -13.483  0.00  0.00    +0.132 C 
ATOM     20  C   UNL     1      37.430 -23.065 -12.022  0.00  0.00    +0.019 C 
ATOM     21  C   UNL     1      38.454 -23.918 -11.672  0.00  0.00    +0.063 C 
ATOM     22  H   UNL     1      39.096 -25.714 -12.548  0.00  0.00    +0.154 HD
ENDBRANCH   7  15
BRANCH   1  23
ATOM     23  C   UNL     1      30.845 -23.912 -16.679  0.00  0.00    +0.098 C 
ATOM     24  C   UNL     1      29.987 -22.657 -16.415  0.00  0.00    +0.022 C 
ATOM     25  C   UNL     1      30.404 -24.946 -15.628  0.00  0.00    +0.022 C 
ATOM     26  C   UNL     1      29.205 -22.950 -15.140  0.00  0.00    +0.002 C 
ATOM     27  C   UNL     1      29.042 -24.459 -15.155  0.00  0.00    +0.002 C 
ENDBRANCH   1  23
TORSDOF 2
ENDMDL
MODEL 6
REMARK VINA RESULT:     -10.0      1.994      6.596
REMARK  Name = 24905142
REMARK  2 active torsions:
REMARK  status: ('A' for Active; 'I' for Inactive)
REMARK    1  A    between atoms: N_1  and  C_20
REMARK    2  A    between atoms: C_7  and  C_12
REMARK                            x       y       z     vdW  Elec       q    Type
REMARK                         _______ _______ _______ _____ _____    ______ ____
ROOT
ATOM      1  N   UNL     1      36.128 -23.465 -14.717  0.00  0.00    -0.200 N 
ATOM      2  N   UNL     1      34.919 -23.859 -14.275  0.00  0.00    -0.181 NA
ATOM      3  N   UNL     1      37.171 -22.588 -16.718  0.00  0.00    -0.232 NA
ATOM      4  N   UNL     1      35.561 -22.318 -18.530  0.00  0.00    -0.234 NA
ATOM      5  C   UNL     1      36.122 -23.037 -16.011  0.00  0.00    +0.137 C 
ATOM      6  C   UNL     1      34.815 -23.161 -16.448  0.00  0.00    +0.150 C 
ATOM      7  C   UNL     1      34.123 -23.672 -15.334  0.00  0.00    +0.091 C 
ATOM      8  C   UNL     1      34.548 -22.781 -17.759  0.00  0.00    +0.112 C 
ATOM      9  C   UNL     1      36.792 -22.251 -17.970  0.00  0.00    +0.252 C 
ATOM     10  N   UNL     1      33.251 -22.869 -18.295  0.00  0.00    -0.346 N 
ATOM     11  H   UNL     1      33.082 -22.595 -19.226  0.00  0.00    +0.143 HD
ATOM     12  H   UNL     1      32.509 -23.203 -17.740  0.00  0.00    +0.143 HD
ENDROOT
BRANCH   7  15
ATOM     13  N   UNL     1      31.003 -25.412 -14.262  0.00  0.00    -0.229 NA
ATOM     14  N   UNL     1      28.777 -24.860 -15.001  0.00  0.00    -0.297 N 
ATOM     15  C   UNL     1      32.728 -23.989 -15.241  0.00  0.00    +0.035 C 
ATOM     16  C   UNL     1      31.788 -23.261 -15.969  0.00  0.00    +0.006 C 
ATOM     17  C   UNL     1      32.288 -25.023 -14.428  0.00  0.00    +0.102 C 
ATOM     18  C   UNL     1      30.437 -23.619 -15.836  0.00  0.00    +0.033 C 
ATOM     19  C   UNL     1      30.135 -24.679 -14.985  0.00  0.00    +0.132 C 
ATOM     20  C   UNL     1      29.204 -23.161 -16.373  0.00  0.00    +0.019 C 
ATOM     21  C   UNL     1      28.201 -23.942 -15.841  0.00  0.00    +0.063 C 
ATOM     22  H   UNL     1      28.290 -25.544 -14.488  0.00  0.00    +0.154 HD
ENDBRANCH   7  15
BRANCH   1  23
ATOM     23  C   UNL     1      37.319 -23.529 -13.787  0.00  0.00    +0.098 C 
ATOM     24  C   UNL     1      38.214 -24.771 -13.979  0.00  0.00    +0.022 C 
ATOM     25  C   UNL     1      36.910 -23.535 -12.304  0.00  0.00    +0.022 C 
ATOM     26  C   UNL     1      38.162 -25.526 -12.656  0.00  0.00    +0.002 C 
ATOM     27  C   UNL     1      37.931 -24.436 -11.625  0.00  0.00    +0.002 C 
ENDBRANCH   1  23
TORSDOF 2
ENDMDL
MODEL 7
REMARK VINA RESULT:      -9.8      2.684      6.073
REMARK  Name = 24905142
REMARK  2 active torsions:
REMARK  status: ('A' for Active; 'I' for Inactive)
REMARK    1  A    between atoms: N_1  and  C_20
REMARK    2  A    between atoms: C_7  and  C_12
REMARK                            x       y       z     vdW  Elec       q    Type
REMARK                         _______ _______ _______ _____ _____    ______ ____
ROOT
ATOM      1  N   UNL     1      29.946 -23.697 -16.104  0.00  0.00    -0.200 N 
ATOM      2  N   UNL     1      30.624 -23.149 -17.130  0.00  0.00    -0.181 NA
ATOM      3  N   UNL     1      30.362 -24.743 -13.960  0.00  0.00    -0.232 NA
ATOM      4  N   UNL     1      32.747 -24.864 -13.462  0.00  0.00    -0.234 NA
ATOM      5  C   UNL     1      30.751 -24.154 -15.101  0.00  0.00    +0.137 C 
ATOM      6  C   UNL     1      32.048 -23.885 -15.501  0.00  0.00    +0.150 C 
ATOM      7  C   UNL     1      31.903 -23.267 -16.757  0.00  0.00    +0.091 C 
ATOM      8  C   UNL     1      33.067 -24.263 -14.633  0.00  0.00    +0.112 C 
ATOM      9  C   UNL     1      31.433 -25.064 -13.202  0.00  0.00    +0.252 C 
ATOM     10  N   UNL     1      34.418 -24.032 -14.949  0.00  0.00    -0.346 N 
ATOM     11  H   UNL     1      35.125 -24.308 -14.321  0.00  0.00    +0.143 HD
ATOM     12  H   UNL     1      34.658 -23.595 -15.798  0.00  0.00    +0.143 HD
ENDROOT
BRANCH   7  15
ATOM     13  N   UNL     1      35.329 -22.746 -18.140  0.00  0.00    -0.229 NA
ATOM     14  N   UNL     1      35.862 -21.399 -20.065  0.00  0.00    -0.297 N 
ATOM     15  C   UNL     1      32.944 -22.783 -17.617  0.00  0.00    +0.035 C 
ATOM     16  C   UNL     1      32.643 -21.945 -18.689  0.00  0.00    +0.006 C 
ATOM     17  C   UNL     1      34.267 -23.139 -17.398  0.00  0.00    +0.102 C 
ATOM     18  C   UNL     1      33.705 -21.505 -19.495  0.00  0.00    +0.033 C 
ATOM     19  C   UNL     1      34.984 -21.939 -19.162  0.00  0.00    +0.132 C 
ATOM     20  C   UNL     1      33.837 -20.676 -20.641  0.00  0.00    +0.019 C 
ATOM     21  C   UNL     1      35.175 -20.631 -20.969  0.00  0.00    +0.063 C 
ATOM     22  H   UNL     1      36.835 -21.542 -20.065  0.00  0.00    +0.154 HD
ENDBRANCH   7  15
BRANCH   1  23
ATOM     23  C   UNL     1      28.436 -23.754 -16.153  0.00  0.00    +0.098 C 
ATOM     24  C   UNL     1      27.836 -23.619 -17.568  0.00  0.00    +0.022 C 
ATOM     25  C   UNL     1      27.777 -22.644 -15.314  0.00  0.00    +0.022 C 
ATOM     26  C   UNL     1      26.983 -22.356 -17.538  0.00  0.00    +0.002 C 
ATOM     27  C   UNL     1      26.527 -22.262 -16.093  0.00  0.00    +0.002 C 
ENDBRANCH   1  23
TORSDOF 2
ENDMDL
MODEL 8
REMARK VINA RESULT:      -9.7      8.412     12.881
REMARK  Name = 24905142
REMARK  2 active torsions:
REMARK  status: ('A' for Active; 'I' for Inactive)
REMARK    1  A    between atoms: N_1  and  C_20
REMARK    2  A    between atoms: C_7  and  C_12
REMARK                            x       y       z     vdW  Elec       q    Type
REMARK                         _______ _______ _______ _____ _____    ______ ____
ROOT
ATOM      1  N   UNL     1      34.932 -16.473 -22.598  0.00  0.00    -0.200 N 
ATOM      2  N   UNL     1      34.685 -15.213 -22.193  0.00  0.00    -0.181 NA
ATOM      3  N   UNL     1      34.590 -17.898 -24.526  0.00  0.00    -0.232 NA
ATOM      4  N   UNL     1      33.436 -16.721 -26.323  0.00  0.00    -0.234 NA
ATOM      5  C   UNL     1      34.486 -16.737 -23.859  0.00  0.00    +0.137 C 
ATOM      6  C   UNL     1      33.905 -15.566 -24.312  0.00  0.00    +0.150 C 
ATOM      7  C   UNL     1      34.059 -14.666 -23.241  0.00  0.00    +0.091 C 
ATOM      8  C   UNL     1      33.367 -15.582 -25.594  0.00  0.00    +0.112 C 
ATOM      9  C   UNL     1      34.035 -17.794 -25.752  0.00  0.00    +0.252 C 
ATOM     10  N   UNL     1      32.755 -14.441 -26.144  0.00  0.00    -0.346 N 
ATOM     11  H   UNL     1      32.380 -14.473 -27.054  0.00  0.00    +0.143 HD
ATOM     12  H   UNL     1      32.702 -13.609 -25.620  0.00  0.00    +0.143 HD
ENDROOT
BRANCH   7  15
ATOM     13  N   UNL     1      33.893 -11.022 -24.022  0.00  0.00    -0.229 NA
ATOM     14  N   UNL     1      32.396  -9.443 -22.987  0.00  0.00    -0.297 N 
ATOM     15  C   UNL     1      33.630 -13.299 -23.180  0.00  0.00    +0.035 C 
ATOM     16  C   UNL     1      32.618 -12.913 -22.303  0.00  0.00    +0.006 C 
ATOM     17  C   UNL     1      34.213 -12.336 -23.992  0.00  0.00    +0.102 C 
ATOM     18  C   UNL     1      32.242 -11.560 -22.291  0.00  0.00    +0.033 C 
ATOM     19  C   UNL     1      32.911 -10.701 -23.158  0.00  0.00    +0.132 C 
ATOM     20  C   UNL     1      31.295 -10.773 -21.582  0.00  0.00    +0.019 C 
ATOM     21  C   UNL     1      31.413  -9.476 -22.032  0.00  0.00    +0.063 C 
ATOM     22  H   UNL     1      32.687  -8.640 -23.475  0.00  0.00    +0.154 HD
ENDBRANCH   7  15
BRANCH   1  23
ATOM     23  C   UNL     1      35.644 -17.429 -21.668  0.00  0.00    +0.098 C 
ATOM     24  C   UNL     1      36.813 -18.201 -22.316  0.00  0.00    +0.022 C 
ATOM     25  C   UNL     1      34.704 -18.503 -21.093  0.00  0.00    +0.022 C 
ATOM     26  C   UNL     1      36.432 -19.675 -22.232  0.00  0.00    +0.002 C 
ATOM     27  C   UNL     1      35.563 -19.754 -20.990  0.00  0.00    +0.002 C 
ENDBRANCH   1  23
TORSDOF 2
ENDMDL
MODEL 9
REMARK VINA RESULT:      -9.6     10.501     13.960
REMARK  Name = 24905142
REMARK  2 active torsions:
REMARK  status: ('A' for Active; 'I' for Inactive)
REMARK    1  A    between atoms: N_1  and  C_20
REMARK    2  A    between atoms: C_7  and  C_12
REMARK                            x       y       z     vdW  Elec       q    Type
REMARK                         _______ _______ _______ _____ _____    ______ ____
ROOT
ATOM      1  N   UNL     1      33.055 -10.085 -23.462  0.00  0.00    -0.200 N 
ATOM      2  N   UNL     1      33.519 -11.158 -24.128  0.00  0.00    -0.181 NA
ATOM      3  N   UNL     1      31.910  -9.539 -21.399  0.00  0.00    -0.232 NA
ATOM      4  N   UNL     1      31.426 -11.534 -20.082  0.00  0.00    -0.234 NA
ATOM      5  C   UNL     1      32.462 -10.395 -22.274  0.00  0.00    +0.137 C 
ATOM      6  C   UNL     1      32.544 -11.771 -22.154  0.00  0.00    +0.150 C 
ATOM      7  C   UNL     1      33.205 -12.182 -23.327  0.00  0.00    +0.091 C 
ATOM      8  C   UNL     1      32.000 -12.339 -21.008  0.00  0.00    +0.112 C 
ATOM      9  C   UNL     1      31.417 -10.202 -20.331  0.00  0.00    +0.252 C 
ATOM     10  N   UNL     1      32.035 -13.729 -20.794  0.00  0.00    -0.346 N 
ATOM     11  H   UNL     1      31.643 -14.111 -19.975  0.00  0.00    +0.143 HD
ATOM     12  H   UNL     1      32.450 -14.320 -21.462  0.00  0.00    +0.143 HD
ENDROOT
BRANCH   7  15
ATOM     13  N   UNL     1      33.357 -15.294 -25.380  0.00  0.00    -0.229 NA
ATOM     14  N   UNL     1      34.538 -17.304 -24.773  0.00  0.00    -0.297 N 
ATOM     15  C   UNL     1      33.549 -13.520 -23.712  0.00  0.00    +0.035 C 
ATOM     16  C   UNL     1      34.343 -14.313 -22.885  0.00  0.00    +0.006 C 
ATOM     17  C   UNL     1      33.098 -14.050 -24.912  0.00  0.00    +0.102 C 
ATOM     18  C   UNL     1      34.645 -15.613 -23.318  0.00  0.00    +0.033 C 
ATOM     19  C   UNL     1      34.127 -16.017 -24.545  0.00  0.00    +0.132 C 
ATOM     20  C   UNL     1      35.391 -16.709 -22.806  0.00  0.00    +0.019 C 
ATOM     21  C   UNL     1      35.307 -17.734 -23.723  0.00  0.00    +0.063 C 
ATOM     22  H   UNL     1      34.315 -17.837 -25.570  0.00  0.00    +0.154 HD
ENDBRANCH   7  15
BRANCH   1  23
ATOM     23  C   UNL     1      33.224  -8.706 -24.059  0.00  0.00    +0.098 C 
ATOM     24  C   UNL     1      34.296  -7.836 -23.368  0.00  0.00    +0.022 C 
ATOM     25  C   UNL     1      31.926  -7.880 -24.014  0.00  0.00    +0.022 C 
ATOM     26  C   UNL     1      33.553  -6.624 -22.817  0.00  0.00    +0.002 C 
ATOM     27  C   UNL     1      32.386  -6.450 -23.772  0.00  0.00    +0.002 C 
ENDBRANCH   1  23
TORSDOF 2
ENDMDL
