MODEL 1
REMARK VINA RESULT:     -12.2      0.000      0.000
REMARK  Name = 5326929
REMARK  3 active torsions:
REMARK  status: ('A' for Active; 'I' for Inactive)
REMARK    1  A    between atoms: C_7  and  C_21
REMARK    2  A    between atoms: C_21  and  C_22
REMARK    3  A    between atoms: C_22  and  C_23
REMARK                            x       y       z     vdW  Elec       q    Type
REMARK                         _______ _______ _______ _____ _____    ______ ____
ROOT
ATOM      1  O   UNL     1      34.915 -24.856 -12.002  0.00  0.00    -0.209 OA
ATOM      2  N   UNL     1      34.816 -23.067 -15.584  0.00  0.00    -0.275 N 
ATOM      3  N   UNL     1      30.067 -25.328 -13.972  0.00  0.00    -0.315 N 
ATOM      4  N   UNL     1      30.043 -24.327 -15.955  0.00  0.00    -0.316 N 
ATOM      5  N   UNL     1      36.025 -23.692 -13.632  0.00  0.00    -0.302 NA
ATOM      6  N   UNL     1      37.028 -22.498 -15.381  0.00  0.00    -0.320 N 
ATOM      7  C   UNL     1      32.462 -23.621 -15.903  0.00  0.00    +0.007 C 
ATOM      8  C   UNL     1      33.633 -23.658 -15.129  0.00  0.00    +0.060 C 
ATOM      9  C   UNL     1      31.299 -24.229 -15.399  0.00  0.00    +0.056 C 
ATOM     10  C   UNL     1      31.339 -24.849 -14.155  0.00  0.00    +0.060 C 
ATOM     11  C   UNL     1      33.634 -24.293 -13.877  0.00  0.00    +0.109 C 
ATOM     12  C   UNL     1      32.484 -24.907 -13.359  0.00  0.00    +0.029 C 
ATOM     13  C   UNL     1      34.905 -24.303 -13.098  0.00  0.00    +0.208 C 
ATOM     14  C   UNL     1      29.331 -24.991 -15.074  0.00  0.00    +0.182 C 
ATOM     15  C   UNL     1      35.948 -23.119 -14.805  0.00  0.00    +0.248 C 
ATOM     16  H   UNL     1      34.838 -22.617 -16.459  0.00  0.00    +0.156 HD
ATOM     17  H   UNL     1      29.742 -25.826 -13.188  0.00  0.00    +0.148 HD
ATOM     18  H   UNL     1      29.745 -23.975 -16.825  0.00  0.00    +0.148 HD
ATOM     19  H   UNL     1      36.938 -22.076 -16.267  0.00  0.00    +0.146 HD
ATOM     20  H   UNL     1      37.892 -22.475 -14.910  0.00  0.00    +0.146 HD
ENDROOT
BRANCH   7  21
ATOM     21  C   UNL     1      32.453 -22.944 -17.238  0.00  0.00    +0.034 C 
BRANCH  21  22
ATOM     22  C   UNL     1      33.622 -23.356 -18.152  0.00  0.00    +0.031 C 
BRANCH  22  23
ATOM     23  C   UNL     1      34.033 -22.272 -19.119  0.00  0.00    -0.022 C 
ATOM     24  C   UNL     1      35.380 -22.066 -19.378  0.00  0.00    -0.005 C 
ATOM     25  C   UNL     1      33.057 -21.503 -19.732  0.00  0.00    -0.005 C 
ATOM     26  C   UNL     1      34.787 -20.281 -20.894  0.00  0.00    -0.022 C 
ATOM     27  C   UNL     1      35.758 -21.064 -20.271  0.00  0.00    -0.005 C 
ATOM     28  C   UNL     1      33.436 -20.501 -20.625  0.00  0.00    -0.005 C 
ATOM     29  C   UNL     1      35.191 -19.211 -21.850  0.00  0.00    +0.031 C 
ENDBRANCH  22  23
ENDBRANCH  21  22
ENDBRANCH   7  21
TORSDOF 3
ENDMDL
MODEL 2
REMARK VINA RESULT:     -11.7      1.812      4.328
REMARK  Name = 5326929
REMARK  3 active torsions:
REMARK  status: ('A' for Active; 'I' for Inactive)
REMARK    1  A    between atoms: C_7  and  C_21
REMARK    2  A    between atoms: C_21  and  C_22
REMARK    3  A    between atoms: C_22  and  C_23
REMARK                            x       y       z     vdW  Elec       q    Type
REMARK                         _______ _______ _______ _____ _____    ______ ____
ROOT
ATOM      1  O   UNL     1      28.854 -25.689 -14.021  0.00  0.00    -0.209 OA
ATOM      2  N   UNL     1      29.859 -23.233 -17.021  0.00  0.00    -0.275 N 
ATOM      3  N   UNL     1      34.059 -24.981 -13.928  0.00  0.00    -0.315 N 
ATOM      4  N   UNL     1      34.585 -23.618 -15.602  0.00  0.00    -0.316 N 
ATOM      5  N   UNL     1      28.190 -24.417 -15.805  0.00  0.00    -0.302 NA
ATOM      6  N   UNL     1      27.660 -23.078 -17.653  0.00  0.00    -0.320 N 
ATOM      7  C   UNL     1      32.224 -23.329 -16.435  0.00  0.00    +0.007 C 
ATOM      8  C   UNL     1      30.891 -23.705 -16.205  0.00  0.00    +0.060 C 
ATOM      9  C   UNL     1      33.226 -23.832 -15.586  0.00  0.00    +0.056 C 
ATOM     10  C   UNL     1      32.871 -24.684 -14.546  0.00  0.00    +0.060 C 
ATOM     11  C   UNL     1      30.573 -24.568 -15.144  0.00  0.00    +0.109 C 
ATOM     12  C   UNL     1      31.558 -25.080 -14.286  0.00  0.00    +0.029 C 
ATOM     13  C   UNL     1      29.141 -24.935 -14.945  0.00  0.00    +0.208 C 
ATOM     14  C   UNL     1      35.053 -24.320 -14.596  0.00  0.00    +0.182 C 
ATOM     15  C   UNL     1      28.562 -23.619 -16.771  0.00  0.00    +0.248 C 
ATOM     16  H   UNL     1      30.059 -22.627 -17.770  0.00  0.00    +0.156 HD
ATOM     17  H   UNL     1      34.176 -25.564 -13.144  0.00  0.00    +0.148 HD
ATOM     18  H   UNL     1      35.096 -23.058 -16.231  0.00  0.00    +0.148 HD
ATOM     19  H   UNL     1      27.971 -22.479 -18.371  0.00  0.00    +0.146 HD
ATOM     20  H   UNL     1      26.702 -23.286 -17.568  0.00  0.00    +0.146 HD
ENDROOT
BRANCH   7  21
ATOM     21  C   UNL     1      32.571 -22.410 -17.564  0.00  0.00    +0.034 C 
BRANCH  21  22
ATOM     22  C   UNL     1      33.618 -22.986 -18.536  0.00  0.00    +0.031 C 
BRANCH  22  23
ATOM     23  C   UNL     1      34.257 -21.937 -19.413  0.00  0.00    -0.022 C 
ATOM     24  C   UNL     1      33.452 -21.116 -20.188  0.00  0.00    -0.005 C 
ATOM     25  C   UNL     1      35.637 -21.812 -19.428  0.00  0.00    -0.005 C 
ATOM     26  C   UNL     1      35.432 -20.011 -21.025  0.00  0.00    -0.022 C 
ATOM     27  C   UNL     1      34.044 -20.148 -20.999  0.00  0.00    -0.005 C 
ATOM     28  C   UNL     1      36.229 -20.844 -20.238  0.00  0.00    -0.005 C 
ATOM     29  C   UNL     1      36.063 -18.975 -21.890  0.00  0.00    +0.031 C 
ENDBRANCH  22  23
ENDBRANCH  21  22
ENDBRANCH   7  21
TORSDOF 3
ENDMDL
MODEL 3
REMARK VINA RESULT:     -11.5      1.837      2.458
REMARK  Name = 5326929
REMARK  3 active torsions:
REMARK  status: ('A' for Active; 'I' for Inactive)
REMARK    1  A    between atoms: C_7  and  C_21
REMARK    2  A    between atoms: C_21  and  C_22
REMARK    3  A    between atoms: C_22  and  C_23
REMARK                            x       y       z     vdW  Elec       q    Type
REMARK                         _______ _______ _______ _____ _____    ______ ____
ROOT
ATOM      1  O   UNL     1      36.977 -26.395 -11.919  0.00  0.00    -0.209 OA
ATOM      2  N   UNL     1      37.548 -24.425 -15.359  0.00  0.00    -0.275 N 
ATOM      3  N   UNL     1      32.518 -23.922 -13.189  0.00  0.00    -0.315 N 
ATOM      4  N   UNL     1      32.867 -22.839 -15.098  0.00  0.00    -0.316 N 
ATOM      5  N   UNL     1      38.387 -25.834 -13.634  0.00  0.00    -0.302 NA
ATOM      6  N   UNL     1      39.713 -25.177 -15.450  0.00  0.00    -0.320 N 
ATOM      7  C   UNL     1      35.264 -23.571 -15.362  0.00  0.00    +0.007 C 
ATOM      8  C   UNL     1      36.285 -24.329 -14.767  0.00  0.00    +0.060 C 
ATOM      9  C   UNL     1      34.012 -23.505 -14.725  0.00  0.00    +0.056 C 
ATOM     10  C   UNL     1      33.819 -24.191 -13.531  0.00  0.00    +0.060 C 
ATOM     11  C   UNL     1      36.052 -25.008 -13.561  0.00  0.00    +0.109 C 
ATOM     12  C   UNL     1      34.809 -24.956 -12.912  0.00  0.00    +0.029 C 
ATOM     13  C   UNL     1      37.172 -25.799 -12.974  0.00  0.00    +0.208 C 
ATOM     14  C   UNL     1      31.993 -23.111 -14.157  0.00  0.00    +0.182 C 
ATOM     15  C   UNL     1      38.530 -25.176 -14.755  0.00  0.00    +0.248 C 
ATOM     16  H   UNL     1      37.734 -23.958 -16.206  0.00  0.00    +0.156 HD
ATOM     17  H   UNL     1      32.047 -24.253 -12.392  0.00  0.00    +0.148 HD
ATOM     18  H   UNL     1      32.733 -22.281 -15.898  0.00  0.00    +0.148 HD
ATOM     19  H   UNL     1      39.790 -24.671 -16.292  0.00  0.00    +0.146 HD
ATOM     20  H   UNL     1      40.485 -25.682 -15.108  0.00  0.00    +0.146 HD
ENDROOT
BRANCH   7  21
ATOM     21  C   UNL     1      35.506 -22.844 -16.647  0.00  0.00    +0.034 C 
BRANCH  21  22
ATOM     22  C   UNL     1      34.462 -23.145 -17.739  0.00  0.00    +0.031 C 
BRANCH  22  23
ATOM     23  C   UNL     1      34.503 -22.168 -18.887  0.00  0.00    -0.022 C 
ATOM     24  C   UNL     1      35.729 -21.754 -19.386  0.00  0.00    -0.005 C 
ATOM     25  C   UNL     1      33.314 -21.701 -19.425  0.00  0.00    -0.005 C 
ATOM     26  C   UNL     1      34.577 -20.372 -20.999  0.00  0.00    -0.022 C 
ATOM     27  C   UNL     1      35.765 -20.851 -20.448  0.00  0.00    -0.005 C 
ATOM     28  C   UNL     1      33.351 -20.798 -20.487  0.00  0.00    -0.005 C 
ATOM     29  C   UNL     1      34.616 -19.407 -22.135  0.00  0.00    +0.031 C 
ENDBRANCH  22  23
ENDBRANCH  21  22
ENDBRANCH   7  21
TORSDOF 3
ENDMDL
MODEL 4
REMARK VINA RESULT:     -10.8      1.265      4.176
REMARK  Name = 5326929
REMARK  3 active torsions:
REMARK  status: ('A' for Active; 'I' for Inactive)
REMARK    1  A    between atoms: C_7  and  C_21
REMARK    2  A    between atoms: C_21  and  C_22
REMARK    3  A    between atoms: C_22  and  C_23
REMARK                            x       y       z     vdW  Elec       q    Type
REMARK                         _______ _______ _______ _____ _____    ______ ____
ROOT
ATOM      1  O   UNL     1      32.719 -25.072 -12.850  0.00  0.00    -0.209 OA
ATOM      2  N   UNL     1      31.866 -23.671 -16.504  0.00  0.00    -0.275 N 
ATOM      3  N   UNL     1      37.142 -23.233 -15.010  0.00  0.00    -0.315 N 
ATOM      4  N   UNL     1      36.637 -22.465 -17.033  0.00  0.00    -0.316 N 
ATOM      5  N   UNL     1      31.152 -24.692 -14.476  0.00  0.00    -0.302 NA
ATOM      6  N   UNL     1      29.662 -24.244 -16.227  0.00  0.00    -0.320 N 
ATOM      7  C   UNL     1      34.183 -23.023 -16.902  0.00  0.00    +0.007 C 
ATOM      8  C   UNL     1      33.194 -23.582 -16.077  0.00  0.00    +0.060 C 
ATOM      9  C   UNL     1      35.504 -22.958 -16.426  0.00  0.00    +0.056 C 
ATOM     10  C   UNL     1      35.795 -23.446 -15.157  0.00  0.00    +0.060 C 
ATOM     11  C   UNL     1      33.527 -24.064 -14.801  0.00  0.00    +0.109 C 
ATOM     12  C   UNL     1      34.839 -24.007 -14.308  0.00  0.00    +0.029 C 
ATOM     13  C   UNL     1      32.437 -24.648 -13.967  0.00  0.00    +0.208 C 
ATOM     14  C   UNL     1      37.598 -22.644 -16.157  0.00  0.00    +0.182 C 
ATOM     15  C   UNL     1      30.918 -24.224 -15.674  0.00  0.00    +0.248 C 
ATOM     16  H   UNL     1      31.610 -23.339 -17.394  0.00  0.00    +0.156 HD
ATOM     17  H   UNL     1      37.683 -23.461 -14.220  0.00  0.00    +0.148 HD
ATOM     18  H   UNL     1      36.710 -22.064 -17.929  0.00  0.00    +0.148 HD
ATOM     19  H   UNL     1      29.517 -23.883 -17.133  0.00  0.00    +0.146 HD
ATOM     20  H   UNL     1      28.906 -24.617 -15.720  0.00  0.00    +0.146 HD
ENDROOT
BRANCH   7  21
ATOM     21  C   UNL     1      33.835 -22.509 -18.264  0.00  0.00    +0.034 C 
BRANCH  21  22
ATOM     22  C   UNL     1      34.993 -22.594 -19.276  0.00  0.00    +0.031 C 
BRANCH  22  23
ATOM     23  C   UNL     1      35.200 -21.317 -20.054  0.00  0.00    -0.022 C 
ATOM     24  C   UNL     1      34.112 -20.703 -20.654  0.00  0.00    -0.005 C 
ATOM     25  C   UNL     1      36.474 -20.781 -20.153  0.00  0.00    -0.005 C 
ATOM     26  C   UNL     1      35.580 -18.972 -21.483  0.00  0.00    -0.022 C 
ATOM     27  C   UNL     1      34.304 -19.523 -21.373  0.00  0.00    -0.005 C 
ATOM     28  C   UNL     1      36.666 -19.601 -20.872  0.00  0.00    -0.005 C 
ATOM     29  C   UNL     1      35.785 -17.711 -22.250  0.00  0.00    +0.031 C 
ENDBRANCH  22  23
ENDBRANCH  21  22
ENDBRANCH   7  21
TORSDOF 3
ENDMDL
MODEL 5
REMARK VINA RESULT:     -10.2      2.301      4.831
REMARK  Name = 5326929
REMARK  3 active torsions:
REMARK  status: ('A' for Active; 'I' for Inactive)
REMARK    1  A    between atoms: C_7  and  C_21
REMARK    2  A    between atoms: C_21  and  C_22
REMARK    3  A    between atoms: C_22  and  C_23
REMARK                            x       y       z     vdW  Elec       q    Type
REMARK                         _______ _______ _______ _____ _____    ______ ____
ROOT
ATOM      1  O   UNL     1      35.711 -25.669 -10.806  0.00  0.00    -0.209 OA
ATOM      2  N   UNL     1      34.895 -23.491 -14.067  0.00  0.00    -0.275 N 
ATOM      3  N   UNL     1      39.925 -25.715 -13.945  0.00  0.00    -0.315 N 
ATOM      4  N   UNL     1      39.441 -24.501 -15.742  0.00  0.00    -0.316 N 
ATOM      5  N   UNL     1      34.217 -24.378 -11.965  0.00  0.00    -0.302 NA
ATOM      6  N   UNL     1      32.794 -23.043 -13.263  0.00  0.00    -0.320 N 
ATOM      7  C   UNL     1      37.103 -23.905 -15.015  0.00  0.00    +0.007 C 
ATOM      8  C   UNL     1      36.161 -24.078 -13.988  0.00  0.00    +0.060 C 
ATOM      9  C   UNL     1      38.362 -24.517 -14.888  0.00  0.00    +0.056 C 
ATOM     10  C   UNL     1      38.641 -25.272 -13.753  0.00  0.00    +0.060 C 
ATOM     11  C   UNL     1      36.479 -24.847 -12.858  0.00  0.00    +0.109 C 
ATOM     12  C   UNL     1      37.731 -25.465 -12.712  0.00  0.00    +0.029 C 
ATOM     13  C   UNL     1      35.442 -24.997 -11.797  0.00  0.00    +0.208 C 
ATOM     14  C   UNL     1      40.359 -25.227 -15.147  0.00  0.00    +0.182 C 
ATOM     15  C   UNL     1      33.992 -23.677 -13.045  0.00  0.00    +0.248 C 
ATOM     16  H   UNL     1      34.650 -22.947 -14.850  0.00  0.00    +0.156 HD
ATOM     17  H   UNL     1      40.441 -26.281 -13.328  0.00  0.00    +0.148 HD
ATOM     18  H   UNL     1      39.510 -24.044 -16.611  0.00  0.00    +0.148 HD
ATOM     19  H   UNL     1      32.655 -22.521 -14.087  0.00  0.00    +0.146 HD
ATOM     20  H   UNL     1      32.074 -23.108 -12.595  0.00  0.00    +0.146 HD
ENDROOT
BRANCH   7  21
ATOM     21  C   UNL     1      36.770 -23.087 -16.223  0.00  0.00    +0.034 C 
BRANCH  21  22
ATOM     22  C   UNL     1      35.403 -23.424 -16.846  0.00  0.00    +0.031 C 
BRANCH  22  23
ATOM     23  C   UNL     1      35.068 -22.572 -18.045  0.00  0.00    -0.022 C 
ATOM     24  C   UNL     1      36.090 -21.944 -18.741  0.00  0.00    -0.005 C 
ATOM     25  C   UNL     1      33.745 -22.432 -18.431  0.00  0.00    -0.005 C 
ATOM     26  C   UNL     1      34.452 -21.005 -20.248  0.00  0.00    -0.022 C 
ATOM     27  C   UNL     1      35.780 -21.155 -19.849  0.00  0.00    -0.005 C 
ATOM     28  C   UNL     1      33.434 -21.644 -19.539  0.00  0.00    -0.005 C 
ATOM     29  C   UNL     1      34.120 -20.164 -21.433  0.00  0.00    +0.031 C 
ENDBRANCH  22  23
ENDBRANCH  21  22
ENDBRANCH   7  21
TORSDOF 3
ENDMDL
MODEL 6
REMARK VINA RESULT:     -10.2      3.699      7.102
REMARK  Name = 5326929
REMARK  3 active torsions:
REMARK  status: ('A' for Active; 'I' for Inactive)
REMARK    1  A    between atoms: C_7  and  C_21
REMARK    2  A    between atoms: C_21  and  C_22
REMARK    3  A    between atoms: C_22  and  C_23
REMARK                            x       y       z     vdW  Elec       q    Type
REMARK                         _______ _______ _______ _____ _____    ______ ____
ROOT
ATOM      1  O   UNL     1      33.382 -19.731 -21.947  0.00  0.00    -0.209 OA
ATOM      2  N   UNL     1      36.808 -20.500 -20.019  0.00  0.00    -0.275 N 
ATOM      3  N   UNL     1      32.373 -23.060 -18.009  0.00  0.00    -0.315 N 
ATOM      4  N   UNL     1      34.289 -23.468 -16.961  0.00  0.00    -0.316 N 
ATOM      5  N   UNL     1      35.637 -19.381 -21.763  0.00  0.00    -0.302 NA
ATOM      6  N   UNL     1      37.945 -19.119 -21.454  0.00  0.00    -0.320 N 
ATOM      7  C   UNL     1      35.697 -21.990 -18.439  0.00  0.00    +0.007 C 
ATOM      8  C   UNL     1      35.651 -21.127 -19.546  0.00  0.00    +0.060 C 
ATOM      9  C   UNL     1      34.506 -22.596 -18.004  0.00  0.00    +0.056 C 
ATOM     10  C   UNL     1      33.319 -22.325 -18.677  0.00  0.00    +0.060 C 
ATOM     11  C   UNL     1      34.433 -20.879 -20.199  0.00  0.00    +0.109 C 
ATOM     12  C   UNL     1      33.234 -21.473 -19.779  0.00  0.00    +0.029 C 
ATOM     13  C   UNL     1      34.442 -19.954 -21.369  0.00  0.00    +0.208 C 
ATOM     14  C   UNL     1      33.002 -23.724 -16.992  0.00  0.00    +0.182 C 
ATOM     15  C   UNL     1      36.733 -19.659 -21.105  0.00  0.00    +0.248 C 
ATOM     16  H   UNL     1      37.672 -20.659 -19.576  0.00  0.00    +0.156 HD
ATOM     17  H   UNL     1      31.413 -23.102 -18.222  0.00  0.00    +0.148 HD
ATOM     18  H   UNL     1      34.956 -23.821 -16.328  0.00  0.00    +0.148 HD
ATOM     19  H   UNL     1      38.753 -19.349 -20.938  0.00  0.00    +0.146 HD
ATOM     20  H   UNL     1      38.008 -18.502 -22.218  0.00  0.00    +0.146 HD
ENDROOT
BRANCH   7  21
ATOM     21  C   UNL     1      36.992 -22.260 -17.739  0.00  0.00    +0.034 C 
BRANCH  21  22
ATOM     22  C   UNL     1      37.015 -21.792 -16.272  0.00  0.00    +0.031 C 
BRANCH  22  23
ATOM     23  C   UNL     1      37.218 -22.920 -15.290  0.00  0.00    -0.022 C 
ATOM     24  C   UNL     1      36.413 -22.996 -14.164  0.00  0.00    -0.005 C 
ATOM     25  C   UNL     1      38.206 -23.862 -15.532  0.00  0.00    -0.005 C 
ATOM     26  C   UNL     1      37.593 -24.993 -13.487  0.00  0.00    -0.022 C 
ATOM     27  C   UNL     1      36.602 -24.038 -13.257  0.00  0.00    -0.005 C 
ATOM     28  C   UNL     1      38.395 -24.904 -14.625  0.00  0.00    -0.005 C 
ATOM     29  C   UNL     1      37.794 -26.108 -12.518  0.00  0.00    +0.031 C 
ENDBRANCH  22  23
ENDBRANCH  21  22
ENDBRANCH   7  21
TORSDOF 3
ENDMDL
MODEL 7
REMARK VINA RESULT:     -10.2      2.860      5.657
REMARK  Name = 5326929
REMARK  3 active torsions:
REMARK  status: ('A' for Active; 'I' for Inactive)
REMARK    1  A    between atoms: C_7  and  C_21
REMARK    2  A    between atoms: C_21  and  C_22
REMARK    3  A    between atoms: C_22  and  C_23
REMARK                            x       y       z     vdW  Elec       q    Type
REMARK                         _______ _______ _______ _____ _____    ______ ____
ROOT
ATOM      1  O   UNL     1      38.586 -22.765 -11.926  0.00  0.00    -0.209 OA
ATOM      2  N   UNL     1      35.120 -24.772 -11.944  0.00  0.00    -0.275 N 
ATOM      3  N   UNL     1      36.438 -22.348 -16.703  0.00  0.00    -0.315 N 
ATOM      4  N   UNL     1      34.521 -23.470 -16.681  0.00  0.00    -0.316 N 
ATOM      5  N   UNL     1      37.067 -24.044 -10.785  0.00  0.00    -0.302 NA
ATOM      6  N   UNL     1      35.429 -25.359  -9.748  0.00  0.00    -0.320 N 
ATOM      7  C   UNL     1      34.693 -24.206 -14.277  0.00  0.00    +0.007 C 
ATOM      8  C   UNL     1      35.500 -24.137 -13.130  0.00  0.00    +0.060 C 
ATOM      9  C   UNL     1      35.121 -23.551 -15.445  0.00  0.00    +0.056 C 
ATOM     10  C   UNL     1      36.325 -22.856 -15.434  0.00  0.00    +0.060 C 
ATOM     11  C   UNL     1      36.710 -23.425 -13.157  0.00  0.00    +0.109 C 
ATOM     12  C   UNL     1      37.153 -22.764 -14.313  0.00  0.00    +0.029 C 
ATOM     13  C   UNL     1      37.527 -23.385 -11.911  0.00  0.00    +0.208 C 
ATOM     14  C   UNL     1      35.336 -22.742 -17.409  0.00  0.00    +0.182 C 
ATOM     15  C   UNL     1      35.931 -24.688 -10.835  0.00  0.00    +0.248 C 
ATOM     16  H   UNL     1      34.276 -25.276 -11.902  0.00  0.00    +0.156 HD
ATOM     17  H   UNL     1      37.179 -21.797 -17.044  0.00  0.00    +0.148 HD
ATOM     18  H   UNL     1      33.666 -23.871 -16.959  0.00  0.00    +0.148 HD
ATOM     19  H   UNL     1      34.568 -25.834  -9.817  0.00  0.00    +0.146 HD
ATOM     20  H   UNL     1      35.927 -25.365  -8.900  0.00  0.00    +0.146 HD
ENDROOT
BRANCH   7  21
ATOM     21  C   UNL     1      33.403 -24.964 -14.255  0.00  0.00    +0.034 C 
BRANCH  21  22
ATOM     22  C   UNL     1      32.221 -24.166 -13.676  0.00  0.00    +0.031 C 
BRANCH  22  23
ATOM     23  C   UNL     1      31.069 -24.022 -14.639  0.00  0.00    -0.022 C 
ATOM     24  C   UNL     1      29.938 -24.806 -14.469  0.00  0.00    -0.005 C 
ATOM     25  C   UNL     1      31.161 -23.109 -15.677  0.00  0.00    -0.005 C 
ATOM     26  C   UNL     1      28.953 -23.759 -16.411  0.00  0.00    -0.022 C 
ATOM     27  C   UNL     1      28.874 -24.673 -15.361  0.00  0.00    -0.005 C 
ATOM     28  C   UNL     1      30.097 -22.976 -16.569  0.00  0.00    -0.005 C 
ATOM     29  C   UNL     1      27.814 -23.616 -17.362  0.00  0.00    +0.031 C 
ENDBRANCH  22  23
ENDBRANCH  21  22
ENDBRANCH   7  21
TORSDOF 3
ENDMDL
MODEL 8
REMARK VINA RESULT:     -10.0      7.637     11.045
REMARK  Name = 5326929
REMARK  3 active torsions:
REMARK  status: ('A' for Active; 'I' for Inactive)
REMARK    1  A    between atoms: C_7  and  C_21
REMARK    2  A    between atoms: C_21  and  C_22
REMARK    3  A    between atoms: C_22  and  C_23
REMARK                            x       y       z     vdW  Elec       q    Type
REMARK                         _______ _______ _______ _____ _____    ______ ____
ROOT
ATOM      1  O   UNL     1      33.646 -19.391 -26.252  0.00  0.00    -0.209 OA
ATOM      2  N   UNL     1      34.016 -15.850 -24.418  0.00  0.00    -0.275 N 
ATOM      3  N   UNL     1      35.915 -20.160 -21.576  0.00  0.00    -0.315 N 
ATOM      4  N   UNL     1      36.107 -18.180 -20.585  0.00  0.00    -0.316 N 
ATOM      5  N   UNL     1      33.316 -17.126 -26.301  0.00  0.00    -0.302 NA
ATOM      6  N   UNL     1      33.044 -14.800 -26.211  0.00  0.00    -0.320 N 
ATOM      7  C   UNL     1      35.058 -16.863 -22.460  0.00  0.00    +0.007 C 
ATOM      8  C   UNL     1      34.483 -16.977 -23.736  0.00  0.00    +0.060 C 
ATOM      9  C   UNL     1      35.514 -18.028 -21.818  0.00  0.00    +0.056 C 
ATOM     10  C   UNL     1      35.384 -19.255 -22.459  0.00  0.00    +0.060 C 
ATOM     11  C   UNL     1      34.369 -18.234 -24.351  0.00  0.00    +0.109 C 
ATOM     12  C   UNL     1      34.817 -19.407 -23.725  0.00  0.00    +0.029 C 
ATOM     13  C   UNL     1      33.750 -18.297 -25.707  0.00  0.00    +0.208 C 
ATOM     14  C   UNL     1      36.333 -19.469 -20.472  0.00  0.00    +0.182 C 
ATOM     15  C   UNL     1      33.456 -15.991 -25.667  0.00  0.00    +0.248 C 
ATOM     16  H   UNL     1      34.085 -14.959 -24.005  0.00  0.00    +0.156 HD
ATOM     17  H   UNL     1      35.983 -21.132 -21.711  0.00  0.00    +0.148 HD
ATOM     18  H   UNL     1      36.315 -17.476 -19.929  0.00  0.00    +0.148 HD
ATOM     19  H   UNL     1      33.163 -13.962 -25.708  0.00  0.00    +0.146 HD
ATOM     20  H   UNL     1      32.629 -14.784 -27.103  0.00  0.00    +0.146 HD
ENDROOT
BRANCH   7  21
ATOM     21  C   UNL     1      35.185 -15.527 -21.799  0.00  0.00    +0.034 C 
BRANCH  21  22
ATOM     22  C   UNL     1      33.970 -15.143 -20.934  0.00  0.00    +0.031 C 
BRANCH  22  23
ATOM     23  C   UNL     1      33.321 -13.849 -21.358  0.00  0.00    -0.022 C 
ATOM     24  C   UNL     1      33.709 -13.250 -22.547  0.00  0.00    -0.005 C 
ATOM     25  C   UNL     1      32.348 -13.280 -20.552  0.00  0.00    -0.005 C 
ATOM     26  C   UNL     1      32.129 -11.470 -22.136  0.00  0.00    -0.022 C 
ATOM     27  C   UNL     1      33.109 -12.054 -22.938  0.00  0.00    -0.005 C 
ATOM     28  C   UNL     1      31.748 -12.084 -20.942  0.00  0.00    -0.005 C 
ATOM     29  C   UNL     1      31.487 -10.192 -22.555  0.00  0.00    +0.031 C 
ENDBRANCH  22  23
ENDBRANCH  21  22
ENDBRANCH   7  21
TORSDOF 3
ENDMDL
MODEL 9
REMARK VINA RESULT:     -10.0      2.853      5.787
REMARK  Name = 5326929
REMARK  3 active torsions:
REMARK  status: ('A' for Active; 'I' for Inactive)
REMARK    1  A    between atoms: C_7  and  C_21
REMARK    2  A    between atoms: C_21  and  C_22
REMARK    3  A    between atoms: C_22  and  C_23
REMARK                            x       y       z     vdW  Elec       q    Type
REMARK                         _______ _______ _______ _____ _____    ______ ____
ROOT
ATOM      1  O   UNL     1      33.075 -22.740 -19.402  0.00  0.00    -0.209 OA
ATOM      2  N   UNL     1      35.493 -22.865 -16.211  0.00  0.00    -0.275 N 
ATOM      3  N   UNL     1      30.294 -24.393 -15.262  0.00  0.00    -0.315 N 
ATOM      4  N   UNL     1      31.661 -24.453 -13.511  0.00  0.00    -0.316 N 
ATOM      5  N   UNL     1      35.165 -22.415 -18.525  0.00  0.00    -0.302 NA
ATOM      6  N   UNL     1      37.248 -22.129 -17.491  0.00  0.00    -0.320 N 
ATOM      7  C   UNL     1      33.697 -23.651 -14.760  0.00  0.00    +0.007 C 
ATOM      8  C   UNL     1      34.160 -23.244 -16.022  0.00  0.00    +0.060 C 
ATOM      9  C   UNL     1      32.348 -24.023 -14.623  0.00  0.00    +0.056 C 
ATOM     10  C   UNL     1      31.513 -23.977 -15.734  0.00  0.00    +0.060 C 
ATOM     11  C   UNL     1      33.286 -23.211 -17.120  0.00  0.00    +0.109 C 
ATOM     12  C   UNL     1      31.937 -23.577 -17.002  0.00  0.00    +0.029 C 
ATOM     13  C   UNL     1      33.832 -22.771 -18.436  0.00  0.00    +0.208 C 
ATOM     14  C   UNL     1      30.434 -24.665 -13.929  0.00  0.00    +0.182 C 
ATOM     15  C   UNL     1      35.919 -22.471 -17.459  0.00  0.00    +0.248 C 
ATOM     16  H   UNL     1      36.123 -22.880 -15.455  0.00  0.00    +0.156 HD
ATOM     17  H   UNL     1      29.467 -24.479 -15.787  0.00  0.00    +0.148 HD
ATOM     18  H   UNL     1      32.012 -24.574 -12.600  0.00  0.00    +0.148 HD
ATOM     19  H   UNL     1      37.790 -22.182 -16.670  0.00  0.00    +0.146 HD
ATOM     20  H   UNL     1      37.659 -21.832 -18.334  0.00  0.00    +0.146 HD
ENDROOT
BRANCH   7  21
ATOM     21  C   UNL     1      34.623 -23.689 -13.586  0.00  0.00    +0.034 C 
BRANCH  21  22
ATOM     22  C   UNL     1      35.065 -25.109 -13.188  0.00  0.00    +0.031 C 
BRANCH  22  23
ATOM     23  C   UNL     1      36.509 -25.398 -13.517  0.00  0.00    -0.022 C 
ATOM     24  C   UNL     1      36.813 -26.155 -14.639  0.00  0.00    -0.005 C 
ATOM     25  C   UNL     1      37.507 -24.902 -12.693  0.00  0.00    -0.005 C 
ATOM     26  C   UNL     1      39.162 -25.929 -14.122  0.00  0.00    -0.022 C 
ATOM     27  C   UNL     1      38.148 -26.421 -14.942  0.00  0.00    -0.005 C 
ATOM     28  C   UNL     1      38.842 -25.169 -12.997  0.00  0.00    -0.005 C 
ATOM     29  C   UNL     1      40.589 -26.213 -14.447  0.00  0.00    +0.031 C 
ENDBRANCH  22  23
ENDBRANCH  21  22
ENDBRANCH   7  21
TORSDOF 3
ENDMDL
