MODEL 1
REMARK VINA RESULT:     -11.7      0.000      0.000
REMARK  Name = 25114442
REMARK  7 active torsions:
REMARK  status: ('A' for Active; 'I' for Inactive)
REMARK    1  A    between atoms: C_3  and  C_15
REMARK    2  A    between atoms: C_3  and  C_18
REMARK    3  A    between atoms: C_6  and  C_8
REMARK    4  A    between atoms: C_15  and  O_16
REMARK    5  A    between atoms: C_18  and  O_19
REMARK    6  A    between atoms: O_19  and  C_20
REMARK    7  A    between atoms: C_28  and  O_30
REMARK                            x       y       z     vdW  Elec       q    Type
REMARK                         _______ _______ _______ _____ _____    ______ ____
ROOT
ATOM      1  O   UNL     1      32.292 -23.255 -12.536  0.00  0.00    -0.270 OA
ATOM      2  N   UNL     1      33.664 -24.137 -14.160  0.00  0.00    -0.275 N 
ATOM      3  C   UNL     1      35.484 -24.149 -15.094  0.00  0.00    +0.166 C 
ATOM      4  C   UNL     1      34.104 -24.741 -15.403  0.00  0.00    +0.110 C 
ATOM      5  C   UNL     1      35.006 -23.909 -13.657  0.00  0.00    +0.110 C 
ATOM      6  C   UNL     1      32.451 -23.765 -13.641  0.00  0.00    +0.249 C 
ENDROOT
BRANCH   6   8
ATOM      7  F   UNL     1      27.945 -24.577 -16.873  0.00  0.00    -0.204 F 
ATOM      8  C   UNL     1      31.265 -23.980 -14.493  0.00  0.00    +0.054 C 
ATOM      9  C   UNL     1      30.403 -25.044 -14.232  0.00  0.00    +0.007 C 
ATOM     10  C   UNL     1      31.006 -23.117 -15.557  0.00  0.00    +0.007 C 
ATOM     11  C   UNL     1      29.281 -25.246 -15.035  0.00  0.00    +0.030 C 
ATOM     12  C   UNL     1      29.884 -23.319 -16.362  0.00  0.00    +0.030 C 
ATOM     13  C   UNL     1      29.022 -24.383 -16.101  0.00  0.00    +0.140 C 
ENDBRANCH   6   8
BRANCH   3  15
ATOM     14  O   UNL     1      36.647 -26.330 -15.278  0.00  0.00    -0.250 OA
ATOM     15  C   UNL     1      36.694 -25.102 -15.267  0.00  0.00    +0.320 C 
BRANCH  15  16
ATOM     16  O   UNL     1      37.868 -24.427 -15.414  0.00  0.00    -0.480 OA
ATOM     17  H   UNL     1      37.864 -23.539 -15.709  0.00  0.00    +0.295 HD
ENDBRANCH  15  16
ENDBRANCH   3  15
BRANCH   3  18
ATOM     18  C   UNL     1      35.717 -22.845 -15.832  0.00  0.00    +0.219 C 
BRANCH  18  19
ATOM     19  O   UNL     1      36.197 -23.143 -17.143  0.00  0.00    -0.475 OA
BRANCH  19  20
ATOM     20  C   UNL     1      35.693 -22.406 -18.170  0.00  0.00    +0.139 C 
ATOM     21  C   UNL     1      36.527 -21.547 -18.885  0.00  0.00    +0.037 C 
ATOM     22  C   UNL     1      34.345 -22.509 -18.504  0.00  0.00    +0.037 C 
ATOM     23  C   UNL     1      36.022 -20.779 -19.948  0.00  0.00    +0.003 C 
ATOM     24  C   UNL     1      34.652 -20.883 -20.288  0.00  0.00    +0.003 C 
ATOM     25  C   UNL     1      33.827 -21.753 -19.557  0.00  0.00    +0.003 C 
ATOM     26  C   UNL     1      36.848 -19.909 -20.679  0.00  0.00    +0.003 C 
ATOM     27  C   UNL     1      34.149 -20.115 -21.350  0.00  0.00    +0.037 C 
ATOM     28  C   UNL     1      34.982 -19.256 -22.066  0.00  0.00    +0.139 C 
ATOM     29  C   UNL     1      36.329 -19.152 -21.731  0.00  0.00    +0.037 C 
BRANCH  28  30
ATOM     30  O   UNL     1      34.477 -18.517 -23.091  0.00  0.00    -0.471 OA
ATOM     31  C   UNL     1      35.221 -17.366 -23.489  0.00  0.00    +0.252 C 
ENDBRANCH  28  30
ENDBRANCH  19  20
ENDBRANCH  18  19
ENDBRANCH   3  18
TORSDOF 7
ENDMDL
MODEL 2
REMARK VINA RESULT:      -9.5      4.188      9.781
REMARK  Name = 25114442
REMARK  7 active torsions:
REMARK  status: ('A' for Active; 'I' for Inactive)
REMARK    1  A    between atoms: C_3  and  C_15
REMARK    2  A    between atoms: C_3  and  C_18
REMARK    3  A    between atoms: C_6  and  C_8
REMARK    4  A    between atoms: C_15  and  O_16
REMARK    5  A    between atoms: C_18  and  O_19
REMARK    6  A    between atoms: O_19  and  C_20
REMARK    7  A    between atoms: C_28  and  O_30
REMARK                            x       y       z     vdW  Elec       q    Type
REMARK                         _______ _______ _______ _____ _____    ______ ____
ROOT
ATOM      1  O   UNL     1      34.250 -17.239 -25.390  0.00  0.00    -0.270 OA
ATOM      2  N   UNL     1      35.356 -17.410 -23.379  0.00  0.00    -0.275 N 
ATOM      3  C   UNL     1      36.038 -18.589 -21.853  0.00  0.00    +0.166 C 
ATOM      4  C   UNL     1      35.859 -17.080 -22.059  0.00  0.00    +0.110 C 
ATOM      5  C   UNL     1      35.868 -18.767 -23.366  0.00  0.00    +0.110 C 
ATOM      6  C   UNL     1      34.567 -16.771 -24.300  0.00  0.00    +0.249 C 
ENDROOT
BRANCH   6   8
ATOM      7  F   UNL     1      32.616 -11.707 -22.900  0.00  0.00    -0.204 F 
ATOM      8  C   UNL     1      34.052 -15.438 -23.931  0.00  0.00    +0.054 C 
ATOM      9  C   UNL     1      34.236 -14.954 -22.636  0.00  0.00    +0.007 C 
ATOM     10  C   UNL     1      33.385 -14.662 -24.878  0.00  0.00    +0.007 C 
ATOM     11  C   UNL     1      33.751 -13.694 -22.288  0.00  0.00    +0.030 C 
ATOM     12  C   UNL     1      32.899 -13.402 -24.529  0.00  0.00    +0.030 C 
ATOM     13  C   UNL     1      33.082 -12.917 -23.234  0.00  0.00    +0.140 C 
ENDBRANCH   6   8
BRANCH   3  15
ATOM     14  O   UNL     1      38.479 -19.022 -21.830  0.00  0.00    -0.250 OA
ATOM     15  C   UNL     1      37.393 -19.044 -21.254  0.00  0.00    +0.320 C 
BRANCH  15  16
ATOM     16  O   UNL     1      37.269 -19.490 -19.973  0.00  0.00    -0.480 OA
ATOM     17  H   UNL     1      38.024 -19.543 -19.420  0.00  0.00    +0.295 HD
ENDBRANCH  15  16
ENDBRANCH   3  15
BRANCH   3  18
ATOM     18  C   UNL     1      34.880 -19.195 -21.084  0.00  0.00    +0.219 C 
BRANCH  18  19
ATOM     19  O   UNL     1      34.978 -20.617 -21.158  0.00  0.00    -0.475 OA
BRANCH  19  20
ATOM     20  C   UNL     1      34.686 -21.317 -20.028  0.00  0.00    +0.139 C 
ATOM     21  C   UNL     1      35.699 -21.625 -19.119  0.00  0.00    +0.037 C 
ATOM     22  C   UNL     1      33.379 -21.728 -19.781  0.00  0.00    +0.037 C 
ATOM     23  C   UNL     1      35.415 -22.347 -17.948  0.00  0.00    +0.003 C 
ATOM     24  C   UNL     1      34.086 -22.764 -17.696  0.00  0.00    +0.003 C 
ATOM     25  C   UNL     1      33.079 -22.446 -18.623  0.00  0.00    +0.003 C 
ATOM     26  C   UNL     1      36.422 -22.664 -17.022  0.00  0.00    +0.003 C 
ATOM     27  C   UNL     1      33.804 -23.486 -16.526  0.00  0.00    +0.037 C 
ATOM     28  C   UNL     1      34.815 -23.793 -15.617  0.00  0.00    +0.139 C 
ATOM     29  C   UNL     1      36.123 -23.384 -15.864  0.00  0.00    +0.037 C 
BRANCH  28  30
ATOM     30  O   UNL     1      34.525 -24.496 -14.488  0.00  0.00    -0.471 OA
ATOM     31  C   UNL     1      33.322 -24.153 -13.802  0.00  0.00    +0.252 C 
ENDBRANCH  28  30
ENDBRANCH  19  20
ENDBRANCH  18  19
ENDBRANCH   3  18
TORSDOF 7
ENDMDL
MODEL 3
REMARK VINA RESULT:      -9.5      5.207      9.780
REMARK  Name = 25114442
REMARK  7 active torsions:
REMARK  status: ('A' for Active; 'I' for Inactive)
REMARK    1  A    between atoms: C_3  and  C_15
REMARK    2  A    between atoms: C_3  and  C_18
REMARK    3  A    between atoms: C_6  and  C_8
REMARK    4  A    between atoms: C_15  and  O_16
REMARK    5  A    between atoms: C_18  and  O_19
REMARK    6  A    between atoms: O_19  and  C_20
REMARK    7  A    between atoms: C_28  and  O_30
REMARK                            x       y       z     vdW  Elec       q    Type
REMARK                         _______ _______ _______ _____ _____    ______ ____
ROOT
ATOM      1  O   UNL     1      37.531 -19.460 -20.795  0.00  0.00    -0.270 OA
ATOM      2  N   UNL     1      35.823 -18.980 -22.261  0.00  0.00    -0.275 N 
ATOM      3  C   UNL     1      34.898 -17.628 -23.486  0.00  0.00    +0.166 C 
ATOM      4  C   UNL     1      34.522 -18.995 -22.902  0.00  0.00    +0.110 C 
ATOM      5  C   UNL     1      36.351 -17.911 -23.088  0.00  0.00    +0.110 C 
ATOM      6  C   UNL     1      36.377 -19.618 -21.182  0.00  0.00    +0.249 C 
ENDROOT
BRANCH   6   8
ATOM      7  F   UNL     1      33.063 -23.123 -18.328  0.00  0.00    -0.204 F 
ATOM      8  C   UNL     1      35.504 -20.540 -20.430  0.00  0.00    +0.054 C 
ATOM      9  C   UNL     1      34.121 -20.482 -20.596  0.00  0.00    +0.007 C 
ATOM     10  C   UNL     1      36.063 -21.471 -19.555  0.00  0.00    +0.007 C 
ATOM     11  C   UNL     1      33.296 -21.354 -19.886  0.00  0.00    +0.030 C 
ATOM     12  C   UNL     1      35.238 -22.344 -18.844  0.00  0.00    +0.030 C 
ATOM     13  C   UNL     1      33.855 -22.286 -19.010  0.00  0.00    +0.140 C 
ENDBRANCH   6   8
BRANCH   3  15
ATOM     14  O   UNL     1      33.811 -18.058 -25.671  0.00  0.00    -0.250 OA
ATOM     15  C   UNL     1      34.623 -17.428 -24.998  0.00  0.00    +0.320 C 
BRANCH  15  16
ATOM     16  O   UNL     1      35.397 -16.447 -25.540  0.00  0.00    -0.480 OA
ATOM     17  H   UNL     1      35.516 -16.403 -26.467  0.00  0.00    +0.295 HD
ENDBRANCH  15  16
ENDBRANCH   3  15
BRANCH   3  18
ATOM     18  C   UNL     1      34.307 -16.489 -22.678  0.00  0.00    +0.219 C 
BRANCH  18  19
ATOM     19  O   UNL     1      34.732 -15.254 -23.253  0.00  0.00    -0.475 OA
BRANCH  19  20
ATOM     20  C   UNL     1      34.014 -14.142 -22.934  0.00  0.00    +0.139 C 
ATOM     21  C   UNL     1      34.113 -12.999 -23.727  0.00  0.00    +0.037 C 
ATOM     22  C   UNL     1      33.183 -14.147 -21.818  0.00  0.00    +0.037 C 
ATOM     23  C   UNL     1      33.379 -11.843 -23.412  0.00  0.00    +0.003 C 
ATOM     24  C   UNL     1      32.533 -11.848 -22.278  0.00  0.00    +0.003 C 
ATOM     25  C   UNL     1      32.446 -13.008 -21.491  0.00  0.00    +0.003 C 
ATOM     26  C   UNL     1      33.466 -10.683 -24.200  0.00  0.00    +0.003 C 
ATOM     27  C   UNL     1      31.799 -10.692 -21.964  0.00  0.00    +0.037 C 
ATOM     28  C   UNL     1      31.898  -9.549 -22.756  0.00  0.00    +0.139 C 
ATOM     29  C   UNL     1      32.730  -9.543 -23.872  0.00  0.00    +0.037 C 
BRANCH  28  30
ATOM     30  O   UNL     1      31.181  -8.436 -22.436  0.00  0.00    -0.471 OA
ATOM     31  C   UNL     1      31.182  -7.370 -23.383  0.00  0.00    +0.252 C 
ENDBRANCH  28  30
ENDBRANCH  19  20
ENDBRANCH  18  19
ENDBRANCH   3  18
TORSDOF 7
ENDMDL
MODEL 4
REMARK VINA RESULT:      -8.7      3.394      6.776
REMARK  Name = 25114442
REMARK  7 active torsions:
REMARK  status: ('A' for Active; 'I' for Inactive)
REMARK    1  A    between atoms: C_3  and  C_15
REMARK    2  A    between atoms: C_3  and  C_18
REMARK    3  A    between atoms: C_6  and  C_8
REMARK    4  A    between atoms: C_15  and  O_16
REMARK    5  A    between atoms: C_18  and  O_19
REMARK    6  A    between atoms: O_19  and  C_20
REMARK    7  A    between atoms: C_28  and  O_30
REMARK                            x       y       z     vdW  Elec       q    Type
REMARK                         _______ _______ _______ _____ _____    ______ ____
ROOT
ATOM      1  O   UNL     1      35.729 -26.159 -15.823  0.00  0.00    -0.270 OA
ATOM      2  N   UNL     1      36.096 -24.440 -14.337  0.00  0.00    -0.275 N 
ATOM      3  C   UNL     1      36.192 -23.796 -12.398  0.00  0.00    +0.166 C 
ATOM      4  C   UNL     1      36.142 -23.107 -13.767  0.00  0.00    +0.110 C 
ATOM      5  C   UNL     1      36.529 -25.104 -13.122  0.00  0.00    +0.110 C 
ATOM      6  C   UNL     1      35.681 -24.967 -15.532  0.00  0.00    +0.249 C 
ENDROOT
BRANCH   6   8
ATOM      7  F   UNL     1      33.541 -21.394 -19.283  0.00  0.00    -0.204 F 
ATOM      8  C   UNL     1      35.117 -24.025 -16.519  0.00  0.00    +0.054 C 
ATOM      9  C   UNL     1      35.950 -23.115 -17.168  0.00  0.00    +0.007 C 
ATOM     10  C   UNL     1      33.752 -24.048 -16.804  0.00  0.00    +0.007 C 
ATOM     11  C   UNL     1      35.418 -22.226 -18.102  0.00  0.00    +0.030 C 
ATOM     12  C   UNL     1      33.220 -23.158 -17.737  0.00  0.00    +0.030 C 
ATOM     13  C   UNL     1      34.053 -22.248 -18.387  0.00  0.00    +0.140 C 
ENDBRANCH   6   8
BRANCH   3  15
ATOM     14  O   UNL     1      38.340 -22.776 -11.701  0.00  0.00    -0.250 OA
ATOM     15  C   UNL     1      37.254 -23.266 -11.401  0.00  0.00    +0.320 C 
BRANCH  15  16
ATOM     16  O   UNL     1      36.858 -23.396 -10.105  0.00  0.00    -0.480 OA
ATOM     17  H   UNL     1      37.346 -22.980  -9.422  0.00  0.00    +0.295 HD
ENDBRANCH  15  16
ENDBRANCH   3  15
BRANCH   3  18
ATOM     18  C   UNL     1      34.824 -23.852 -11.745  0.00  0.00    +0.219 C 
BRANCH  18  19
ATOM     19  O   UNL     1      34.044 -24.847 -12.408  0.00  0.00    -0.475 OA
BRANCH  19  20
ATOM     20  C   UNL     1      32.981 -24.415 -13.139  0.00  0.00    +0.139 C 
ATOM     21  C   UNL     1      32.085 -25.339 -13.678  0.00  0.00    +0.037 C 
ATOM     22  C   UNL     1      32.788 -23.052 -13.349  0.00  0.00    +0.037 C 
ATOM     23  C   UNL     1      30.983 -24.909 -14.436  0.00  0.00    +0.003 C 
ATOM     24  C   UNL     1      30.786 -23.524 -14.649  0.00  0.00    +0.003 C 
ATOM     25  C   UNL     1      31.698 -22.608 -14.099  0.00  0.00    +0.003 C 
ATOM     26  C   UNL     1      30.071 -25.825 -14.986  0.00  0.00    +0.003 C 
ATOM     27  C   UNL     1      29.684 -23.096 -15.406  0.00  0.00    +0.037 C 
ATOM     28  C   UNL     1      28.788 -24.019 -15.946  0.00  0.00    +0.139 C 
ATOM     29  C   UNL     1      28.981 -25.382 -15.737  0.00  0.00    +0.037 C 
BRANCH  28  30
ATOM     30  O   UNL     1      27.726 -23.587 -16.679  0.00  0.00    -0.471 OA
ATOM     31  C   UNL     1      26.977 -22.493 -16.153  0.00  0.00    +0.252 C 
ENDBRANCH  28  30
ENDBRANCH  19  20
ENDBRANCH  18  19
ENDBRANCH   3  18
TORSDOF 7
ENDMDL
MODEL 5
REMARK VINA RESULT:      -8.7      2.980      5.374
REMARK  Name = 25114442
REMARK  7 active torsions:
REMARK  status: ('A' for Active; 'I' for Inactive)
REMARK    1  A    between atoms: C_3  and  C_15
REMARK    2  A    between atoms: C_3  and  C_18
REMARK    3  A    between atoms: C_6  and  C_8
REMARK    4  A    between atoms: C_15  and  O_16
REMARK    5  A    between atoms: C_18  and  O_19
REMARK    6  A    between atoms: O_19  and  C_20
REMARK    7  A    between atoms: C_28  and  O_30
REMARK                            x       y       z     vdW  Elec       q    Type
REMARK                         _______ _______ _______ _____ _____    ______ ____
ROOT
ATOM      1  O   UNL     1      35.700 -26.401 -15.499  0.00  0.00    -0.270 OA
ATOM      2  N   UNL     1      34.069 -25.187 -14.421  0.00  0.00    -0.275 N 
ATOM      3  C   UNL     1      32.267 -24.221 -14.501  0.00  0.00    +0.166 C 
ATOM      4  C   UNL     1      33.428 -24.268 -13.500  0.00  0.00    +0.110 C 
ATOM      5  C   UNL     1      32.859 -25.466 -15.172  0.00  0.00    +0.110 C 
ATOM      6  C   UNL     1      35.360 -25.588 -14.644  0.00  0.00    +0.249 C 
ENDROOT
BRANCH   6   8
ATOM      7  F   UNL     1      39.330 -23.259 -11.446  0.00  0.00    -0.204 F 
ATOM      8  C   UNL     1      36.406 -24.975 -13.803  0.00  0.00    +0.054 C 
ATOM      9  C   UNL     1      36.692 -23.616 -13.926  0.00  0.00    +0.007 C 
ATOM     10  C   UNL     1      37.107 -25.755 -12.883  0.00  0.00    +0.007 C 
ATOM     11  C   UNL     1      37.679 -23.036 -13.130  0.00  0.00    +0.030 C 
ATOM     12  C   UNL     1      38.096 -25.175 -12.087  0.00  0.00    +0.030 C 
ATOM     13  C   UNL     1      38.381 -23.815 -12.210  0.00  0.00    +0.140 C 
ENDBRANCH   6   8
BRANCH   3  15
ATOM     14  O   UNL     1      30.568 -24.839 -12.806  0.00  0.00    -0.250 OA
ATOM     15  C   UNL     1      30.843 -24.370 -13.908  0.00  0.00    +0.320 C 
BRANCH  15  16
ATOM     16  O   UNL     1      29.879 -23.914 -14.755  0.00  0.00    -0.480 OA
ATOM     17  H   UNL     1      29.074 -23.581 -14.413  0.00  0.00    +0.295 HD
ENDBRANCH  15  16
ENDBRANCH   3  15
BRANCH   3  18
ATOM     18  C   UNL     1      32.349 -23.006 -15.404  0.00  0.00    +0.219 C 
BRANCH  18  19
ATOM     19  O   UNL     1      32.275 -23.440 -16.761  0.00  0.00    -0.475 OA
BRANCH  19  20
ATOM     20  C   UNL     1      33.085 -22.812 -17.657  0.00  0.00    +0.139 C 
ATOM     21  C   UNL     1      32.528 -22.029 -18.669  0.00  0.00    +0.037 C 
ATOM     22  C   UNL     1      34.466 -22.953 -17.565  0.00  0.00    +0.037 C 
ATOM     23  C   UNL     1      33.350 -21.375 -19.602  0.00  0.00    +0.003 C 
ATOM     24  C   UNL     1      34.755 -21.517 -19.508  0.00  0.00    +0.003 C 
ATOM     25  C   UNL     1      35.297 -22.310 -18.483  0.00  0.00    +0.003 C 
ATOM     26  C   UNL     1      32.806 -20.582 -20.626  0.00  0.00    +0.003 C 
ATOM     27  C   UNL     1      35.575 -20.863 -20.441  0.00  0.00    +0.037 C 
ATOM     28  C   UNL     1      35.019 -20.080 -21.452  0.00  0.00    +0.139 C 
ATOM     29  C   UNL     1      33.637 -19.940 -21.546  0.00  0.00    +0.037 C 
BRANCH  28  30
ATOM     30  O   UNL     1      35.829 -19.455 -22.350  0.00  0.00    -0.471 OA
ATOM     31  C   UNL     1      35.198 -18.620 -23.320  0.00  0.00    +0.252 C 
ENDBRANCH  28  30
ENDBRANCH  19  20
ENDBRANCH  18  19
ENDBRANCH   3  18
TORSDOF 7
ENDMDL
