MODEL 1
REMARK VINA RESULT:     -11.9      0.000      0.000
REMARK  Name = 11691242
REMARK  5 active torsions:
REMARK  status: ('A' for Active; 'I' for Inactive)
REMARK    1  A    between atoms: N_1  and  C_25
REMARK    2  A    between atoms: C_5  and  N_11
REMARK    3  A    between atoms: N_12  and  C_17
REMARK    4  A    between atoms: C_18  and  O_23
REMARK    5  A    between atoms: C_25  and  C_28
REMARK                            x       y       z     vdW  Elec       q    Type
REMARK                         _______ _______ _______ _____ _____    ______ ____
ROOT
ATOM      1  N   UNL     1      35.365 -16.986 -22.723  0.00  0.00    -0.282 N 
ATOM      2  C   UNL     1      34.675 -16.317 -23.708  0.00  0.00    +0.053 C 
ATOM      3  C   UNL     1      34.142 -15.164 -23.127  0.00  0.00    +0.028 C 
ATOM      4  C   UNL     1      35.286 -16.298 -21.542  0.00  0.00    +0.066 C 
ATOM      5  C   UNL     1      33.380 -14.290 -23.927  0.00  0.00    +0.053 C 
ATOM      6  C   UNL     1      34.535 -15.167 -21.759  0.00  0.00    +0.019 C 
ATOM      7  C   UNL     1      34.484 -16.640 -25.056  0.00  0.00    +0.015 C 
ATOM      8  C   UNL     1      33.180 -14.601 -25.278  0.00  0.00    +0.015 C 
ATOM      9  C   UNL     1      33.725 -15.758 -25.832  0.00  0.00    +0.003 C 
ENDROOT
BRANCH   5  11
ATOM     10  O   UNL     1      34.442 -11.499 -23.874  0.00  0.00    -0.252 OA
ATOM     11  N   UNL     1      32.824 -13.126 -23.397  0.00  0.00    -0.268 N 
ATOM     12  N   UNL     1      32.470 -10.937 -22.751  0.00  0.00    -0.266 N 
ATOM     13  C   UNL     1      33.359 -11.815 -23.391  0.00  0.00    +0.308 C 
ATOM     14  H   UNL     1      31.943 -13.228 -22.970  0.00  0.00    +0.156 HD
ATOM     15  H   UNL     1      31.637 -11.337 -22.412  0.00  0.00    +0.157 HD
BRANCH  12  17
ATOM     16 BR   UNL     1      34.400  -6.385 -24.546  0.00  0.00    -0.049 Br
ATOM     17  C   UNL     1      32.623  -9.547 -22.534  0.00  0.00    +0.086 C 
ATOM     18  C   UNL     1      32.093  -8.962 -21.394  0.00  0.00    +0.152 C 
ATOM     19  C   UNL     1      33.306  -8.797 -23.477  0.00  0.00    +0.024 C 
ATOM     20  C   UNL     1      32.252  -7.591 -21.193  0.00  0.00    +0.039 C 
ATOM     21  C   UNL     1      33.465  -7.425 -23.275  0.00  0.00    +0.036 C 
ATOM     22  C   UNL     1      32.937  -6.823 -22.134  0.00  0.00    +0.010 C 
BRANCH  18  23
ATOM     23  O   UNL     1      31.421  -9.696 -20.463  0.00  0.00    -0.470 OA
ATOM     24  C   UNL     1      32.129 -10.038 -19.272  0.00  0.00    +0.253 C 
ENDBRANCH  18  23
ENDBRANCH  12  17
ENDBRANCH   5  11
BRANCH   1  25
ATOM     25  C   UNL     1      36.072 -18.237 -22.893  0.00  0.00    +0.122 C 
BRANCH  25  28
ATOM     26  N   UNL     1      35.008 -21.065 -19.854  0.00  0.00    -0.230 NA
ATOM     27  N   UNL     1      32.728 -20.905 -20.523  0.00  0.00    -0.343 N 
ATOM     28  C   UNL     1      35.698 -19.229 -21.826  0.00  0.00    +0.002 C 
ATOM     29  C   UNL     1      34.375 -19.604 -21.673  0.00  0.00    +0.031 C 
ATOM     30  C   UNL     1      36.682 -19.757 -21.009  0.00  0.00    +0.018 C 
ATOM     31  C   UNL     1      34.083 -20.522 -20.677  0.00  0.00    +0.125 C 
ATOM     32  C   UNL     1      36.287 -20.668 -20.042  0.00  0.00    +0.100 C 
ATOM     33  H   UNL     1      32.476 -21.554 -19.828  0.00  0.00    +0.144 HD
ATOM     34  H   UNL     1      32.038 -20.522 -21.113  0.00  0.00    +0.144 HD
ENDBRANCH  25  28
ENDBRANCH   1  25
TORSDOF 5
ENDMDL
MODEL 2
REMARK VINA RESULT:     -11.3      5.585      9.646
REMARK  Name = 11691242
REMARK  5 active torsions:
REMARK  status: ('A' for Active; 'I' for Inactive)
REMARK    1  A    between atoms: N_1  and  C_25
REMARK    2  A    between atoms: C_5  and  N_11
REMARK    3  A    between atoms: N_12  and  C_17
REMARK    4  A    between atoms: C_18  and  O_23
REMARK    5  A    between atoms: C_25  and  C_28
REMARK                            x       y       z     vdW  Elec       q    Type
REMARK                         _______ _______ _______ _____ _____    ______ ____
ROOT
ATOM      1  N   UNL     1      36.332 -22.890 -15.824  0.00  0.00    -0.282 N 
ATOM      2  C   UNL     1      35.403 -22.907 -16.840  0.00  0.00    +0.053 C 
ATOM      3  C   UNL     1      35.871 -22.051 -17.839  0.00  0.00    +0.028 C 
ATOM      4  C   UNL     1      37.367 -22.054 -16.145  0.00  0.00    +0.066 C 
ATOM      5  C   UNL     1      35.099 -21.883 -19.006  0.00  0.00    +0.053 C 
ATOM      6  C   UNL     1      37.111 -21.519 -17.386  0.00  0.00    +0.019 C 
ATOM      7  C   UNL     1      34.198 -23.608 -16.950  0.00  0.00    +0.015 C 
ATOM      8  C   UNL     1      33.890 -22.578 -19.130  0.00  0.00    +0.015 C 
ATOM      9  C   UNL     1      33.448 -23.427 -18.117  0.00  0.00    +0.003 C 
ENDROOT
BRANCH   5  11
ATOM     10  O   UNL     1      33.556 -19.911 -20.633  0.00  0.00    -0.252 OA
ATOM     11  N   UNL     1      35.520 -21.040 -20.035  0.00  0.00    -0.268 N 
ATOM     12  N   UNL     1      35.575 -19.469 -21.727  0.00  0.00    -0.266 N 
ATOM     13  C   UNL     1      34.756 -20.114 -20.786  0.00  0.00    +0.308 C 
ATOM     14  H   UNL     1      36.475 -21.095 -20.270  0.00  0.00    +0.156 HD
ATOM     15  H   UNL     1      36.522 -19.738 -21.732  0.00  0.00    +0.157 HD
BRANCH  12  17
ATOM     16 BR   UNL     1      34.564 -14.381 -22.600  0.00  0.00    -0.049 Br
ATOM     17  C   UNL     1      35.207 -18.479 -22.668  0.00  0.00    +0.086 C 
ATOM     18  C   UNL     1      34.967 -18.832 -23.987  0.00  0.00    +0.152 C 
ATOM     19  C   UNL     1      35.094 -17.165 -22.243  0.00  0.00    +0.024 C 
ATOM     20  C   UNL     1      34.605 -17.846 -24.904  0.00  0.00    +0.039 C 
ATOM     21  C   UNL     1      34.731 -16.178 -23.161  0.00  0.00    +0.036 C 
ATOM     22  C   UNL     1      34.487 -16.519 -24.491  0.00  0.00    +0.010 C 
BRANCH  18  23
ATOM     23  O   UNL     1      35.076 -20.124 -24.409  0.00  0.00    -0.470 OA
ATOM     24  C   UNL     1      34.287 -20.506 -25.535  0.00  0.00    +0.253 C 
ENDBRANCH  18  23
ENDBRANCH  12  17
ENDBRANCH   5  11
BRANCH   1  25
ATOM     25  C   UNL     1      36.240 -23.637 -14.588  0.00  0.00    +0.122 C 
BRANCH  25  28
ATOM     26  N   UNL     1      38.335 -27.366 -14.850  0.00  0.00    -0.230 NA
ATOM     27  N   UNL     1      40.291 -26.311 -13.992  0.00  0.00    -0.343 N 
ATOM     28  C   UNL     1      36.976 -24.945 -14.680  0.00  0.00    +0.002 C 
ATOM     29  C   UNL     1      38.302 -25.015 -14.290  0.00  0.00    +0.031 C 
ATOM     30  C   UNL     1      36.319 -26.066 -15.154  0.00  0.00    +0.018 C 
ATOM     31  C   UNL     1      38.934 -26.243 -14.394  0.00  0.00    +0.125 C 
ATOM     32  C   UNL     1      37.040 -27.248 -15.219  0.00  0.00    +0.100 C 
ATOM     33  H   UNL     1      40.779 -27.164 -14.049  0.00  0.00    +0.144 HD
ATOM     34  H   UNL     1      40.746 -25.505 -13.656  0.00  0.00    +0.144 HD
ENDBRANCH  25  28
ENDBRANCH   1  25
TORSDOF 5
ENDMDL
MODEL 3
REMARK VINA RESULT:     -10.5      6.930     12.449
REMARK  Name = 11691242
REMARK  5 active torsions:
REMARK  status: ('A' for Active; 'I' for Inactive)
REMARK    1  A    between atoms: N_1  and  C_25
REMARK    2  A    between atoms: C_5  and  N_11
REMARK    3  A    between atoms: N_12  and  C_17
REMARK    4  A    between atoms: C_18  and  O_23
REMARK    5  A    between atoms: C_25  and  C_28
REMARK                            x       y       z     vdW  Elec       q    Type
REMARK                         _______ _______ _______ _____ _____    ______ ____
ROOT
ATOM      1  N   UNL     1      36.037 -19.288 -21.691  0.00  0.00    -0.282 N 
ATOM      2  C   UNL     1      35.303 -20.152 -20.910  0.00  0.00    +0.053 C 
ATOM      3  C   UNL     1      36.182 -20.709 -19.977  0.00  0.00    +0.028 C 
ATOM      4  C   UNL     1      37.344 -19.279 -21.287  0.00  0.00    +0.066 C 
ATOM      5  C   UNL     1      35.682 -21.639 -19.045  0.00  0.00    +0.053 C 
ATOM      6  C   UNL     1      37.467 -20.150 -20.228  0.00  0.00    +0.019 C 
ATOM      7  C   UNL     1      33.944 -20.479 -20.956  0.00  0.00    +0.015 C 
ATOM      8  C   UNL     1      34.323 -21.977 -19.080  0.00  0.00    +0.015 C 
ATOM      9  C   UNL     1      33.470 -21.405 -20.020  0.00  0.00    +0.003 C 
ENDROOT
BRANCH   5  11
ATOM     10  O   UNL     1      35.032 -22.816 -16.378  0.00  0.00    -0.252 OA
ATOM     11  N   UNL     1      36.515 -22.226 -18.093  0.00  0.00    -0.268 N 
ATOM     12  N   UNL     1      37.320 -23.262 -16.192  0.00  0.00    -0.266 N 
ATOM     13  C   UNL     1      36.170 -22.776 -16.834  0.00  0.00    +0.308 C 
ATOM     14  H   UNL     1      37.472 -22.264 -18.326  0.00  0.00    +0.156 HD
ATOM     15  H   UNL     1      38.166 -23.159 -16.684  0.00  0.00    +0.157 HD
BRANCH  12  17
ATOM     16 BR   UNL     1      34.973 -24.244 -11.588  0.00  0.00    -0.049 Br
ATOM     17  C   UNL     1      37.411 -23.885 -14.924  0.00  0.00    +0.086 C 
ATOM     18  C   UNL     1      38.557 -24.585 -14.578  0.00  0.00    +0.152 C 
ATOM     19  C   UNL     1      36.342 -23.777 -14.050  0.00  0.00    +0.024 C 
ATOM     20  C   UNL     1      38.633 -25.194 -13.326  0.00  0.00    +0.039 C 
ATOM     21  C   UNL     1      36.418 -24.385 -12.797  0.00  0.00    +0.036 C 
ATOM     22  C   UNL     1      37.563 -25.094 -12.435  0.00  0.00    +0.010 C 
BRANCH  18  23
ATOM     23  O   UNL     1      39.612 -24.693 -15.434  0.00  0.00    -0.470 OA
ATOM     24  C   UNL     1      40.513 -25.778 -15.219  0.00  0.00    +0.253 C 
ENDBRANCH  18  23
ENDBRANCH  12  17
ENDBRANCH   5  11
BRANCH   1  25
ATOM     25  C   UNL     1      35.517 -18.498 -22.787  0.00  0.00    +0.122 C 
BRANCH  25  28
ATOM     26  N   UNL     1      34.479 -14.541 -21.512  0.00  0.00    -0.230 NA
ATOM     27  N   UNL     1      34.155 -13.908 -23.785  0.00  0.00    -0.343 N 
ATOM     28  C   UNL     1      35.153 -17.109 -22.340  0.00  0.00    +0.002 C 
ATOM     29  C   UNL     1      34.823 -16.151 -23.282  0.00  0.00    +0.031 C 
ATOM     30  C   UNL     1      35.152 -16.804 -20.991  0.00  0.00    +0.018 C 
ATOM     31  C   UNL     1      34.494 -14.887 -22.818  0.00  0.00    +0.125 C 
ATOM     32  C   UNL     1      34.809 -15.511 -20.630  0.00  0.00    +0.100 C 
ATOM     33  H   UNL     1      33.914 -12.998 -23.500  0.00  0.00    +0.144 HD
ATOM     34  H   UNL     1      34.159 -14.140 -24.743  0.00  0.00    +0.144 HD
ENDBRANCH  25  28
ENDBRANCH   1  25
TORSDOF 5
ENDMDL
MODEL 4
REMARK VINA RESULT:     -10.5      5.791      9.751
REMARK  Name = 11691242
REMARK  5 active torsions:
REMARK  status: ('A' for Active; 'I' for Inactive)
REMARK    1  A    between atoms: N_1  and  C_25
REMARK    2  A    between atoms: C_5  and  N_11
REMARK    3  A    between atoms: N_12  and  C_17
REMARK    4  A    between atoms: C_18  and  O_23
REMARK    5  A    between atoms: C_25  and  C_28
REMARK                            x       y       z     vdW  Elec       q    Type
REMARK                         _______ _______ _______ _____ _____    ______ ____
ROOT
ATOM      1  N   UNL     1      36.472 -22.949 -15.679  0.00  0.00    -0.282 N 
ATOM      2  C   UNL     1      35.469 -22.970 -16.622  0.00  0.00    +0.053 C 
ATOM      3  C   UNL     1      35.883 -22.156 -17.680  0.00  0.00    +0.028 C 
ATOM      4  C   UNL     1      37.501 -22.152 -16.102  0.00  0.00    +0.066 C 
ATOM      5  C   UNL     1      35.031 -22.002 -18.791  0.00  0.00    +0.053 C 
ATOM      6  C   UNL     1      37.167 -21.647 -17.337  0.00  0.00    +0.019 C 
ATOM      7  C   UNL     1      34.241 -23.639 -16.621  0.00  0.00    +0.015 C 
ATOM      8  C   UNL     1      33.798 -22.666 -18.804  0.00  0.00    +0.015 C 
ATOM      9  C   UNL     1      33.412 -23.472 -17.735  0.00  0.00    +0.003 C 
ENDROOT
BRANCH   5  11
ATOM     10  O   UNL     1      33.354 -20.281 -20.566  0.00  0.00    -0.252 OA
ATOM     11  N   UNL     1      35.395 -21.201 -19.874  0.00  0.00    -0.268 N 
ATOM     12  N   UNL     1      35.345 -19.753 -21.673  0.00  0.00    -0.266 N 
ATOM     13  C   UNL     1      34.569 -20.396 -20.695  0.00  0.00    +0.308 C 
ATOM     14  H   UNL     1      36.354 -21.194 -20.098  0.00  0.00    +0.156 HD
ATOM     15  H   UNL     1      36.310 -19.943 -21.652  0.00  0.00    +0.157 HD
BRANCH  12  17
ATOM     16 BR   UNL     1      32.803 -19.191 -26.244  0.00  0.00    -0.049 Br
ATOM     17  C   UNL     1      34.910 -18.865 -22.685  0.00  0.00    +0.086 C 
ATOM     18  C   UNL     1      35.196 -17.512 -22.589  0.00  0.00    +0.152 C 
ATOM     19  C   UNL     1      34.201 -19.377 -23.760  0.00  0.00    +0.024 C 
ATOM     20  C   UNL     1      34.760 -16.649 -23.594  0.00  0.00    +0.039 C 
ATOM     21  C   UNL     1      33.766 -18.513 -24.766  0.00  0.00    +0.036 C 
ATOM     22  C   UNL     1      34.045 -17.149 -24.683  0.00  0.00    +0.010 C 
BRANCH  18  23
ATOM     23  O   UNL     1      35.894 -17.005 -21.535  0.00  0.00    -0.470 OA
ATOM     24  C   UNL     1      35.149 -16.300 -20.543  0.00  0.00    +0.253 C 
ENDBRANCH  18  23
ENDBRANCH  12  17
ENDBRANCH   5  11
BRANCH   1  25
ATOM     25  C   UNL     1      36.453 -23.656 -14.417  0.00  0.00    +0.122 C 
BRANCH  25  28
ATOM     26  N   UNL     1      38.454 -27.435 -14.708  0.00  0.00    -0.230 NA
ATOM     27  N   UNL     1      40.475 -26.404 -13.980  0.00  0.00    -0.343 N 
ATOM     28  C   UNL     1      37.156 -24.982 -14.520  0.00  0.00    +0.002 C 
ATOM     29  C   UNL     1      38.499 -25.072 -14.199  0.00  0.00    +0.031 C 
ATOM     30  C   UNL     1      36.452 -26.099 -14.932  0.00  0.00    +0.018 C 
ATOM     31  C   UNL     1      39.100 -26.316 -14.309  0.00  0.00    +0.125 C 
ATOM     32  C   UNL     1      37.144 -27.297 -15.010  0.00  0.00    +0.100 C 
ATOM     33  H   UNL     1      40.941 -27.269 -14.043  0.00  0.00    +0.144 HD
ATOM     34  H   UNL     1      40.963 -25.601 -13.686  0.00  0.00    +0.144 HD
ENDBRANCH  25  28
ENDBRANCH   1  25
TORSDOF 5
ENDMDL
MODEL 5
REMARK VINA RESULT:     -10.3      2.297      3.537
REMARK  Name = 11691242
REMARK  5 active torsions:
REMARK  status: ('A' for Active; 'I' for Inactive)
REMARK    1  A    between atoms: N_1  and  C_25
REMARK    2  A    between atoms: C_5  and  N_11
REMARK    3  A    between atoms: N_12  and  C_17
REMARK    4  A    between atoms: C_18  and  O_23
REMARK    5  A    between atoms: C_25  and  C_28
REMARK                            x       y       z     vdW  Elec       q    Type
REMARK                         _______ _______ _______ _____ _____    ______ ____
ROOT
ATOM      1  N   UNL     1      35.658 -18.915 -21.797  0.00  0.00    -0.282 N 
ATOM      2  C   UNL     1      35.109 -18.694 -23.039  0.00  0.00    +0.053 C 
ATOM      3  C   UNL     1      34.957 -17.313 -23.182  0.00  0.00    +0.028 C 
ATOM      4  C   UNL     1      35.858 -17.726 -21.150  0.00  0.00    +0.066 C 
ATOM      5  C   UNL     1      34.409 -16.810 -24.378  0.00  0.00    +0.053 C 
ATOM      6  C   UNL     1      35.433 -16.714 -21.981  0.00  0.00    +0.019 C 
ATOM      7  C   UNL     1      34.739 -19.600 -24.039  0.00  0.00    +0.015 C 
ATOM      8  C   UNL     1      34.033 -17.705 -25.386  0.00  0.00    +0.015 C 
ATOM      9  C   UNL     1      34.197 -19.078 -25.218  0.00  0.00    +0.003 C 
ENDROOT
BRANCH   5  11
ATOM     10  O   UNL     1      33.381 -14.714 -22.513  0.00  0.00    -0.252 OA
ATOM     11  N   UNL     1      34.235 -15.439 -24.571  0.00  0.00    -0.268 N 
ATOM     12  N   UNL     1      33.732 -13.206 -24.265  0.00  0.00    -0.266 N 
ATOM     13  C   UNL     1      33.743 -14.473 -23.661  0.00  0.00    +0.308 C 
ATOM     14  H   UNL     1      34.487 -15.097 -25.460  0.00  0.00    +0.156 HD
ATOM     15  H   UNL     1      34.053 -13.168 -25.195  0.00  0.00    +0.157 HD
BRANCH  12  17
ATOM     16 BR   UNL     1      31.264 -10.789 -20.298  0.00  0.00    -0.049 Br
ATOM     17  C   UNL     1      33.316 -11.976 -23.702  0.00  0.00    +0.086 C 
ATOM     18  C   UNL     1      33.600 -10.785 -24.353  0.00  0.00    +0.152 C 
ATOM     19  C   UNL     1      32.627 -11.992 -22.500  0.00  0.00    +0.024 C 
ATOM     20  C   UNL     1      33.185  -9.581 -23.786  0.00  0.00    +0.039 C 
ATOM     21  C   UNL     1      32.211 -10.787 -21.933  0.00  0.00    +0.036 C 
ATOM     22  C   UNL     1      32.490  -9.582 -22.576  0.00  0.00    +0.010 C 
BRANCH  18  23
ATOM     23  O   UNL     1      34.276 -10.763 -25.536  0.00  0.00    -0.470 OA
ATOM     24  C   UNL     1      35.637 -10.337 -25.497  0.00  0.00    +0.253 C 
ENDBRANCH  18  23
ENDBRANCH  12  17
ENDBRANCH   5  11
BRANCH   1  25
ATOM     25  C   UNL     1      35.980 -20.211 -21.238  0.00  0.00    +0.122 C 
BRANCH  25  28
ATOM     26  N   UNL     1      32.643 -21.875 -19.126  0.00  0.00    -0.230 NA
ATOM     27  N   UNL     1      34.145 -23.151 -17.788  0.00  0.00    -0.343 N 
ATOM     28  C   UNL     1      34.809 -20.796 -20.497  0.00  0.00    +0.002 C 
ATOM     29  C   UNL     1      35.028 -21.709 -19.481  0.00  0.00    +0.031 C 
ATOM     30  C   UNL     1      33.524 -20.414 -20.839  0.00  0.00    +0.018 C 
ATOM     31  C   UNL     1      33.917 -22.217 -18.828  0.00  0.00    +0.125 C 
ATOM     32  C   UNL     1      32.480 -20.980 -20.126  0.00  0.00    +0.100 C 
ATOM     33  H   UNL     1      33.384 -23.536 -17.297  0.00  0.00    +0.144 HD
ATOM     34  H   UNL     1      35.065 -23.413 -17.554  0.00  0.00    +0.144 HD
ENDBRANCH  25  28
ENDBRANCH   1  25
TORSDOF 5
ENDMDL
MODEL 6
REMARK VINA RESULT:     -10.1      3.640     10.149
REMARK  Name = 11691242
REMARK  5 active torsions:
REMARK  status: ('A' for Active; 'I' for Inactive)
REMARK    1  A    between atoms: N_1  and  C_25
REMARK    2  A    between atoms: C_5  and  N_11
REMARK    3  A    between atoms: N_12  and  C_17
REMARK    4  A    between atoms: C_18  and  O_23
REMARK    5  A    between atoms: C_25  and  C_28
REMARK                            x       y       z     vdW  Elec       q    Type
REMARK                         _______ _______ _______ _____ _____    ______ ____
ROOT
ATOM      1  N   UNL     1      32.207  -9.896 -21.768  0.00  0.00    -0.282 N 
ATOM      2  C   UNL     1      33.089 -10.149 -22.794  0.00  0.00    +0.053 C 
ATOM      3  C   UNL     1      32.973 -11.504 -23.110  0.00  0.00    +0.028 C 
ATOM      4  C   UNL     1      31.541 -11.041 -21.425  0.00  0.00    +0.066 C 
ATOM      5  C   UNL     1      33.776 -12.032 -24.140  0.00  0.00    +0.053 C 
ATOM      6  C   UNL     1      31.993 -12.055 -22.237  0.00  0.00    +0.019 C 
ATOM      7  C   UNL     1      33.971  -9.291 -23.460  0.00  0.00    +0.015 C 
ATOM      8  C   UNL     1      34.664 -11.185 -24.816  0.00  0.00    +0.015 C 
ATOM      9  C   UNL     1      34.758  -9.836 -24.480  0.00  0.00    +0.003 C 
ENDROOT
BRANCH   5  11
ATOM     10  O   UNL     1      34.937 -14.444 -22.814  0.00  0.00    -0.252 OA
ATOM     11  N   UNL     1      33.701 -13.379 -24.496  0.00  0.00    -0.268 N 
ATOM     12  N   UNL     1      33.946 -15.675 -24.538  0.00  0.00    -0.266 N 
ATOM     13  C   UNL     1      34.266 -14.499 -23.841  0.00  0.00    +0.308 C 
ATOM     14  H   UNL     1      33.186 -13.578 -25.312  0.00  0.00    +0.156 HD
ATOM     15  H   UNL     1      33.398 -15.561 -25.348  0.00  0.00    +0.157 HD
BRANCH  12  17
ATOM     16 BR   UNL     1      36.701 -18.844 -21.370  0.00  0.00    -0.049 Br
ATOM     17  C   UNL     1      34.313 -17.004 -24.220  0.00  0.00    +0.086 C 
ATOM     18  C   UNL     1      33.822 -18.058 -24.975  0.00  0.00    +0.152 C 
ATOM     19  C   UNL     1      35.164 -17.221 -23.148  0.00  0.00    +0.024 C 
ATOM     20  C   UNL     1      34.192 -19.362 -24.649  0.00  0.00    +0.039 C 
ATOM     21  C   UNL     1      35.535 -18.526 -22.823  0.00  0.00    +0.036 C 
ATOM     22  C   UNL     1      35.049 -19.597 -23.573  0.00  0.00    +0.010 C 
BRANCH  18  23
ATOM     23  O   UNL     1      32.986 -17.849 -26.030  0.00  0.00    -0.470 OA
ATOM     24  C   UNL     1      31.818 -18.666 -26.104  0.00  0.00    +0.253 C 
ENDBRANCH  18  23
ENDBRANCH  12  17
ENDBRANCH   5  11
BRANCH   1  25
ATOM     25  C   UNL     1      32.006  -8.612 -21.130  0.00  0.00    +0.122 C 
BRANCH  25  28
ATOM     26  N   UNL     1      30.974  -5.591 -23.988  0.00  0.00    -0.230 NA
ATOM     27  N   UNL     1      31.817  -3.924 -22.509  0.00  0.00    -0.343 N 
ATOM     28  C   UNL     1      31.643  -7.551 -22.132  0.00  0.00    +0.002 C 
ATOM     29  C   UNL     1      31.902  -6.222 -21.847  0.00  0.00    +0.031 C 
ATOM     30  C   UNL     1      31.055  -7.915 -23.330  0.00  0.00    +0.018 C 
ATOM     31  C   UNL     1      31.550  -5.284 -22.804  0.00  0.00    +0.125 C 
ATOM     32  C   UNL     1      30.741  -6.902 -24.221  0.00  0.00    +0.100 C 
ATOM     33  H   UNL     1      31.584  -3.225 -23.161  0.00  0.00    +0.144 HD
ATOM     34  H   UNL     1      32.237  -3.679 -21.653  0.00  0.00    +0.144 HD
ENDBRANCH  25  28
ENDBRANCH   1  25
TORSDOF 5
ENDMDL
MODEL 7
REMARK VINA RESULT:      -9.9      2.867      5.025
REMARK  Name = 11691242
REMARK  5 active torsions:
REMARK  status: ('A' for Active; 'I' for Inactive)
REMARK    1  A    between atoms: N_1  and  C_25
REMARK    2  A    between atoms: C_5  and  N_11
REMARK    3  A    between atoms: N_12  and  C_17
REMARK    4  A    between atoms: C_18  and  O_23
REMARK    5  A    between atoms: C_25  and  C_28
REMARK                            x       y       z     vdW  Elec       q    Type
REMARK                         _______ _______ _______ _____ _____    ______ ____
ROOT
ATOM      1  N   UNL     1      33.899 -13.119 -23.175  0.00  0.00    -0.282 N 
ATOM      2  C   UNL     1      32.961 -12.489 -22.390  0.00  0.00    +0.053 C 
ATOM      3  C   UNL     1      32.618 -11.298 -23.035  0.00  0.00    +0.028 C 
ATOM      4  C   UNL     1      34.161 -12.371 -24.291  0.00  0.00    +0.066 C 
ATOM      5  C   UNL     1      31.665 -10.452 -22.436  0.00  0.00    +0.053 C 
ATOM      6  C   UNL     1      33.385 -11.237 -24.233  0.00  0.00    +0.019 C 
ATOM      7  C   UNL     1      32.394 -12.877 -21.171  0.00  0.00    +0.015 C 
ATOM      8  C   UNL     1      31.089 -10.827 -21.216  0.00  0.00    +0.015 C 
ATOM      9  C   UNL     1      31.450 -12.021 -20.595  0.00  0.00    +0.003 C 
ENDROOT
BRANCH   5  11
ATOM     10  O   UNL     1      33.155  -7.877 -22.705  0.00  0.00    -0.252 OA
ATOM     11  N   UNL     1      31.286  -9.251 -23.038  0.00  0.00    -0.268 N 
ATOM     12  N   UNL     1      31.265  -7.082 -23.830  0.00  0.00    -0.266 N 
ATOM     13  C   UNL     1      32.022  -8.046 -23.146  0.00  0.00    +0.308 C 
ATOM     14  H   UNL     1      30.388  -9.239 -23.441  0.00  0.00    +0.156 HD
ATOM     15  H   UNL     1      30.370  -7.365 -24.125  0.00  0.00    +0.157 HD
BRANCH  12  17
ATOM     16 BR   UNL     1      34.147  -3.919 -26.890  0.00  0.00    -0.049 Br
ATOM     17  C   UNL     1      31.632  -5.752 -24.148  0.00  0.00    +0.086 C 
ATOM     18  C   UNL     1      31.086  -4.695 -23.437  0.00  0.00    +0.152 C 
ATOM     19  C   UNL     1      32.538  -5.538 -25.174  0.00  0.00    +0.024 C 
ATOM     20  C   UNL     1      31.455  -3.390 -23.761  0.00  0.00    +0.039 C 
ATOM     21  C   UNL     1      32.908  -4.233 -25.498  0.00  0.00    +0.036 C 
ATOM     22  C   UNL     1      32.367  -3.159 -24.792  0.00  0.00    +0.010 C 
BRANCH  18  23
ATOM     23  O   UNL     1      30.195  -4.900 -22.426  0.00  0.00    -0.470 OA
ATOM     24  C   UNL     1      30.734  -5.191 -21.137  0.00  0.00    +0.253 C 
ENDBRANCH  18  23
ENDBRANCH  12  17
ENDBRANCH   5  11
BRANCH   1  25
ATOM     25  C   UNL     1      34.530 -14.387 -22.877  0.00  0.00    +0.122 C 
BRANCH  25  28
ATOM     26  N   UNL     1      33.671 -17.309 -25.892  0.00  0.00    -0.230 NA
ATOM     27  N   UNL     1      34.813 -18.955 -24.603  0.00  0.00    -0.343 N 
ATOM     28  C   UNL     1      34.230 -15.413 -23.936  0.00  0.00    +0.002 C 
ATOM     29  C   UNL     1      34.667 -16.715 -23.772  0.00  0.00    +0.031 C 
ATOM     30  C   UNL     1      33.517 -15.044 -25.062  0.00  0.00    +0.018 C 
ATOM     31  C   UNL     1      34.363 -17.622 -24.774  0.00  0.00    +0.125 C 
ATOM     32  C   UNL     1      33.265 -16.025 -26.007  0.00  0.00    +0.100 C 
ATOM     33  H   UNL     1      34.618 -19.632 -25.290  0.00  0.00    +0.144 HD
ATOM     34  H   UNL     1      35.318 -19.204 -23.795  0.00  0.00    +0.144 HD
ENDBRANCH  25  28
ENDBRANCH   1  25
TORSDOF 5
ENDMDL
MODEL 8
REMARK VINA RESULT:      -9.7      5.043     10.358
REMARK  Name = 11691242
REMARK  5 active torsions:
REMARK  status: ('A' for Active; 'I' for Inactive)
REMARK    1  A    between atoms: N_1  and  C_25
REMARK    2  A    between atoms: C_5  and  N_11
REMARK    3  A    between atoms: N_12  and  C_17
REMARK    4  A    between atoms: C_18  and  O_23
REMARK    5  A    between atoms: C_25  and  C_28
REMARK                            x       y       z     vdW  Elec       q    Type
REMARK                         _______ _______ _______ _____ _____    ______ ____
ROOT
ATOM      1  N   UNL     1      34.787 -15.742 -22.991  0.00  0.00    -0.282 N 
ATOM      2  C   UNL     1      34.702 -17.038 -23.446  0.00  0.00    +0.053 C 
ATOM      3  C   UNL     1      34.986 -17.873 -22.362  0.00  0.00    +0.028 C 
ATOM      4  C   UNL     1      35.113 -15.728 -21.662  0.00  0.00    +0.066 C 
ATOM      5  C   UNL     1      34.968 -19.268 -22.558  0.00  0.00    +0.053 C 
ATOM      6  C   UNL     1      35.244 -17.032 -21.243  0.00  0.00    +0.019 C 
ATOM      7  C   UNL     1      34.400 -17.531 -24.719  0.00  0.00    +0.015 C 
ATOM      8  C   UNL     1      34.667 -19.776 -23.827  0.00  0.00    +0.015 C 
ATOM      9  C   UNL     1      34.387 -18.919 -24.890  0.00  0.00    +0.003 C 
ENDROOT
BRANCH   5  11
ATOM     10  O   UNL     1      33.190 -20.308 -20.395  0.00  0.00    -0.252 OA
ATOM     11  N   UNL     1      35.244 -20.147 -21.510  0.00  0.00    -0.268 N 
ATOM     12  N   UNL     1      35.061 -21.492 -19.641  0.00  0.00    -0.266 N 
ATOM     13  C   UNL     1      34.372 -20.620 -20.500  0.00  0.00    +0.308 C 
ATOM     14  H   UNL     1      36.169 -20.484 -21.467  0.00  0.00    +0.156 HD
ATOM     15  H   UNL     1      36.010 -21.646 -19.852  0.00  0.00    +0.157 HD
BRANCH  12  17
ATOM     16 BR   UNL     1      30.813 -23.261 -17.092  0.00  0.00    -0.049 Br
ATOM     17  C   UNL     1      34.558 -22.177 -18.510  0.00  0.00    +0.086 C 
ATOM     18  C   UNL     1      35.432 -22.662 -17.549  0.00  0.00    +0.152 C 
ATOM     19  C   UNL     1      33.188 -22.349 -18.389  0.00  0.00    +0.024 C 
ATOM     20  C   UNL     1      34.922 -23.335 -16.440  0.00  0.00    +0.039 C 
ATOM     21  C   UNL     1      32.679 -23.022 -17.279  0.00  0.00    +0.036 C 
ATOM     22  C   UNL     1      33.545 -23.516 -16.305  0.00  0.00    +0.010 C 
BRANCH  18  23
ATOM     23  O   UNL     1      36.780 -22.494 -17.663  0.00  0.00    -0.470 OA
ATOM     24  C   UNL     1      37.513 -22.300 -16.454  0.00  0.00    +0.253 C 
ENDBRANCH  18  23
ENDBRANCH  12  17
ENDBRANCH   5  11
BRANCH   1  25
ATOM     25  C   UNL     1      34.569 -14.554 -23.790  0.00  0.00    +0.122 C 
BRANCH  25  28
ATOM     26  N   UNL     1      31.999 -11.771 -21.786  0.00  0.00    -0.230 NA
ATOM     27  N   UNL     1      32.659 -10.076 -23.325  0.00  0.00    -0.343 N 
ATOM     28  C   UNL     1      33.668 -13.576 -23.086  0.00  0.00    +0.002 C 
ATOM     29  C   UNL     1      33.586 -12.272 -23.539  0.00  0.00    +0.031 C 
ATOM     30  C   UNL     1      32.929 -13.993 -21.994  0.00  0.00    +0.018 C 
ATOM     31  C   UNL     1      32.741 -11.411 -22.858  0.00  0.00    +0.125 C 
ATOM     32  C   UNL     1      32.113 -13.055 -21.381  0.00  0.00    +0.100 C 
ATOM     33  H   UNL     1      32.070  -9.431 -22.871  0.00  0.00    +0.144 HD
ATOM     34  H   UNL     1      33.190  -9.794 -24.106  0.00  0.00    +0.144 HD
ENDBRANCH  25  28
ENDBRANCH   1  25
TORSDOF 5
ENDMDL
MODEL 9
REMARK VINA RESULT:      -9.7      2.948      5.343
REMARK  Name = 11691242
REMARK  5 active torsions:
REMARK  status: ('A' for Active; 'I' for Inactive)
REMARK    1  A    between atoms: N_1  and  C_25
REMARK    2  A    between atoms: C_5  and  N_11
REMARK    3  A    between atoms: N_12  and  C_17
REMARK    4  A    between atoms: C_18  and  O_23
REMARK    5  A    between atoms: C_25  and  C_28
REMARK                            x       y       z     vdW  Elec       q    Type
REMARK                         _______ _______ _______ _____ _____    ______ ____
ROOT
ATOM      1  N   UNL     1      33.449 -12.899 -24.190  0.00  0.00    -0.282 N 
ATOM      2  C   UNL     1      32.761 -12.227 -23.205  0.00  0.00    +0.053 C 
ATOM      3  C   UNL     1      33.081 -10.873 -23.331  0.00  0.00    +0.028 C 
ATOM      4  C   UNL     1      34.190 -12.020 -24.932  0.00  0.00    +0.066 C 
ATOM      5  C   UNL     1      32.504  -9.953 -22.434  0.00  0.00    +0.053 C 
ATOM      6  C   UNL     1      33.984 -10.758 -24.425  0.00  0.00    +0.019 C 
ATOM      7  C   UNL     1      31.890 -12.708 -22.222  0.00  0.00    +0.015 C 
ATOM      8  C   UNL     1      31.631 -10.420 -21.444  0.00  0.00    +0.015 C 
ATOM      9  C   UNL     1      31.329 -11.777 -21.342  0.00  0.00    +0.003 C 
ENDROOT
BRANCH   5  11
ATOM     10  O   UNL     1      31.177  -7.798 -24.020  0.00  0.00    -0.252 OA
ATOM     11  N   UNL     1      32.790  -8.590 -22.515  0.00  0.00    -0.268 N 
ATOM     12  N   UNL     1      32.747  -6.348 -23.069  0.00  0.00    -0.266 N 
ATOM     13  C   UNL     1      32.136  -7.594 -23.281  0.00  0.00    +0.308 C 
ATOM     14  H   UNL     1      33.546  -8.278 -21.968  0.00  0.00    +0.156 HD
ATOM     15  H   UNL     1      33.509  -6.341 -22.447  0.00  0.00    +0.157 HD
BRANCH  12  17
ATOM     16 BR   UNL     1      30.198  -1.786 -22.473  0.00  0.00    -0.049 Br
ATOM     17  C   UNL     1      32.401  -5.100 -23.641  0.00  0.00    +0.086 C 
ATOM     18  C   UNL     1      32.844  -4.775 -24.914  0.00  0.00    +0.152 C 
ATOM     19  C   UNL     1      31.619  -4.225 -22.906  0.00  0.00    +0.024 C 
ATOM     20  C   UNL     1      32.496  -3.542 -25.464  0.00  0.00    +0.039 C 
ATOM     21  C   UNL     1      31.270  -2.991 -23.457  0.00  0.00    +0.036 C 
ATOM     22  C   UNL     1      31.709  -2.650 -24.735  0.00  0.00    +0.010 C 
BRANCH  18  23
ATOM     23  O   UNL     1      33.613  -5.634 -25.641  0.00  0.00    -0.470 OA
ATOM     24  C   UNL     1      34.965  -5.248 -25.882  0.00  0.00    +0.253 C 
ENDBRANCH  18  23
ENDBRANCH  12  17
ENDBRANCH   5  11
BRANCH   1  25
ATOM     25  C   UNL     1      33.409 -14.328 -24.418  0.00  0.00    +0.122 C 
BRANCH  25  28
ATOM     26  N   UNL     1      35.523 -16.460 -21.361  0.00  0.00    -0.230 NA
ATOM     27  N   UNL     1      36.056 -18.165 -22.937  0.00  0.00    -0.343 N 
ATOM     28  C   UNL     1      34.150 -15.077 -23.345  0.00  0.00    +0.002 C 
ATOM     29  C   UNL     1      34.760 -16.282 -23.647  0.00  0.00    +0.031 C 
ATOM     30  C   UNL     1      34.216 -14.553 -22.067  0.00  0.00    +0.018 C 
ATOM     31  C   UNL     1      35.432 -16.931 -22.624  0.00  0.00    +0.125 C 
ATOM     32  C   UNL     1      34.911 -15.280 -21.114  0.00  0.00    +0.100 C 
ATOM     33  H   UNL     1      36.544 -18.659 -22.241  0.00  0.00    +0.144 HD
ATOM     34  H   UNL     1      36.002 -18.525 -23.852  0.00  0.00    +0.144 HD
ENDBRANCH  25  28
ENDBRANCH   1  25
TORSDOF 5
ENDMDL
