MODEL 1
REMARK VINA RESULT:     -12.3      0.000      0.000
REMARK  Name = 6914657
REMARK  8 active torsions:
REMARK  status: ('A' for Active; 'I' for Inactive)
REMARK    1  A    between atoms: C_1  and  C_4
REMARK    2  A    between atoms: C_1  and  C_16
REMARK    3  A    between atoms: C_9  and  C_10
REMARK    4  A    between atoms: C_16  and  C_17
REMARK    5  A    between atoms: C_17  and  C_18
REMARK    6  A    between atoms: C_18  and  N_20
REMARK    7  A    between atoms: C_21  and  C_23
REMARK    8  A    between atoms: C_24  and  C_26
REMARK                            x       y       z     vdW  Elec       q    Type
REMARK                         _______ _______ _______ _____ _____    ______ ____
ROOT
ATOM      1  C   UNL     1      32.320 -13.414 -21.274  0.00  0.00    +0.000 C 
ENDROOT
BRANCH   1   4
ATOM      2  O   UNL     1      32.960  -7.388 -19.846  0.00  0.00    -0.270 OA
ATOM      3  N   UNL     1      31.993  -9.137 -21.061  0.00  0.00    -0.276 N 
ATOM      4  C   UNL     1      31.711 -12.015 -21.215  0.00  0.00    +0.003 C 
ATOM      5  C   UNL     1      32.148 -11.177 -22.428  0.00  0.00    +0.022 C 
ATOM      6  C   UNL     1      32.099 -11.305 -19.907  0.00  0.00    +0.022 C 
ATOM      7  C   UNL     1      31.606  -9.753 -22.336  0.00  0.00    +0.094 C 
ATOM      8  C   UNL     1      31.565  -9.875 -19.873  0.00  0.00    +0.094 C 
ATOM      9  C   UNL     1      32.672  -7.925 -20.915  0.00  0.00    +0.249 C 
BRANCH   9  10
ATOM     10  C   UNL     1      33.097  -7.218 -22.129  0.00  0.00    +0.054 C 
ATOM     11  C   UNL     1      32.322  -6.176 -22.638  0.00  0.00    +0.005 C 
ATOM     12  C   UNL     1      34.276  -7.589 -22.775  0.00  0.00    +0.005 C 
ATOM     13  C   UNL     1      32.726  -5.505 -23.791  0.00  0.00    +0.000 C 
ATOM     14  C   UNL     1      34.681  -6.917 -23.929  0.00  0.00    +0.000 C 
ATOM     15  C   UNL     1      33.905  -5.875 -24.437  0.00  0.00    +0.000 C 
ENDBRANCH   9  10
ENDBRANCH   1   4
BRANCH   1  16
ATOM     16  C   UNL     1      33.127 -13.612 -22.554  0.00  0.00    +0.002 C 
BRANCH  16  17
ATOM     17  C   UNL     1      34.477 -14.266 -22.258  0.00  0.00    +0.021 C 
BRANCH  17  18
ATOM     18  C   UNL     1      34.782 -15.382 -23.249  0.00  0.00    +0.090 C 
BRANCH  18  20
ATOM     19  O   UNL     1      34.955 -18.003 -24.473  0.00  0.00    -0.270 OA
ATOM     20  N   UNL     1      34.963 -16.644 -22.585  0.00  0.00    -0.301 N 
ATOM     21  C   UNL     1      35.035 -17.857 -23.257  0.00  0.00    +0.246 C 
ATOM     22  H   UNL     1      35.041 -16.648 -21.604  0.00  0.00    +0.150 HD
BRANCH  21  23
ATOM     23  C   UNL     1      35.227 -19.005 -22.325  0.00  0.00    +0.058 C 
ATOM     24  C   UNL     1      34.203 -19.435 -21.574  0.00  0.00    +0.006 C 
BRANCH  24  26
ATOM     25  N   UNL     1      33.119 -22.197 -19.272  0.00  0.00    -0.242 NA
ATOM     26  C   UNL     1      34.275 -20.562 -20.628  0.00  0.00    +0.019 C 
ATOM     27  C   UNL     1      35.500 -21.058 -20.194  0.00  0.00    +0.003 C 
ATOM     28  C   UNL     1      33.124 -21.162 -20.142  0.00  0.00    +0.099 C 
ATOM     29  C   UNL     1      35.536 -22.122 -19.300  0.00  0.00    +0.021 C 
ATOM     30  C   UNL     1      34.329 -22.651 -18.873  0.00  0.00    +0.099 C 
ENDBRANCH  24  26
ENDBRANCH  21  23
ENDBRANCH  18  20
ENDBRANCH  17  18
ENDBRANCH  16  17
ENDBRANCH   1  16
TORSDOF 8
ENDMDL
MODEL 2
REMARK VINA RESULT:     -11.1      4.455      7.687
REMARK  Name = 6914657
REMARK  8 active torsions:
REMARK  status: ('A' for Active; 'I' for Inactive)
REMARK    1  A    between atoms: C_1  and  C_4
REMARK    2  A    between atoms: C_1  and  C_16
REMARK    3  A    between atoms: C_9  and  C_10
REMARK    4  A    between atoms: C_16  and  C_17
REMARK    5  A    between atoms: C_17  and  C_18
REMARK    6  A    between atoms: C_18  and  N_20
REMARK    7  A    between atoms: C_21  and  C_23
REMARK    8  A    between atoms: C_24  and  C_26
REMARK                            x       y       z     vdW  Elec       q    Type
REMARK                         _______ _______ _______ _____ _____    ______ ____
ROOT
ATOM      1  C   UNL     1      35.347 -19.400 -21.227  0.00  0.00    +0.000 C 
ENDROOT
BRANCH   1   4
ATOM      2  O   UNL     1      32.666 -16.729 -26.171  0.00  0.00    -0.270 OA
ATOM      3  N   UNL     1      34.472 -17.064 -24.724  0.00  0.00    -0.276 N 
ATOM      4  C   UNL     1      35.498 -18.740 -22.595  0.00  0.00    +0.003 C 
ATOM      5  C   UNL     1      35.452 -17.208 -22.472  0.00  0.00    +0.022 C 
ATOM      6  C   UNL     1      34.407 -19.230 -23.562  0.00  0.00    +0.022 C 
ATOM      7  C   UNL     1      35.525 -16.543 -23.844  0.00  0.00    +0.094 C 
ATOM      8  C   UNL     1      34.496 -18.515 -24.909  0.00  0.00    +0.094 C 
ATOM      9  C   UNL     1      33.522 -16.296 -25.401  0.00  0.00    +0.249 C 
BRANCH   9  10
ATOM     10  C   UNL     1      33.520 -14.845 -25.181  0.00  0.00    +0.054 C 
ATOM     11  C   UNL     1      33.491 -13.974 -26.271  0.00  0.00    +0.005 C 
ATOM     12  C   UNL     1      33.547 -14.336 -23.884  0.00  0.00    +0.005 C 
ATOM     13  C   UNL     1      33.490 -12.596 -26.063  0.00  0.00    +0.000 C 
ATOM     14  C   UNL     1      33.544 -12.956 -23.675  0.00  0.00    +0.000 C 
ATOM     15  C   UNL     1      33.516 -12.086 -24.765  0.00  0.00    +0.000 C 
ENDBRANCH   9  10
ENDBRANCH   1   4
BRANCH   1  16
ATOM     16  C   UNL     1      36.709 -19.690 -20.601  0.00  0.00    +0.002 C 
BRANCH  16  17
ATOM     17  C   UNL     1      36.687 -21.004 -19.820  0.00  0.00    +0.021 C 
BRANCH  17  18
ATOM     18  C   UNL     1      35.437 -21.817 -20.138  0.00  0.00    +0.090 C 
BRANCH  18  20
ATOM     19  O   UNL     1      32.651 -22.012 -19.367  0.00  0.00    -0.270 OA
ATOM     20  N   UNL     1      34.900 -22.443 -18.960  0.00  0.00    -0.301 N 
ATOM     21  C   UNL     1      33.542 -22.488 -18.671  0.00  0.00    +0.246 C 
ATOM     22  H   UNL     1      35.527 -22.860 -18.327  0.00  0.00    +0.150 HD
BRANCH  21  23
ATOM     23  C   UNL     1      33.265 -23.197 -17.390  0.00  0.00    +0.058 C 
ATOM     24  C   UNL     1      32.029 -23.186 -16.872  0.00  0.00    +0.006 C 
BRANCH  24  26
ATOM     25  N   UNL     1      32.188 -24.461 -13.344  0.00  0.00    -0.242 NA
ATOM     26  C   UNL     1      31.639 -23.858 -15.620  0.00  0.00    +0.019 C 
ATOM     27  C   UNL     1      30.414 -24.506 -15.504  0.00  0.00    +0.003 C 
ATOM     28  C   UNL     1      32.483 -23.864 -14.520  0.00  0.00    +0.099 C 
ATOM     29  C   UNL     1      30.075 -25.132 -14.310  0.00  0.00    +0.021 C 
ATOM     30  C   UNL     1      30.988 -25.082 -13.269  0.00  0.00    +0.099 C 
ENDBRANCH  24  26
ENDBRANCH  21  23
ENDBRANCH  18  20
ENDBRANCH  17  18
ENDBRANCH  16  17
ENDBRANCH   1  16
TORSDOF 8
ENDMDL
MODEL 3
REMARK VINA RESULT:     -10.9      7.676     11.297
REMARK  Name = 6914657
REMARK  8 active torsions:
REMARK  status: ('A' for Active; 'I' for Inactive)
REMARK    1  A    between atoms: C_1  and  C_4
REMARK    2  A    between atoms: C_1  and  C_16
REMARK    3  A    between atoms: C_9  and  C_10
REMARK    4  A    between atoms: C_16  and  C_17
REMARK    5  A    between atoms: C_17  and  C_18
REMARK    6  A    between atoms: C_18  and  N_20
REMARK    7  A    between atoms: C_21  and  C_23
REMARK    8  A    between atoms: C_24  and  C_26
REMARK                            x       y       z     vdW  Elec       q    Type
REMARK                         _______ _______ _______ _____ _____    ______ ____
ROOT
ATOM      1  C   UNL     1      36.926 -22.168 -16.275  0.00  0.00    +0.000 C 
ENDROOT
BRANCH   1   4
ATOM      2  O   UNL     1      32.638 -20.735 -20.556  0.00  0.00    -0.270 OA
ATOM      3  N   UNL     1      34.737 -21.544 -19.917  0.00  0.00    -0.276 N 
ATOM      4  C   UNL     1      36.335 -22.409 -17.662  0.00  0.00    +0.003 C 
ATOM      5  C   UNL     1      36.846 -21.360 -18.664  0.00  0.00    +0.022 C 
ATOM      6  C   UNL     1      34.798 -22.396 -17.612  0.00  0.00    +0.022 C 
ATOM      7  C   UNL     1      36.200 -21.548 -20.035  0.00  0.00    +0.094 C 
ATOM      8  C   UNL     1      34.196 -22.552 -19.007  0.00  0.00    +0.094 C 
ATOM      9  C   UNL     1      33.865 -20.710 -20.622  0.00  0.00    +0.249 C 
BRANCH   9  10
ATOM     10  C   UNL     1      34.444 -19.702 -21.518  0.00  0.00    +0.054 C 
ATOM     11  C   UNL     1      35.212 -18.661 -20.993  0.00  0.00    +0.005 C 
ATOM     12  C   UNL     1      34.227 -19.782 -22.893  0.00  0.00    +0.005 C 
ATOM     13  C   UNL     1      35.762 -17.703 -21.843  0.00  0.00    +0.000 C 
ATOM     14  C   UNL     1      34.778 -18.823 -23.744  0.00  0.00    +0.000 C 
ATOM     15  C   UNL     1      35.545 -17.783 -23.219  0.00  0.00    +0.000 C 
ENDBRANCH   9  10
ENDBRANCH   1   4
BRANCH   1  16
ATOM     16  C   UNL     1      37.631 -23.416 -15.750  0.00  0.00    +0.002 C 
BRANCH  16  17
ATOM     17  C   UNL     1      37.197 -23.732 -14.319  0.00  0.00    +0.021 C 
BRANCH  17  18
ATOM     18  C   UNL     1      36.433 -25.048 -14.249  0.00  0.00    +0.090 C 
BRANCH  18  20
ATOM     19  O   UNL     1      34.577 -24.187 -12.197  0.00  0.00    -0.270 OA
ATOM     20  N   UNL     1      35.016 -24.846 -14.384  0.00  0.00    -0.301 N 
ATOM     21  C   UNL     1      34.201 -24.429 -13.339  0.00  0.00    +0.246 C 
ATOM     22  H   UNL     1      34.603 -25.010 -15.262  0.00  0.00    +0.150 HD
BRANCH  21  23
ATOM     23  C   UNL     1      32.776 -24.299 -13.757  0.00  0.00    +0.058 C 
ATOM     24  C   UNL     1      32.476 -23.971 -15.022  0.00  0.00    +0.006 C 
BRANCH  24  26
ATOM     25  N   UNL     1      29.599 -22.764 -17.111  0.00  0.00    -0.242 NA
ATOM     26  C   UNL     1      31.108 -23.824 -15.547  0.00  0.00    +0.019 C 
ATOM     27  C   UNL     1      30.053 -24.561 -15.018  0.00  0.00    +0.003 C 
ATOM     28  C   UNL     1      30.830 -22.947 -16.583  0.00  0.00    +0.099 C 
ATOM     29  C   UNL     1      28.773 -24.400 -15.534  0.00  0.00    +0.021 C 
ATOM     30  C   UNL     1      28.599 -23.498 -16.570  0.00  0.00    +0.099 C 
ENDBRANCH  24  26
ENDBRANCH  21  23
ENDBRANCH  18  20
ENDBRANCH  17  18
ENDBRANCH  16  17
ENDBRANCH   1  16
TORSDOF 8
ENDMDL
MODEL 4
REMARK VINA RESULT:     -10.8      7.023     13.414
REMARK  Name = 6914657
REMARK  8 active torsions:
REMARK  status: ('A' for Active; 'I' for Inactive)
REMARK    1  A    between atoms: C_1  and  C_4
REMARK    2  A    between atoms: C_1  and  C_16
REMARK    3  A    between atoms: C_9  and  C_10
REMARK    4  A    between atoms: C_16  and  C_17
REMARK    5  A    between atoms: C_17  and  C_18
REMARK    6  A    between atoms: C_18  and  N_20
REMARK    7  A    between atoms: C_21  and  C_23
REMARK    8  A    between atoms: C_24  and  C_26
REMARK                            x       y       z     vdW  Elec       q    Type
REMARK                         _______ _______ _______ _____ _____    ______ ____
ROOT
ATOM      1  C   UNL     1      37.354 -23.366 -15.742  0.00  0.00    +0.000 C 
ENDROOT
BRANCH   1   4
ATOM      2  O   UNL     1      32.134 -23.181 -12.354  0.00  0.00    -0.270 OA
ATOM      3  N   UNL     1      33.650 -24.268 -13.763  0.00  0.00    -0.276 N 
ATOM      4  C   UNL     1      36.294 -24.114 -14.937  0.00  0.00    +0.003 C 
ATOM      5  C   UNL     1      35.041 -24.373 -15.790  0.00  0.00    +0.022 C 
ATOM      6  C   UNL     1      35.922 -23.333 -13.665  0.00  0.00    +0.022 C 
ATOM      7  C   UNL     1      33.947 -25.051 -14.969  0.00  0.00    +0.094 C 
ATOM      8  C   UNL     1      34.802 -24.028 -12.894  0.00  0.00    +0.094 C 
ATOM      9  C   UNL     1      32.390 -23.800 -13.385  0.00  0.00    +0.249 C 
BRANCH   9  10
ATOM     10  C   UNL     1      31.259 -24.049 -14.288  0.00  0.00    +0.054 C 
ATOM     11  C   UNL     1      31.000 -23.169 -15.339  0.00  0.00    +0.005 C 
ATOM     12  C   UNL     1      30.444 -25.164 -14.096  0.00  0.00    +0.005 C 
ATOM     13  C   UNL     1      29.926 -23.404 -16.197  0.00  0.00    +0.000 C 
ATOM     14  C   UNL     1      29.370 -25.400 -14.955  0.00  0.00    +0.000 C 
ATOM     15  C   UNL     1      29.111 -24.519 -16.005  0.00  0.00    +0.000 C 
ENDBRANCH   9  10
ENDBRANCH   1   4
BRANCH   1  16
ATOM     16  C   UNL     1      36.833 -22.014 -16.221  0.00  0.00    +0.002 C 
BRANCH  16  17
ATOM     17  C   UNL     1      36.914 -21.901 -17.743  0.00  0.00    +0.021 C 
BRANCH  17  18
ATOM     18  C   UNL     1      35.606 -22.324 -18.401  0.00  0.00    +0.090 C 
BRANCH  18  20
ATOM     19  O   UNL     1      32.965 -21.970 -19.539  0.00  0.00    -0.270 OA
ATOM     20  N   UNL     1      35.223 -21.417 -19.448  0.00  0.00    -0.301 N 
ATOM     21  C   UNL     1      33.925 -21.314 -19.932  0.00  0.00    +0.246 C 
ATOM     22  H   UNL     1      35.916 -20.838 -19.840  0.00  0.00    +0.150 HD
BRANCH  21  23
ATOM     23  C   UNL     1      33.809 -20.295 -21.014  0.00  0.00    +0.058 C 
ATOM     24  C   UNL     1      34.906 -19.673 -21.468  0.00  0.00    +0.006 C 
BRANCH  24  26
ATOM     25  N   UNL     1      35.467 -16.416 -23.252  0.00  0.00    -0.242 NA
ATOM     26  C   UNL     1      34.912 -18.658 -22.536  0.00  0.00    +0.019 C 
ATOM     27  C   UNL     1      34.395 -18.940 -23.796  0.00  0.00    +0.003 C 
ATOM     28  C   UNL     1      35.432 -17.393 -22.317  0.00  0.00    +0.099 C 
ATOM     29  C   UNL     1      34.414 -17.962 -24.784  0.00  0.00    +0.021 C 
ATOM     30  C   UNL     1      34.955 -16.728 -24.464  0.00  0.00    +0.099 C 
ENDBRANCH  24  26
ENDBRANCH  21  23
ENDBRANCH  18  20
ENDBRANCH  17  18
ENDBRANCH  16  17
ENDBRANCH   1  16
TORSDOF 8
ENDMDL
MODEL 5
REMARK VINA RESULT:     -10.7      6.082     13.584
REMARK  Name = 6914657
REMARK  8 active torsions:
REMARK  status: ('A' for Active; 'I' for Inactive)
REMARK    1  A    between atoms: C_1  and  C_4
REMARK    2  A    between atoms: C_1  and  C_16
REMARK    3  A    between atoms: C_9  and  C_10
REMARK    4  A    between atoms: C_16  and  C_17
REMARK    5  A    between atoms: C_17  and  C_18
REMARK    6  A    between atoms: C_18  and  N_20
REMARK    7  A    between atoms: C_21  and  C_23
REMARK    8  A    between atoms: C_24  and  C_26
REMARK                            x       y       z     vdW  Elec       q    Type
REMARK                         _______ _______ _______ _____ _____    ______ ____
ROOT
ATOM      1  C   UNL     1      33.576 -23.174 -18.733  0.00  0.00    +0.000 C 
ENDROOT
BRANCH   1   4
ATOM      2  O   UNL     1      33.508 -24.942 -12.763  0.00  0.00    -0.270 OA
ATOM      3  N   UNL     1      34.154 -23.503 -14.489  0.00  0.00    -0.276 N 
ATOM      4  C   UNL     1      33.683 -22.794 -17.258  0.00  0.00    +0.003 C 
ATOM      5  C   UNL     1      35.096 -23.074 -16.721  0.00  0.00    +0.022 C 
ATOM      6  C   UNL     1      32.635 -23.548 -16.422  0.00  0.00    +0.022 C 
ATOM      7  C   UNL     1      35.189 -22.769 -15.228  0.00  0.00    +0.094 C 
ATOM      8  C   UNL     1      32.785 -23.240 -14.934  0.00  0.00    +0.094 C 
ATOM      9  C   UNL     1      34.378 -24.360 -13.409  0.00  0.00    +0.249 C 
BRANCH   9  10
ATOM     10  C   UNL     1      35.765 -24.610 -12.999  0.00  0.00    +0.054 C 
ATOM     11  C   UNL     1      36.312 -23.908 -11.924  0.00  0.00    +0.005 C 
ATOM     12  C   UNL     1      36.536 -25.549 -13.683  0.00  0.00    +0.005 C 
ATOM     13  C   UNL     1      37.629 -24.146 -11.535  0.00  0.00    +0.000 C 
ATOM     14  C   UNL     1      37.854 -25.787 -13.293  0.00  0.00    +0.000 C 
ATOM     15  C   UNL     1      38.401 -25.085 -12.219  0.00  0.00    +0.000 C 
ENDBRANCH   9  10
ENDBRANCH   1   4
BRANCH   1  16
ATOM     16  C   UNL     1      34.076 -22.047 -19.632  0.00  0.00    +0.002 C 
BRANCH  16  17
ATOM     17  C   UNL     1      35.529 -22.277 -20.047  0.00  0.00    +0.021 C 
BRANCH  17  18
ATOM     18  C   UNL     1      36.368 -21.020 -19.850  0.00  0.00    +0.090 C 
BRANCH  18  20
ATOM     19  O   UNL     1      37.957 -19.038 -21.243  0.00  0.00    -0.270 OA
ATOM     20  N   UNL     1      35.891 -19.934 -20.661  0.00  0.00    -0.301 N 
ATOM     21  C   UNL     1      36.732 -19.027 -21.294  0.00  0.00    +0.246 C 
ATOM     22  H   UNL     1      34.919 -19.828 -20.774  0.00  0.00    +0.150 HD
BRANCH  21  23
ATOM     23  C   UNL     1      35.972 -18.005 -22.070  0.00  0.00    +0.058 C 
ATOM     24  C   UNL     1      35.512 -18.298 -23.294  0.00  0.00    +0.006 C 
BRANCH  24  26
ATOM     25  N   UNL     1      33.443 -17.007 -26.149  0.00  0.00    -0.242 NA
ATOM     26  C   UNL     1      34.743 -17.372 -24.144  0.00  0.00    +0.019 C 
ATOM     27  C   UNL     1      34.581 -16.038 -23.787  0.00  0.00    +0.003 C 
ATOM     28  C   UNL     1      34.159 -17.804 -25.324  0.00  0.00    +0.099 C 
ATOM     29  C   UNL     1      33.851 -15.188 -24.610  0.00  0.00    +0.021 C 
ATOM     30  C   UNL     1      33.307 -15.716 -25.769  0.00  0.00    +0.099 C 
ENDBRANCH  24  26
ENDBRANCH  21  23
ENDBRANCH  18  20
ENDBRANCH  17  18
ENDBRANCH  16  17
ENDBRANCH   1  16
TORSDOF 8
ENDMDL
MODEL 6
REMARK VINA RESULT:     -10.6      4.532      8.085
REMARK  Name = 6914657
REMARK  8 active torsions:
REMARK  status: ('A' for Active; 'I' for Inactive)
REMARK    1  A    between atoms: C_1  and  C_4
REMARK    2  A    between atoms: C_1  and  C_16
REMARK    3  A    between atoms: C_9  and  C_10
REMARK    4  A    between atoms: C_16  and  C_17
REMARK    5  A    between atoms: C_17  and  C_18
REMARK    6  A    between atoms: C_18  and  N_20
REMARK    7  A    between atoms: C_21  and  C_23
REMARK    8  A    between atoms: C_24  and  C_26
REMARK                            x       y       z     vdW  Elec       q    Type
REMARK                         _______ _______ _______ _____ _____    ______ ____
ROOT
ATOM      1  C   UNL     1      35.208 -19.409 -21.048  0.00  0.00    +0.000 C 
ENDROOT
BRANCH   1   4
ATOM      2  O   UNL     1      32.686 -16.884 -26.150  0.00  0.00    -0.270 OA
ATOM      3  N   UNL     1      34.449 -17.187 -24.644  0.00  0.00    -0.276 N 
ATOM      4  C   UNL     1      35.401 -18.797 -22.433  0.00  0.00    +0.003 C 
ATOM      5  C   UNL     1      35.368 -17.262 -22.363  0.00  0.00    +0.022 C 
ATOM      6  C   UNL     1      34.331 -19.310 -23.411  0.00  0.00    +0.022 C 
ATOM      7  C   UNL     1      35.484 -16.645 -23.755  0.00  0.00    +0.094 C 
ATOM      8  C   UNL     1      34.462 -18.643 -24.779  0.00  0.00    +0.094 C 
ATOM      9  C   UNL     1      33.525 -16.433 -25.373  0.00  0.00    +0.249 C 
BRANCH   9  10
ATOM     10  C   UNL     1      33.533 -14.975 -25.203  0.00  0.00    +0.054 C 
ATOM     11  C   UNL     1      33.505 -14.142 -26.322  0.00  0.00    +0.005 C 
ATOM     12  C   UNL     1      33.567 -14.422 -23.923  0.00  0.00    +0.005 C 
ATOM     13  C   UNL     1      33.513 -12.757 -26.160  0.00  0.00    +0.000 C 
ATOM     14  C   UNL     1      33.574 -13.036 -23.761  0.00  0.00    +0.000 C 
ATOM     15  C   UNL     1      33.547 -12.204 -24.881  0.00  0.00    +0.000 C 
ENDBRANCH   9  10
ENDBRANCH   1   4
BRANCH   1  16
ATOM     16  C   UNL     1      33.954 -20.279 -20.998  0.00  0.00    +0.002 C 
BRANCH  16  17
ATOM     17  C   UNL     1      34.049 -21.316 -19.879  0.00  0.00    +0.021 C 
BRANCH  17  18
ATOM     18  C   UNL     1      35.499 -21.655 -19.558  0.00  0.00    +0.090 C 
BRANCH  18  20
ATOM     19  O   UNL     1      37.184 -21.073 -17.273  0.00  0.00    -0.270 OA
ATOM     20  N   UNL     1      35.609 -22.411 -18.340  0.00  0.00    -0.301 N 
ATOM     21  C   UNL     1      36.448 -22.054 -17.292  0.00  0.00    +0.246 C 
ATOM     22  H   UNL     1      35.060 -23.223 -18.244  0.00  0.00    +0.150 HD
BRANCH  21  23
ATOM     23  C   UNL     1      36.362 -23.013 -16.154  0.00  0.00    +0.058 C 
ATOM     24  C   UNL     1      37.479 -23.553 -15.647  0.00  0.00    +0.006 C 
BRANCH  24  26
ATOM     25  N   UNL     1      37.727 -24.875 -12.141  0.00  0.00    -0.242 NA
ATOM     26  C   UNL     1      37.514 -24.502 -14.521  0.00  0.00    +0.019 C 
ATOM     27  C   UNL     1      37.376 -25.870 -14.730  0.00  0.00    +0.003 C 
ATOM     28  C   UNL     1      37.686 -24.059 -13.219  0.00  0.00    +0.099 C 
ATOM     29  C   UNL     1      37.414 -26.740 -13.647  0.00  0.00    +0.021 C 
ATOM     30  C   UNL     1      37.590 -26.198 -12.384  0.00  0.00    +0.099 C 
ENDBRANCH  24  26
ENDBRANCH  21  23
ENDBRANCH  18  20
ENDBRANCH  17  18
ENDBRANCH  16  17
ENDBRANCH   1  16
TORSDOF 8
ENDMDL
MODEL 7
REMARK VINA RESULT:     -10.6      1.781      2.259
REMARK  Name = 6914657
REMARK  8 active torsions:
REMARK  status: ('A' for Active; 'I' for Inactive)
REMARK    1  A    between atoms: C_1  and  C_4
REMARK    2  A    between atoms: C_1  and  C_16
REMARK    3  A    between atoms: C_9  and  C_10
REMARK    4  A    between atoms: C_16  and  C_17
REMARK    5  A    between atoms: C_17  and  C_18
REMARK    6  A    between atoms: C_18  and  N_20
REMARK    7  A    between atoms: C_21  and  C_23
REMARK    8  A    between atoms: C_24  and  C_26
REMARK                            x       y       z     vdW  Elec       q    Type
REMARK                         _______ _______ _______ _____ _____    ______ ____
ROOT
ATOM      1  C   UNL     1      34.189 -13.549 -23.091  0.00  0.00    +0.000 C 
ENDROOT
BRANCH   1   4
ATOM      2  O   UNL     1      31.866  -8.059 -21.293  0.00  0.00    -0.270 OA
ATOM      3  N   UNL     1      32.202  -9.747 -22.876  0.00  0.00    -0.276 N 
ATOM      4  C   UNL     1      33.123 -12.467 -23.251  0.00  0.00    +0.003 C 
ATOM      5  C   UNL     1      33.647 -11.307 -24.114  0.00  0.00    +0.022 C 
ATOM      6  C   UNL     1      32.662 -11.947 -21.879  0.00  0.00    +0.022 C 
ATOM      7  C   UNL     1      32.615 -10.186 -24.214  0.00  0.00    +0.094 C 
ATOM      8  C   UNL     1      31.657 -10.806 -22.027  0.00  0.00    +0.094 C 
ATOM      9  C   UNL     1      32.251  -8.435 -22.399  0.00  0.00    +0.249 C 
BRANCH   9  10
ATOM     10  C   UNL     1      32.816  -7.400 -23.273  0.00  0.00    +0.054 C 
ATOM     11  C   UNL     1      31.970  -6.516 -23.945  0.00  0.00    +0.005 C 
ATOM     12  C   UNL     1      34.197  -7.300 -23.433  0.00  0.00    +0.005 C 
ATOM     13  C   UNL     1      32.507  -5.533 -24.775  0.00  0.00    +0.000 C 
ATOM     14  C   UNL     1      34.734  -6.316 -24.264  0.00  0.00    +0.000 C 
ATOM     15  C   UNL     1      33.889  -5.433 -24.936  0.00  0.00    +0.000 C 
ENDBRANCH   9  10
ENDBRANCH   1   4
BRANCH   1  16
ATOM     16  C   UNL     1      33.689 -14.897 -23.603  0.00  0.00    +0.002 C 
BRANCH  16  17
ATOM     17  C   UNL     1      33.289 -14.811 -25.076  0.00  0.00    +0.021 C 
BRANCH  17  18
ATOM     18  C   UNL     1      33.766 -16.033 -25.852  0.00  0.00    +0.090 C 
BRANCH  18  20
ATOM     19  O   UNL     1      33.116 -18.857 -25.842  0.00  0.00    -0.270 OA
ATOM     20  N   UNL     1      34.290 -17.045 -24.976  0.00  0.00    -0.301 N 
ATOM     21  C   UNL     1      33.919 -18.382 -25.045  0.00  0.00    +0.246 C 
ATOM     22  H   UNL     1      34.946 -16.776 -24.293  0.00  0.00    +0.150 HD
BRANCH  21  23
ATOM     23  C   UNL     1      34.615 -19.211 -24.020  0.00  0.00    +0.058 C 
ATOM     24  C   UNL     1      34.679 -18.790 -22.748  0.00  0.00    +0.006 C 
BRANCH  24  26
ATOM     25  N   UNL     1      37.232 -19.785 -20.181  0.00  0.00    -0.242 NA
ATOM     26  C   UNL     1      35.332 -19.529 -21.654  0.00  0.00    +0.019 C 
ATOM     27  C   UNL     1      34.717 -20.628 -21.063  0.00  0.00    +0.003 C 
ATOM     28  C   UNL     1      36.578 -19.151 -21.181  0.00  0.00    +0.099 C 
ATOM     29  C   UNL     1      35.358 -21.305 -20.033  0.00  0.00    +0.021 C 
ATOM     30  C   UNL     1      36.603 -20.849 -19.632  0.00  0.00    +0.099 C 
ENDBRANCH  24  26
ENDBRANCH  21  23
ENDBRANCH  18  20
ENDBRANCH  17  18
ENDBRANCH  16  17
ENDBRANCH   1  16
TORSDOF 8
ENDMDL
MODEL 8
REMARK VINA RESULT:     -10.3      6.774     14.344
REMARK  Name = 6914657
REMARK  8 active torsions:
REMARK  status: ('A' for Active; 'I' for Inactive)
REMARK    1  A    between atoms: C_1  and  C_4
REMARK    2  A    between atoms: C_1  and  C_16
REMARK    3  A    between atoms: C_9  and  C_10
REMARK    4  A    between atoms: C_16  and  C_17
REMARK    5  A    between atoms: C_17  and  C_18
REMARK    6  A    between atoms: C_18  and  N_20
REMARK    7  A    between atoms: C_21  and  C_23
REMARK    8  A    between atoms: C_24  and  C_26
REMARK                            x       y       z     vdW  Elec       q    Type
REMARK                         _______ _______ _______ _____ _____    ______ ____
ROOT
ATOM      1  C   UNL     1      32.590 -23.583 -16.098  0.00  0.00    +0.000 C 
ENDROOT
BRANCH   1   4
ATOM      2  O   UNL     1      36.358 -25.979 -11.759  0.00  0.00    -0.270 OA
ATOM      3  N   UNL     1      35.806 -24.368 -13.361  0.00  0.00    -0.276 N 
ATOM      4  C   UNL     1      33.676 -23.364 -15.047  0.00  0.00    +0.003 C 
ATOM      5  C   UNL     1      35.063 -23.709 -15.612  0.00  0.00    +0.022 C 
ATOM      6  C   UNL     1      33.391 -24.196 -13.785  0.00  0.00    +0.022 C 
ATOM      7  C   UNL     1      36.144 -23.566 -14.544  0.00  0.00    +0.094 C 
ATOM      8  C   UNL     1      34.512 -24.051 -12.759  0.00  0.00    +0.094 C 
ATOM      9  C   UNL     1      36.623 -25.337 -12.774  0.00  0.00    +0.249 C 
BRANCH   9  10
ATOM     10  C   UNL     1      37.910 -25.639 -13.413  0.00  0.00    +0.054 C 
ATOM     11  C   UNL     1      39.065 -24.972 -13.005  0.00  0.00    +0.005 C 
ATOM     12  C   UNL     1      37.978 -26.592 -14.429  0.00  0.00    +0.005 C 
ATOM     13  C   UNL     1      40.287 -25.258 -13.612  0.00  0.00    +0.000 C 
ATOM     14  C   UNL     1      39.200 -26.879 -15.037  0.00  0.00    +0.000 C 
ATOM     15  C   UNL     1      40.355 -26.211 -14.628  0.00  0.00    +0.000 C 
ENDBRANCH   9  10
ENDBRANCH   1   4
BRANCH   1  16
ATOM     16  C   UNL     1      33.197 -23.792 -17.483  0.00  0.00    +0.002 C 
BRANCH  16  17
ATOM     17  C   UNL     1      33.161 -22.500 -18.299  0.00  0.00    +0.021 C 
BRANCH  17  18
ATOM     18  C   UNL     1      34.328 -22.430 -19.277  0.00  0.00    +0.090 C 
BRANCH  18  20
ATOM     19  O   UNL     1      36.437 -20.611 -20.076  0.00  0.00    -0.270 OA
ATOM     20  N   UNL     1      34.216 -21.296 -20.154  0.00  0.00    -0.301 N 
ATOM     21  C   UNL     1      35.288 -20.475 -20.483  0.00  0.00    +0.246 C 
ATOM     22  H   UNL     1      33.334 -21.091 -20.541  0.00  0.00    +0.150 HD
BRANCH  21  23
ATOM     23  C   UNL     1      34.889 -19.377 -21.409  0.00  0.00    +0.058 C 
ATOM     24  C   UNL     1      34.983 -19.553 -22.735  0.00  0.00    +0.006 C 
BRANCH  24  26
ATOM     25  N   UNL     1      33.548 -18.026 -25.851  0.00  0.00    -0.242 NA
ATOM     26  C   UNL     1      34.610 -18.544 -23.741  0.00  0.00    +0.019 C 
ATOM     27  C   UNL     1      34.939 -17.204 -23.570  0.00  0.00    +0.003 C 
ATOM     28  C   UNL     1      33.920 -18.900 -24.889  0.00  0.00    +0.099 C 
ATOM     29  C   UNL     1      34.575 -16.275 -24.537  0.00  0.00    +0.021 C 
ATOM     30  C   UNL     1      33.887 -16.732 -25.649  0.00  0.00    +0.099 C 
ENDBRANCH  24  26
ENDBRANCH  21  23
ENDBRANCH  18  20
ENDBRANCH  17  18
ENDBRANCH  16  17
ENDBRANCH   1  16
TORSDOF 8
ENDMDL
MODEL 9
REMARK VINA RESULT:     -10.1      4.098     13.575
REMARK  Name = 6914657
REMARK  8 active torsions:
REMARK  status: ('A' for Active; 'I' for Inactive)
REMARK    1  A    between atoms: C_1  and  C_4
REMARK    2  A    between atoms: C_1  and  C_16
REMARK    3  A    between atoms: C_9  and  C_10
REMARK    4  A    between atoms: C_16  and  C_17
REMARK    5  A    between atoms: C_17  and  C_18
REMARK    6  A    between atoms: C_18  and  N_20
REMARK    7  A    between atoms: C_21  and  C_23
REMARK    8  A    between atoms: C_24  and  C_26
REMARK                            x       y       z     vdW  Elec       q    Type
REMARK                         _______ _______ _______ _____ _____    ______ ____
ROOT
ATOM      1  C   UNL     1      36.046 -21.750 -20.051  0.00  0.00    +0.000 C 
ENDROOT
BRANCH   1   4
ATOM      2  O   UNL     1      34.459 -25.271 -15.168  0.00  0.00    -0.270 OA
ATOM      3  N   UNL     1      35.325 -23.318 -16.118  0.00  0.00    -0.276 N 
ATOM      4  C   UNL     1      35.614 -21.835 -18.589  0.00  0.00    +0.003 C 
ATOM      5  C   UNL     1      36.816 -22.139 -17.680  0.00  0.00    +0.022 C 
ATOM      6  C   UNL     1      34.521 -22.901 -18.404  0.00  0.00    +0.022 C 
ATOM      7  C   UNL     1      36.379 -22.302 -16.226  0.00  0.00    +0.094 C 
ATOM      8  C   UNL     1      34.139 -23.055 -16.933  0.00  0.00    +0.094 C 
ATOM      9  C   UNL     1      35.359 -24.442 -15.290  0.00  0.00    +0.249 C 
BRANCH   9  10
ATOM     10  C   UNL     1      36.571 -24.681 -14.496  0.00  0.00    +0.054 C 
ATOM     11  C   UNL     1      37.574 -25.517 -14.988  0.00  0.00    +0.005 C 
ATOM     12  C   UNL     1      36.720 -24.072 -13.250  0.00  0.00    +0.005 C 
ATOM     13  C   UNL     1      38.724 -25.744 -14.234  0.00  0.00    +0.000 C 
ATOM     14  C   UNL     1      37.872 -24.299 -12.496  0.00  0.00    +0.000 C 
ATOM     15  C   UNL     1      38.874 -25.135 -12.988  0.00  0.00    +0.000 C 
ENDBRANCH   9  10
ENDBRANCH   1   4
BRANCH   1  16
ATOM     16  C   UNL     1      36.460 -20.329 -20.423  0.00  0.00    +0.002 C 
BRANCH  16  17
ATOM     17  C   UNL     1      35.320 -19.590 -21.125  0.00  0.00    +0.021 C 
BRANCH  17  18
ATOM     18  C   UNL     1      35.836 -18.748 -22.286  0.00  0.00    +0.090 C 
BRANCH  18  20
ATOM     19  O   UNL     1      35.114 -16.951 -24.441  0.00  0.00    -0.270 OA
ATOM     20  N   UNL     1      35.414 -17.378 -22.174  0.00  0.00    -0.301 N 
ATOM     21  C   UNL     1      35.086 -16.589 -23.269  0.00  0.00    +0.246 C 
ATOM     22  H   UNL     1      35.354 -16.981 -21.276  0.00  0.00    +0.150 HD
BRANCH  21  23
ATOM     23  C   UNL     1      34.682 -15.212 -22.866  0.00  0.00    +0.058 C 
ATOM     24  C   UNL     1      33.875 -14.492 -23.658  0.00  0.00    +0.006 C 
BRANCH  24  26
ATOM     25  N   UNL     1      32.042 -11.668 -21.995  0.00  0.00    -0.242 NA
ATOM     26  C   UNL     1      33.405 -13.128 -23.357  0.00  0.00    +0.019 C 
ATOM     27  C   UNL     1      33.844 -12.038 -24.099  0.00  0.00    +0.003 C 
ATOM     28  C   UNL     1      32.513 -12.892 -22.323  0.00  0.00    +0.099 C 
ATOM     29  C   UNL     1      33.383 -10.763 -23.792  0.00  0.00    +0.021 C 
ATOM     30  C   UNL     1      32.491 -10.632 -22.740  0.00  0.00    +0.099 C 
ENDBRANCH  24  26
ENDBRANCH  21  23
ENDBRANCH  18  20
ENDBRANCH  17  18
ENDBRANCH  16  17
ENDBRANCH   1  16
TORSDOF 8
ENDMDL
