MODEL 1
REMARK VINA RESULT:     -12.2      0.000      0.000
REMARK  Name = 9999276
REMARK  5 active torsions:
REMARK  status: ('A' for Active; 'I' for Inactive)
REMARK    1  A    between atoms: C_3  and  C_11
REMARK    2  A    between atoms: C_6  and  C_20
REMARK    3  A    between atoms: C_14  and  N_19
REMARK    4  A    between atoms: C_25  and  C_27
REMARK    5  A    between atoms: C_27  and  O_28
REMARK                            x       y       z     vdW  Elec       q    Type
REMARK                         _______ _______ _______ _____ _____    ______ ____
ROOT
ATOM      1  N   UNL     1      34.732 -23.200 -16.817  0.00  0.00    -0.400 NA
ATOM      2  N   UNL     1      32.913 -24.986 -14.205  0.00  0.00    -0.242 NA
ATOM      3  C   UNL     1      34.417 -23.921 -15.716  0.00  0.00    +0.149 C 
ATOM      4  C   UNL     1      33.135 -24.262 -15.319  0.00  0.00    +0.107 C 
ATOM      5  C   UNL     1      32.089 -23.810 -16.142  0.00  0.00    +0.005 C 
ATOM      6  C   UNL     1      33.699 -22.787 -17.579  0.00  0.00    +0.131 C 
ATOM      7  C   UNL     1      32.374 -23.061 -17.291  0.00  0.00    +0.030 C 
ATOM      8  C   UNL     1      30.776 -24.134 -15.775  0.00  0.00    +0.056 C 
ATOM      9  C   UNL     1      30.538 -24.881 -14.628  0.00  0.00    -0.001 C 
ATOM     10  C   UNL     1      31.631 -25.279 -13.885  0.00  0.00    +0.095 C 
ENDROOT
BRANCH   3  11
ATOM     11  C   UNL     1      35.578 -24.329 -14.951  0.00  0.00    +0.033 C 
ATOM     12  C   UNL     1      35.942 -23.619 -13.808  0.00  0.00    +0.027 C 
ATOM     13  C   UNL     1      36.329 -25.430 -15.361  0.00  0.00    +0.003 C 
ATOM     14  C   UNL     1      37.059 -24.012 -13.072  0.00  0.00    +0.143 C 
ATOM     15  C   UNL     1      37.446 -25.823 -14.624  0.00  0.00    +0.002 C 
ATOM     16  C   UNL     1      37.813 -25.113 -13.480  0.00  0.00    +0.024 C 
BRANCH  14  19
ATOM     17  O   UNL     1      36.861 -23.560 -10.823  0.00  0.00    -0.126 OA
ATOM     18  O   UNL     1      38.319 -22.411 -12.001  0.00  0.00    -0.126 OA
ATOM     19  N   UNL     1      37.432 -23.290 -11.907  0.00  0.00    +0.058 N 
ENDBRANCH  14  19
ENDBRANCH   3  11
BRANCH   6  20
ATOM     20  C   UNL     1      34.066 -22.020 -18.745  0.00  0.00    +0.030 C 
ATOM     21  C   UNL     1      33.084 -21.375 -19.499  0.00  0.00    +0.003 C 
ATOM     22  C   UNL     1      35.407 -21.920 -19.124  0.00  0.00    +0.003 C 
ATOM     23  C   UNL     1      33.439 -20.633 -20.625  0.00  0.00    +0.007 C 
ATOM     24  C   UNL     1      35.763 -21.178 -20.250  0.00  0.00    +0.007 C 
ATOM     25  C   UNL     1      34.780 -20.535 -21.001  0.00  0.00    +0.075 C 
BRANCH  25  27
ATOM     26  O   UNL     1      34.566 -19.786 -23.263  0.00  0.00    -0.245 OA
ATOM     27  C   UNL     1      35.152 -19.762 -22.175  0.00  0.00    +0.338 C 
BRANCH  27  28
ATOM     28  O   UNL     1      36.244 -18.979 -21.959  0.00  0.00    -0.477 OA
ATOM     29  H   UNL     1      36.986 -19.041 -22.528  0.00  0.00    +0.295 HD
ENDBRANCH  27  28
ENDBRANCH  25  27
ENDBRANCH   6  20
TORSDOF 5
ENDMDL
MODEL 2
REMARK VINA RESULT:     -12.0      1.981      2.364
REMARK  Name = 9999276
REMARK  5 active torsions:
REMARK  status: ('A' for Active; 'I' for Inactive)
REMARK    1  A    between atoms: C_3  and  C_11
REMARK    2  A    between atoms: C_6  and  C_20
REMARK    3  A    between atoms: C_14  and  N_19
REMARK    4  A    between atoms: C_25  and  C_27
REMARK    5  A    between atoms: C_27  and  O_28
REMARK                            x       y       z     vdW  Elec       q    Type
REMARK                         _______ _______ _______ _____ _____    ______ ____
ROOT
ATOM      1  N   UNL     1      34.216 -23.239 -16.824  0.00  0.00    -0.400 NA
ATOM      2  N   UNL     1      32.163 -24.930 -14.324  0.00  0.00    -0.242 NA
ATOM      3  C   UNL     1      33.803 -23.955 -15.751  0.00  0.00    +0.149 C 
ATOM      4  C   UNL     1      32.483 -24.203 -15.412  0.00  0.00    +0.107 C 
ATOM      5  C   UNL     1      31.509 -23.657 -16.265  0.00  0.00    +0.005 C 
ATOM      6  C   UNL     1      33.249 -22.734 -17.615  0.00  0.00    +0.131 C 
ATOM      7  C   UNL     1      31.897 -22.910 -17.385  0.00  0.00    +0.030 C 
ATOM      8  C   UNL     1      30.162 -23.886 -15.957  0.00  0.00    +0.056 C 
ATOM      9  C   UNL     1      29.821 -24.633 -14.836  0.00  0.00    -0.001 C 
ATOM     10  C   UNL     1      30.850 -25.128 -14.060  0.00  0.00    +0.095 C 
ENDROOT
BRANCH   3  11
ATOM     11  C   UNL     1      34.897 -24.466 -14.951  0.00  0.00    +0.033 C 
ATOM     12  C   UNL     1      35.686 -25.507 -15.435  0.00  0.00    +0.027 C 
ATOM     13  C   UNL     1      35.158 -23.914 -13.697  0.00  0.00    +0.003 C 
ATOM     14  C   UNL     1      36.740 -25.999 -14.664  0.00  0.00    +0.143 C 
ATOM     15  C   UNL     1      36.211 -24.405 -12.926  0.00  0.00    +0.002 C 
ATOM     16  C   UNL     1      37.001 -25.448 -13.409  0.00  0.00    +0.024 C 
BRANCH  14  19
ATOM     17  O   UNL     1      37.173 -27.670 -16.186  0.00  0.00    -0.126 OA
ATOM     18  O   UNL     1      38.599 -27.350 -14.544  0.00  0.00    -0.126 OA
ATOM     19  N   UNL     1      37.545 -27.060 -15.156  0.00  0.00    +0.058 N 
ENDBRANCH  14  19
ENDBRANCH   3  11
BRANCH   6  20
ATOM     20  C   UNL     1      33.721 -21.975 -18.749  0.00  0.00    +0.030 C 
ATOM     21  C   UNL     1      35.086 -21.915 -19.035  0.00  0.00    +0.003 C 
ATOM     22  C   UNL     1      32.812 -21.296 -19.563  0.00  0.00    +0.003 C 
ATOM     23  C   UNL     1      35.541 -21.182 -20.131  0.00  0.00    +0.007 C 
ATOM     24  C   UNL     1      33.267 -20.562 -20.660  0.00  0.00    +0.007 C 
ATOM     25  C   UNL     1      34.630 -20.505 -20.943  0.00  0.00    +0.075 C 
BRANCH  25  27
ATOM     26  O   UNL     1      34.605 -19.758 -23.216  0.00  0.00    -0.245 OA
ATOM     27  C   UNL     1      35.104 -19.740 -22.086  0.00  0.00    +0.338 C 
BRANCH  27  28
ATOM     28  O   UNL     1      36.187 -18.972 -21.786  0.00  0.00    -0.477 OA
ATOM     29  H   UNL     1      36.357 -18.189 -22.272  0.00  0.00    +0.295 HD
ENDBRANCH  27  28
ENDBRANCH  25  27
ENDBRANCH   6  20
TORSDOF 5
ENDMDL
MODEL 3
REMARK VINA RESULT:     -11.0      3.222      5.183
REMARK  Name = 9999276
REMARK  5 active torsions:
REMARK  status: ('A' for Active; 'I' for Inactive)
REMARK    1  A    between atoms: C_3  and  C_11
REMARK    2  A    between atoms: C_6  and  C_20
REMARK    3  A    between atoms: C_14  and  N_19
REMARK    4  A    between atoms: C_25  and  C_27
REMARK    5  A    between atoms: C_27  and  O_28
REMARK                            x       y       z     vdW  Elec       q    Type
REMARK                         _______ _______ _______ _____ _____    ______ ____
ROOT
ATOM      1  N   UNL     1      33.323 -22.797 -17.442  0.00  0.00    -0.400 NA
ATOM      2  N   UNL     1      34.262 -24.608 -14.415  0.00  0.00    -0.242 NA
ATOM      3  C   UNL     1      33.287 -23.513 -16.293  0.00  0.00    +0.149 C 
ATOM      4  C   UNL     1      34.392 -23.894 -15.550  0.00  0.00    +0.107 C 
ATOM      5  C   UNL     1      35.644 -23.494 -16.048  0.00  0.00    +0.005 C 
ATOM      6  C   UNL     1      34.543 -22.434 -17.884  0.00  0.00    +0.131 C 
ATOM      7  C   UNL     1      35.722 -22.753 -17.234  0.00  0.00    +0.030 C 
ATOM      8  C   UNL     1      36.787 -23.860 -15.325  0.00  0.00    +0.056 C 
ATOM      9  C   UNL     1      36.663 -24.595 -14.154  0.00  0.00    -0.001 C 
ATOM     10  C   UNL     1      35.391 -24.941 -13.745  0.00  0.00    +0.095 C 
ENDROOT
BRANCH   3  11
ATOM     11  C   UNL     1      31.943 -23.865 -15.882  0.00  0.00    +0.033 C 
ATOM     12  C   UNL     1      30.850 -23.426 -16.628  0.00  0.00    +0.027 C 
ATOM     13  C   UNL     1      31.746 -24.640 -14.740  0.00  0.00    +0.003 C 
ATOM     14  C   UNL     1      29.556 -23.765 -16.232  0.00  0.00    +0.143 C 
ATOM     15  C   UNL     1      30.452 -24.979 -14.344  0.00  0.00    +0.002 C 
ATOM     16  C   UNL     1      29.357 -24.540 -15.089  0.00  0.00    +0.024 C 
BRANCH  14  19
ATOM     17  O   UNL     1      27.793 -24.159 -17.657  0.00  0.00    -0.126 OA
ATOM     18  O   UNL     1      28.145 -22.102 -16.967  0.00  0.00    -0.126 OA
ATOM     19  N   UNL     1      28.442 -23.319 -16.990  0.00  0.00    +0.058 N 
ENDBRANCH  14  19
ENDBRANCH   3  11
BRANCH   6  20
ATOM     20  C   UNL     1      34.549 -21.674 -19.111  0.00  0.00    +0.030 C 
ATOM     21  C   UNL     1      33.345 -21.265 -19.689  0.00  0.00    +0.003 C 
ATOM     22  C   UNL     1      35.759 -21.345 -19.725  0.00  0.00    +0.003 C 
ATOM     23  C   UNL     1      33.351 -20.529 -20.874  0.00  0.00    +0.007 C 
ATOM     24  C   UNL     1      35.765 -20.610 -20.911  0.00  0.00    +0.007 C 
ATOM     25  C   UNL     1      34.562 -20.202 -21.485  0.00  0.00    +0.075 C 
BRANCH  25  27
ATOM     26  O   UNL     1      33.649 -19.395 -23.544  0.00  0.00    -0.245 OA
ATOM     27  C   UNL     1      34.570 -19.436 -22.721  0.00  0.00    +0.338 C 
BRANCH  27  28
ATOM     28  O   UNL     1      35.727 -18.740 -22.895  0.00  0.00    -0.477 OA
ATOM     29  H   UNL     1      35.876 -17.949 -22.416  0.00  0.00    +0.295 HD
ENDBRANCH  27  28
ENDBRANCH  25  27
ENDBRANCH   6  20
TORSDOF 5
ENDMDL
MODEL 4
REMARK VINA RESULT:     -10.0      2.201      7.053
REMARK  Name = 9999276
REMARK  5 active torsions:
REMARK  status: ('A' for Active; 'I' for Inactive)
REMARK    1  A    between atoms: C_3  and  C_11
REMARK    2  A    between atoms: C_6  and  C_20
REMARK    3  A    between atoms: C_14  and  N_19
REMARK    4  A    between atoms: C_25  and  C_27
REMARK    5  A    between atoms: C_27  and  O_28
REMARK                            x       y       z     vdW  Elec       q    Type
REMARK                         _______ _______ _______ _____ _____    ______ ____
ROOT
ATOM      1  N   UNL     1      35.064 -23.588 -16.732  0.00  0.00    -0.400 NA
ATOM      2  N   UNL     1      31.458 -23.020 -16.791  0.00  0.00    -0.242 NA
ATOM      3  C   UNL     1      33.819 -23.176 -17.072  0.00  0.00    +0.149 C 
ATOM      4  C   UNL     1      32.658 -23.475 -16.379  0.00  0.00    +0.107 C 
ATOM      5  C   UNL     1      32.807 -24.272 -15.231  0.00  0.00    +0.005 C 
ATOM      6  C   UNL     1      35.161 -24.350 -15.625  0.00  0.00    +0.131 C 
ATOM      7  C   UNL     1      34.078 -24.717 -14.847  0.00  0.00    +0.030 C 
ATOM      8  C   UNL     1      31.655 -24.596 -14.502  0.00  0.00    +0.056 C 
ATOM      9  C   UNL     1      30.414 -24.133 -14.918  0.00  0.00    -0.001 C 
ATOM     10  C   UNL     1      30.370 -23.355 -16.059  0.00  0.00    +0.095 C 
ENDROOT
BRANCH   3  11
ATOM     11  C   UNL     1      33.796 -22.362 -18.270  0.00  0.00    +0.033 C 
ATOM     12  C   UNL     1      34.990 -21.909 -18.827  0.00  0.00    +0.027 C 
ATOM     13  C   UNL     1      32.577 -22.032 -18.863  0.00  0.00    +0.003 C 
ATOM     14  C   UNL     1      34.967 -21.126 -19.981  0.00  0.00    +0.143 C 
ATOM     15  C   UNL     1      32.554 -21.248 -20.016  0.00  0.00    +0.002 C 
ATOM     16  C   UNL     1      33.749 -20.794 -20.575  0.00  0.00    +0.024 C 
BRANCH  14  19
ATOM     17  O   UNL     1      36.151 -19.671 -21.316  0.00  0.00    -0.126 OA
ATOM     18  O   UNL     1      37.247 -21.261 -20.267  0.00  0.00    -0.126 OA
ATOM     19  N   UNL     1      36.183 -20.663 -20.550  0.00  0.00    +0.058 N 
ENDBRANCH  14  19
ENDBRANCH   3  11
BRANCH   6  20
ATOM     20  C   UNL     1      36.499 -24.773 -15.289  0.00  0.00    +0.030 C 
ATOM     21  C   UNL     1      36.747 -26.101 -14.933  0.00  0.00    +0.003 C 
ATOM     22  C   UNL     1      37.552 -23.855 -15.317  0.00  0.00    +0.003 C 
ATOM     23  C   UNL     1      38.041 -26.510 -14.609  0.00  0.00    +0.007 C 
ATOM     24  C   UNL     1      38.846 -24.265 -14.993  0.00  0.00    +0.007 C 
ATOM     25  C   UNL     1      39.090 -25.591 -14.639  0.00  0.00    +0.075 C 
BRANCH  25  27
ATOM     26  O   UNL     1      40.754 -27.136 -13.886  0.00  0.00    -0.245 OA
ATOM     27  C   UNL     1      40.440 -26.016 -14.301  0.00  0.00    +0.338 C 
BRANCH  27  28
ATOM     28  O   UNL     1      41.359 -25.031 -14.492  0.00  0.00    -0.477 OA
ATOM     29  H   UNL     1      41.521 -24.701 -15.354  0.00  0.00    +0.295 HD
ENDBRANCH  27  28
ENDBRANCH  25  27
ENDBRANCH   6  20
TORSDOF 5
ENDMDL
MODEL 5
REMARK VINA RESULT:      -9.4      2.215      4.502
REMARK  Name = 9999276
REMARK  5 active torsions:
REMARK  status: ('A' for Active; 'I' for Inactive)
REMARK    1  A    between atoms: C_3  and  C_11
REMARK    2  A    between atoms: C_6  and  C_20
REMARK    3  A    between atoms: C_14  and  N_19
REMARK    4  A    between atoms: C_25  and  C_27
REMARK    5  A    between atoms: C_27  and  O_28
REMARK                            x       y       z     vdW  Elec       q    Type
REMARK                         _______ _______ _______ _____ _____    ______ ____
ROOT
ATOM      1  N   UNL     1      34.128 -22.364 -17.751  0.00  0.00    -0.400 NA
ATOM      2  N   UNL     1      35.152 -24.141 -14.732  0.00  0.00    -0.242 NA
ATOM      3  C   UNL     1      34.124 -23.065 -16.593  0.00  0.00    +0.149 C 
ATOM      4  C   UNL     1      35.250 -23.443 -15.880  0.00  0.00    +0.107 C 
ATOM      5  C   UNL     1      36.488 -23.056 -16.422  0.00  0.00    +0.005 C 
ATOM      6  C   UNL     1      35.336 -22.013 -18.235  0.00  0.00    +0.131 C 
ATOM      7  C   UNL     1      36.533 -22.330 -17.619  0.00  0.00    +0.030 C 
ATOM      8  C   UNL     1      37.651 -23.419 -15.731  0.00  0.00    +0.056 C 
ATOM      9  C   UNL     1      37.560 -24.139 -14.547  0.00  0.00    -0.001 C 
ATOM     10  C   UNL     1      36.299 -24.472 -14.094  0.00  0.00    +0.095 C 
ENDROOT
BRANCH   3  11
ATOM     11  C   UNL     1      32.792 -23.403 -16.135  0.00  0.00    +0.033 C 
ATOM     12  C   UNL     1      32.608 -23.931 -14.859  0.00  0.00    +0.027 C 
ATOM     13  C   UNL     1      31.696 -23.201 -16.975  0.00  0.00    +0.003 C 
ATOM     14  C   UNL     1      31.325 -24.257 -14.419  0.00  0.00    +0.143 C 
ATOM     15  C   UNL     1      30.413 -23.527 -16.535  0.00  0.00    +0.002 C 
ATOM     16  C   UNL     1      30.228 -24.056 -15.258  0.00  0.00    +0.024 C 
BRANCH  14  19
ATOM     17  O   UNL     1      31.799 -25.804 -12.782  0.00  0.00    -0.126 OA
ATOM     18  O   UNL     1      30.312 -24.243 -12.352  0.00  0.00    -0.126 OA
ATOM     19  N   UNL     1      31.135 -24.795 -13.119  0.00  0.00    +0.058 N 
ENDBRANCH  14  19
ENDBRANCH   3  11
BRANCH   6  20
ATOM     20  C   UNL     1      35.307 -21.268 -19.471  0.00  0.00    +0.030 C 
ATOM     21  C   UNL     1      36.494 -20.792 -20.033  0.00  0.00    +0.003 C 
ATOM     22  C   UNL     1      34.089 -21.018 -20.110  0.00  0.00    +0.003 C 
ATOM     23  C   UNL     1      36.465 -20.073 -21.228  0.00  0.00    +0.007 C 
ATOM     24  C   UNL     1      34.061 -20.298 -21.305  0.00  0.00    +0.007 C 
ATOM     25  C   UNL     1      35.248 -19.826 -21.863  0.00  0.00    +0.075 C 
BRANCH  25  27
ATOM     26  O   UNL     1      34.477 -19.312 -24.069  0.00  0.00    -0.245 OA
ATOM     27  C   UNL     1      35.217 -19.075 -23.108  0.00  0.00    +0.338 C 
BRANCH  27  28
ATOM     28  O   UNL     1      36.110 -18.048 -23.120  0.00  0.00    -0.477 OA
ATOM     29  H   UNL     1      36.974 -18.173 -22.778  0.00  0.00    +0.295 HD
ENDBRANCH  27  28
ENDBRANCH  25  27
ENDBRANCH   6  20
TORSDOF 5
ENDMDL
MODEL 6
REMARK VINA RESULT:      -9.3      3.684      7.123
REMARK  Name = 9999276
REMARK  5 active torsions:
REMARK  status: ('A' for Active; 'I' for Inactive)
REMARK    1  A    between atoms: C_3  and  C_11
REMARK    2  A    between atoms: C_6  and  C_20
REMARK    3  A    between atoms: C_14  and  N_19
REMARK    4  A    between atoms: C_25  and  C_27
REMARK    5  A    between atoms: C_27  and  O_28
REMARK                            x       y       z     vdW  Elec       q    Type
REMARK                         _______ _______ _______ _____ _____    ______ ____
ROOT
ATOM      1  N   UNL     1      32.649 -22.798 -17.007  0.00  0.00    -0.400 NA
ATOM      2  N   UNL     1      36.014 -23.899 -16.120  0.00  0.00    -0.242 NA
ATOM      3  C   UNL     1      33.987 -23.004 -16.997  0.00  0.00    +0.149 C 
ATOM      4  C   UNL     1      34.677 -23.744 -16.051  0.00  0.00    +0.107 C 
ATOM      5  C   UNL     1      33.906 -24.318 -15.026  0.00  0.00    +0.005 C 
ATOM      6  C   UNL     1      31.947 -23.366 -16.006  0.00  0.00    +0.131 C 
ATOM      7  C   UNL     1      32.519 -24.127 -15.002  0.00  0.00    +0.030 C 
ATOM      8  C   UNL     1      34.568 -25.074 -14.050  0.00  0.00    +0.056 C 
ATOM      9  C   UNL     1      35.945 -25.239 -14.112  0.00  0.00    -0.001 C 
ATOM     10  C   UNL     1      36.616 -24.636 -15.158  0.00  0.00    +0.095 C 
ENDROOT
BRANCH   3  11
ATOM     11  C   UNL     1      34.670 -22.365 -18.102  0.00  0.00    +0.033 C 
ATOM     12  C   UNL     1      33.935 -21.724 -19.098  0.00  0.00    +0.027 C 
ATOM     13  C   UNL     1      36.063 -22.392 -18.167  0.00  0.00    +0.003 C 
ATOM     14  C   UNL     1      34.594 -21.108 -20.162  0.00  0.00    +0.143 C 
ATOM     15  C   UNL     1      36.722 -21.776 -19.231  0.00  0.00    +0.002 C 
ATOM     16  C   UNL     1      35.988 -21.135 -20.229  0.00  0.00    +0.024 C 
BRANCH  14  19
ATOM     17  O   UNL     1      32.595 -20.465 -21.105  0.00  0.00    -0.126 OA
ATOM     18  O   UNL     1      34.463 -19.891 -22.111  0.00  0.00    -0.126 OA
ATOM     19  N   UNL     1      33.847 -20.455 -21.178  0.00  0.00    +0.058 N 
ENDBRANCH  14  19
ENDBRANCH   3  11
BRANCH   6  20
ATOM     20  C   UNL     1      30.524 -23.127 -16.043  0.00  0.00    +0.030 C 
ATOM     21  C   UNL     1      29.802 -23.362 -17.216  0.00  0.00    +0.003 C 
ATOM     22  C   UNL     1      29.863 -22.657 -14.906  0.00  0.00    +0.003 C 
ATOM     23  C   UNL     1      28.427 -23.132 -17.251  0.00  0.00    +0.007 C 
ATOM     24  C   UNL     1      28.487 -22.426 -14.941  0.00  0.00    +0.007 C 
ATOM     25  C   UNL     1      27.770 -22.663 -16.113  0.00  0.00    +0.075 C 
BRANCH  25  27
ATOM     26  O   UNL     1      25.569 -22.524 -15.185  0.00  0.00    -0.245 OA
ATOM     27  C   UNL     1      26.336 -22.422 -16.148  0.00  0.00    +0.338 C 
BRANCH  27  28
ATOM     28  O   UNL     1      25.900 -22.058 -17.385  0.00  0.00    -0.477 OA
ATOM     29  H   UNL     1      26.291 -22.434 -18.150  0.00  0.00    +0.295 HD
ENDBRANCH  27  28
ENDBRANCH  25  27
ENDBRANCH   6  20
TORSDOF 5
ENDMDL
