MODEL 1
REMARK VINA RESULT:     -11.5      0.000      0.000
REMARK  Name = 49831257
REMARK  4 active torsions:
REMARK  status: ('A' for Active; 'I' for Inactive)
REMARK    1  A    between atoms: C_1  and  C_23
REMARK    2  A    between atoms: C_4  and  C_14
REMARK    3  A    between atoms: C_12  and  C_20
REMARK    4  A    between atoms: C_23  and  N_27
REMARK                            x       y       z     vdW  Elec       q    Type
REMARK                         _______ _______ _______ _____ _____    ______ ____
ROOT
ATOM      1  C   UNL     1      35.441 -20.295 -21.134  0.00  0.00    -0.043 C 
ATOM      2  C   UNL     1      34.055 -20.304 -20.977  0.00  0.00    -0.006 C 
ATOM      3  C   UNL     1      36.248 -21.008 -20.248  0.00  0.00    -0.006 C 
ATOM      4  C   UNL     1      34.284 -21.740 -19.048  0.00  0.00    +0.016 C 
ATOM      5  C   UNL     1      33.477 -21.026 -19.934  0.00  0.00    +0.001 C 
ATOM      6  C   UNL     1      35.670 -21.731 -19.205  0.00  0.00    +0.001 C 
ENDROOT
BRANCH   4  14
ATOM      7  O   UNL     1      36.710 -25.630 -13.372  0.00  0.00    -0.274 OA
ATOM      8  N   UNL     1      37.211 -24.306 -15.259  0.00  0.00    -0.217 N 
ATOM      9  N   UNL     1      34.456 -23.166 -16.978  0.00  0.00    -0.152 N 
ATOM     10  N   UNL     1      35.810 -23.217 -16.859  0.00  0.00    -0.092 NA
ATOM     11  N   UNL     1      34.842 -24.416 -15.174  0.00  0.00    -0.319 NA
ATOM     12  C   UNL     1      37.505 -25.088 -14.127  0.00  0.00    +0.234 C 
ATOM     13  C   UNL     1      35.977 -23.973 -15.776  0.00  0.00    +0.167 C 
ATOM     14  C   UNL     1      33.673 -22.502 -17.945  0.00  0.00    +0.077 C 
ATOM     15  C   UNL     1      33.893 -23.906 -15.928  0.00  0.00    +0.219 C 
ATOM     16  C   UNL     1      32.329 -22.587 -17.850  0.00  0.00    +0.017 C 
ATOM     17  C   UNL     1      32.476 -23.980 -15.850  0.00  0.00    +0.051 C 
ATOM     18  C   UNL     1      31.726 -23.348 -16.769  0.00  0.00    +0.005 C 
ATOM     19  H   UNL     1      37.989 -23.950 -15.747  0.00  0.00    +0.167 HD
BRANCH  12  20
ATOM     20  C   UNL     1      38.968 -25.249 -13.852  0.00  0.00    +0.077 C 
ATOM     21  C   UNL     1      39.930 -25.253 -15.003  0.00  0.00    +0.010 C 
ATOM     22  C   UNL     1      39.651 -26.523 -14.253  0.00  0.00    +0.010 C 
ENDBRANCH  12  20
ENDBRANCH   4  14
BRANCH   1  23
ATOM     23  C   UNL     1      36.066 -19.517 -22.262  0.00  0.00    -0.050 C 
BRANCH  23  27
ATOM     24  S   UNL     1      33.954 -17.025 -25.379  0.00  0.00    -0.014 S 
ATOM     25  O   UNL     1      32.687 -16.403 -25.709  0.00  0.00    -0.173 OA
ATOM     26  O   UNL     1      35.095 -16.913 -26.267  0.00  0.00    -0.173 OA
ATOM     27  N   UNL     1      35.067 -18.749 -23.012  0.00  0.00    +0.392 N 
ATOM     28  C   UNL     1      34.821 -19.389 -24.316  0.00  0.00    -0.051 C 
ATOM     29  C   UNL     1      35.519 -17.355 -23.162  0.00  0.00    -0.051 C 
ATOM     30  C   UNL     1      34.441 -16.462 -23.766  0.00  0.00    +0.128 C 
ATOM     31  C   UNL     1      33.656 -18.747 -25.062  0.00  0.00    +0.128 C 
ATOM     32  H   UNL     1      34.185 -18.736 -22.501  0.00  0.00    -0.079 HD
ENDBRANCH  23  27
ENDBRANCH   1  23
TORSDOF 4
ENDMDL
MODEL 2
REMARK VINA RESULT:     -11.1      4.670     11.101
REMARK  Name = 49831257
REMARK  4 active torsions:
REMARK  status: ('A' for Active; 'I' for Inactive)
REMARK    1  A    between atoms: C_1  and  C_23
REMARK    2  A    between atoms: C_4  and  C_14
REMARK    3  A    between atoms: C_12  and  C_20
REMARK    4  A    between atoms: C_23  and  N_27
REMARK                            x       y       z     vdW  Elec       q    Type
REMARK                         _______ _______ _______ _____ _____    ______ ____
ROOT
ATOM      1  C   UNL     1      36.085 -18.893 -21.575  0.00  0.00    -0.043 C 
ATOM      2  C   UNL     1      35.719 -17.654 -21.052  0.00  0.00    -0.006 C 
ATOM      3  C   UNL     1      35.867 -19.173 -22.925  0.00  0.00    -0.006 C 
ATOM      4  C   UNL     1      34.916 -16.974 -23.227  0.00  0.00    +0.016 C 
ATOM      5  C   UNL     1      35.134 -16.694 -21.878  0.00  0.00    +0.001 C 
ATOM      6  C   UNL     1      35.282 -18.214 -23.751  0.00  0.00    +0.001 C 
ENDROOT
BRANCH   4  14
ATOM      7  O   UNL     1      31.311 -10.704 -22.263  0.00  0.00    -0.274 OA
ATOM      8  N   UNL     1      32.435 -12.541 -21.301  0.00  0.00    -0.217 N 
ATOM      9  N   UNL     1      33.652 -14.822 -23.574  0.00  0.00    -0.152 N 
ATOM     10  N   UNL     1      33.502 -14.445 -22.275  0.00  0.00    -0.092 NA
ATOM     11  N   UNL     1      32.523 -12.903 -23.645  0.00  0.00    -0.319 NA
ATOM     12  C   UNL     1      31.726 -11.327 -21.294  0.00  0.00    +0.234 C 
ATOM     13  C   UNL     1      32.824 -13.304 -22.382  0.00  0.00    +0.167 C 
ATOM     14  C   UNL     1      34.296 -15.961 -24.099  0.00  0.00    +0.077 C 
ATOM     15  C   UNL     1      33.045 -13.854 -24.386  0.00  0.00    +0.219 C 
ATOM     16  C   UNL     1      34.327 -16.119 -25.440  0.00  0.00    +0.017 C 
ATOM     17  C   UNL     1      33.092 -14.042 -25.794  0.00  0.00    +0.051 C 
ATOM     18  C   UNL     1      33.707 -15.126 -26.300  0.00  0.00    +0.005 C 
ATOM     19  H   UNL     1      32.688 -12.894 -20.417  0.00  0.00    +0.167 HD
BRANCH  12  20
ATOM     20  C   UNL     1      31.471 -10.769 -19.929  0.00  0.00    +0.077 C 
ATOM     21  C   UNL     1      31.536  -9.283 -19.725  0.00  0.00    +0.010 C 
ATOM     22  C   UNL     1      32.611 -10.166 -19.161  0.00  0.00    +0.010 C 
ENDBRANCH  12  20
ENDBRANCH   4  14
BRANCH   1  23
ATOM     23  C   UNL     1      36.719 -19.929 -20.685  0.00  0.00    -0.050 C 
BRANCH  23  27
ATOM     24  S   UNL     1      33.872 -22.850 -18.748  0.00  0.00    -0.014 S 
ATOM     25  O   UNL     1      32.935 -23.009 -17.654  0.00  0.00    -0.173 OA
ATOM     26  O   UNL     1      34.124 -23.931 -19.681  0.00  0.00    -0.173 OA
ATOM     27  N   UNL     1      35.736 -20.562 -19.801  0.00  0.00    +0.392 N 
ATOM     28  C   UNL     1      36.337 -21.735 -19.142  0.00  0.00    -0.051 C 
ATOM     29  C   UNL     1      34.532 -20.922 -20.570  0.00  0.00    -0.051 C 
ATOM     30  C   UNL     1      33.400 -21.409 -19.673  0.00  0.00    +0.128 C 
ATOM     31  C   UNL     1      35.427 -22.322 -18.069  0.00  0.00    +0.128 C 
ATOM     32  H   UNL     1      35.454 -19.907 -19.072  0.00  0.00    -0.079 HD
ENDBRANCH  23  27
ENDBRANCH   1  23
TORSDOF 4
ENDMDL
MODEL 3
REMARK VINA RESULT:     -10.7      1.749      2.047
REMARK  Name = 49831257
REMARK  4 active torsions:
REMARK  status: ('A' for Active; 'I' for Inactive)
REMARK    1  A    between atoms: C_1  and  C_23
REMARK    2  A    between atoms: C_4  and  C_14
REMARK    3  A    between atoms: C_12  and  C_20
REMARK    4  A    between atoms: C_23  and  N_27
REMARK                            x       y       z     vdW  Elec       q    Type
REMARK                         _______ _______ _______ _____ _____    ______ ____
ROOT
ATOM      1  C   UNL     1      34.820 -21.266 -20.188  0.00  0.00    -0.043 C 
ATOM      2  C   UNL     1      33.435 -21.113 -20.134  0.00  0.00    -0.006 C 
ATOM      3  C   UNL     1      35.481 -21.988 -19.194  0.00  0.00    -0.006 C 
ATOM      4  C   UNL     1      33.373 -22.402 -18.091  0.00  0.00    +0.016 C 
ATOM      5  C   UNL     1      32.711 -21.681 -19.085  0.00  0.00    +0.001 C 
ATOM      6  C   UNL     1      34.758 -22.556 -18.145  0.00  0.00    +0.001 C 
ENDROOT
BRANCH   4  14
ATOM      7  O   UNL     1      34.942 -25.231 -11.551  0.00  0.00    -0.274 OA
ATOM      8  N   UNL     1      35.711 -24.208 -13.533  0.00  0.00    -0.217 N 
ATOM      9  N   UNL     1      33.241 -23.469 -15.812  0.00  0.00    -0.152 N 
ATOM     10  N   UNL     1      34.561 -23.446 -15.484  0.00  0.00    -0.092 NA
ATOM     11  N   UNL     1      33.360 -24.396 -13.790  0.00  0.00    -0.319 NA
ATOM     12  C   UNL     1      35.837 -24.785 -12.256  0.00  0.00    +0.234 C 
ATOM     13  C   UNL     1      34.568 -24.012 -14.278  0.00  0.00    +0.167 C 
ATOM     14  C   UNL     1      32.609 -23.001 -16.983  0.00  0.00    +0.077 C 
ATOM     15  C   UNL     1      32.533 -24.053 -14.753  0.00  0.00    +0.219 C 
ATOM     16  C   UNL     1      31.267 -23.123 -17.080  0.00  0.00    +0.017 C 
ATOM     17  C   UNL     1      31.122 -24.169 -14.878  0.00  0.00    +0.051 C 
ATOM     18  C   UNL     1      30.515 -23.723 -15.992  0.00  0.00    +0.005 C 
ATOM     19  H   UNL     1      36.550 -23.904 -13.949  0.00  0.00    +0.167 HD
BRANCH  12  20
ATOM     20  C   UNL     1      37.241 -24.842 -11.740  0.00  0.00    +0.077 C 
ATOM     21  C   UNL     1      38.373 -24.505 -12.667  0.00  0.00    +0.010 C 
ATOM     22  C   UNL     1      38.157 -25.925 -12.230  0.00  0.00    +0.010 C 
ENDBRANCH  12  20
ENDBRANCH   4  14
BRANCH   1  23
ATOM     23  C   UNL     1      35.601 -20.655 -21.321  0.00  0.00    -0.050 C 
BRANCH  23  27
ATOM     24  S   UNL     1      35.017 -16.542 -23.090  0.00  0.00    -0.014 S 
ATOM     25  O   UNL     1      34.049 -15.479 -23.266  0.00  0.00    -0.173 OA
ATOM     26  O   UNL     1      36.365 -16.421 -23.611  0.00  0.00    -0.173 OA
ATOM     27  N   UNL     1      35.035 -19.370 -21.742  0.00  0.00    +0.392 N 
ATOM     28  C   UNL     1      35.054 -19.273 -23.212  0.00  0.00    -0.051 C 
ATOM     29  C   UNL     1      35.777 -18.267 -21.109  0.00  0.00    -0.051 C 
ATOM     30  C   UNL     1      35.118 -16.914 -21.356  0.00  0.00    +0.128 C 
ATOM     31  C   UNL     1      34.306 -18.045 -23.718  0.00  0.00    +0.128 C 
ATOM     32  H   UNL     1      34.063 -19.305 -21.440  0.00  0.00    -0.079 HD
ENDBRANCH  23  27
ENDBRANCH   1  23
TORSDOF 4
ENDMDL
MODEL 4
REMARK VINA RESULT:      -9.6     10.944     16.090
REMARK  Name = 49831257
REMARK  4 active torsions:
REMARK  status: ('A' for Active; 'I' for Inactive)
REMARK    1  A    between atoms: C_1  and  C_23
REMARK    2  A    between atoms: C_4  and  C_14
REMARK    3  A    between atoms: C_12  and  C_20
REMARK    4  A    between atoms: C_23  and  N_27
REMARK                            x       y       z     vdW  Elec       q    Type
REMARK                         _______ _______ _______ _____ _____    ______ ____
ROOT
ATOM      1  C   UNL     1      34.065  -4.862 -26.396  0.00  0.00    -0.043 C 
ATOM      2  C   UNL     1      34.932  -5.634 -25.623  0.00  0.00    -0.006 C 
ATOM      3  C   UNL     1      32.761  -4.628 -25.959  0.00  0.00    -0.006 C 
ATOM      4  C   UNL     1      33.190  -5.940 -23.977  0.00  0.00    +0.016 C 
ATOM      5  C   UNL     1      34.494  -6.173 -24.413  0.00  0.00    +0.001 C 
ATOM      6  C   UNL     1      32.323  -5.167 -24.750  0.00  0.00    +0.001 C 
ENDROOT
BRANCH   4  14
ATOM      7  O   UNL     1      32.111 -12.640 -21.299  0.00  0.00    -0.274 OA
ATOM      8  N   UNL     1      32.798 -11.287 -23.105  0.00  0.00    -0.217 N 
ATOM      9  N   UNL     1      32.627  -7.903 -22.501  0.00  0.00    -0.152 N 
ATOM     10  N   UNL     1      32.931  -8.915 -23.359  0.00  0.00    -0.092 NA
ATOM     11  N   UNL     1      32.183  -9.776 -21.381  0.00  0.00    -0.319 NA
ATOM     12  C   UNL     1      32.534 -12.497 -22.438  0.00  0.00    +0.234 C 
ATOM     13  C   UNL     1      32.644  -9.998 -22.639  0.00  0.00    +0.167 C 
ATOM     14  C   UNL     1      32.727  -6.510 -22.700  0.00  0.00    +0.077 C 
ATOM     15  C   UNL     1      32.176  -8.464 -21.298  0.00  0.00    +0.219 C 
ATOM     16  C   UNL     1      32.373  -5.691 -21.687  0.00  0.00    +0.017 C 
ATOM     17  C   UNL     1      31.811  -7.581 -20.247  0.00  0.00    +0.051 C 
ATOM     18  C   UNL     1      31.905  -6.253 -20.431  0.00  0.00    +0.005 C 
ATOM     19  H   UNL     1      33.137 -11.371 -24.026  0.00  0.00    +0.167 HD
BRANCH  12  20
ATOM     20  C   UNL     1      32.815 -13.723 -23.249  0.00  0.00    +0.077 C 
ATOM     21  C   UNL     1      34.164 -14.372 -23.146  0.00  0.00    +0.010 C 
ATOM     22  C   UNL     1      33.780 -13.635 -24.396  0.00  0.00    +0.010 C 
ENDBRANCH  12  20
ENDBRANCH   4  14
BRANCH   1  23
ATOM     23  C   UNL     1      34.538  -4.278 -27.701  0.00  0.00    -0.050 C 
BRANCH  23  27
ATOM     24  S   UNL     1      38.805  -3.480 -28.944  0.00  0.00    -0.014 S 
ATOM     25  O   UNL     1      40.183  -3.820 -28.655  0.00  0.00    -0.173 OA
ATOM     26  O   UNL     1      38.471  -2.545 -30.000  0.00  0.00    -0.173 OA
ATOM     27  N   UNL     1      36.000  -4.285 -27.802  0.00  0.00    +0.392 N 
ATOM     28  C   UNL     1      36.527  -2.935 -27.535  0.00  0.00    -0.051 C 
ATOM     29  C   UNL     1      36.406  -4.778 -29.129  0.00  0.00    -0.051 C 
ATOM     30  C   UNL     1      37.913  -4.990 -29.229  0.00  0.00    +0.128 C 
ATOM     31  C   UNL     1      38.048  -2.919 -27.438  0.00  0.00    +0.128 C 
ATOM     32  H   UNL     1      36.392  -4.915 -27.103  0.00  0.00    -0.079 HD
ENDBRANCH  23  27
ENDBRANCH   1  23
TORSDOF 4
ENDMDL
MODEL 5
REMARK VINA RESULT:      -9.5      6.723     11.179
REMARK  Name = 49831257
REMARK  4 active torsions:
REMARK  status: ('A' for Active; 'I' for Inactive)
REMARK    1  A    between atoms: C_1  and  C_23
REMARK    2  A    between atoms: C_4  and  C_14
REMARK    3  A    between atoms: C_12  and  C_20
REMARK    4  A    between atoms: C_23  and  N_27
REMARK                            x       y       z     vdW  Elec       q    Type
REMARK                         _______ _______ _______ _____ _____    ______ ____
ROOT
ATOM      1  C   UNL     1      32.357 -10.535 -21.903  0.00  0.00    -0.043 C 
ATOM      2  C   UNL     1      33.121 -10.305 -23.047  0.00  0.00    -0.006 C 
ATOM      3  C   UNL     1      31.903 -11.822 -21.615  0.00  0.00    -0.006 C 
ATOM      4  C   UNL     1      32.976 -12.649 -23.615  0.00  0.00    +0.016 C 
ATOM      5  C   UNL     1      33.430 -11.361 -23.904  0.00  0.00    +0.001 C 
ATOM      6  C   UNL     1      32.212 -12.879 -22.471  0.00  0.00    +0.001 C 
ENDROOT
BRANCH   4  14
ATOM      7  O   UNL     1      36.059 -19.228 -22.951  0.00  0.00    -0.274 OA
ATOM      8  N   UNL     1      35.343 -17.233 -21.916  0.00  0.00    -0.217 N 
ATOM      9  N   UNL     1      33.922 -14.942 -24.055  0.00  0.00    -0.152 N 
ATOM     10  N   UNL     1      34.295 -15.271 -22.789  0.00  0.00    -0.092 NA
ATOM     11  N   UNL     1      34.816 -16.976 -24.215  0.00  0.00    -0.319 NA
ATOM     12  C   UNL     1      35.915 -18.517 -21.966  0.00  0.00    +0.234 C 
ATOM     13  C   UNL     1      34.820 -16.484 -22.949  0.00  0.00    +0.167 C 
ATOM     14  C   UNL     1      33.301 -13.765 -24.520  0.00  0.00    +0.077 C 
ATOM     15  C   UNL     1      34.251 -16.009 -24.903  0.00  0.00    +0.219 C 
ATOM     16  C   UNL     1      33.013 -13.668 -25.836  0.00  0.00    +0.017 C 
ATOM     17  C   UNL     1      33.937 -15.884 -26.284  0.00  0.00    +0.051 C 
ATOM     18  C   UNL     1      33.344 -14.764 -26.731  0.00  0.00    +0.005 C 
ATOM     19  H   UNL     1      35.312 -16.813 -21.025  0.00  0.00    +0.167 HD
BRANCH  12  20
ATOM     20  C   UNL     1      36.386 -19.035 -20.643  0.00  0.00    +0.077 C 
ATOM     21  C   UNL     1      37.475 -20.067 -20.609  0.00  0.00    +0.010 C 
ATOM     22  C   UNL     1      36.067 -20.450 -20.256  0.00  0.00    +0.010 C 
ENDBRANCH  12  20
ENDBRANCH   4  14
BRANCH   1  23
ATOM     23  C   UNL     1      32.025  -9.395 -20.977  0.00  0.00    -0.050 C 
BRANCH  23  27
ATOM     24  S   UNL     1      31.290  -5.220 -22.533  0.00  0.00    -0.014 S 
ATOM     25  O   UNL     1      31.874  -4.153 -23.320  0.00  0.00    -0.173 OA
ATOM     26  O   UNL     1      29.975  -5.078 -21.938  0.00  0.00    -0.173 OA
ATOM     27  N   UNL     1      32.159  -8.096 -21.644  0.00  0.00    +0.392 N 
ATOM     28  C   UNL     1      32.117  -7.014 -20.644  0.00  0.00    -0.051 C 
ATOM     29  C   UNL     1      31.104  -7.945 -22.659  0.00  0.00    -0.051 C 
ATOM     30  C   UNL     1      31.303  -6.700 -23.517  0.00  0.00    +0.128 C 
ATOM     31  C   UNL     1      32.442  -5.655 -21.252  0.00  0.00    +0.128 C 
ATOM     32  H   UNL     1      33.059  -8.043 -22.120  0.00  0.00    -0.079 HD
ENDBRANCH  23  27
ENDBRANCH   1  23
TORSDOF 4
ENDMDL
MODEL 6
REMARK VINA RESULT:      -9.4      3.066      5.645
REMARK  Name = 49831257
REMARK  4 active torsions:
REMARK  status: ('A' for Active; 'I' for Inactive)
REMARK    1  A    between atoms: C_1  and  C_23
REMARK    2  A    between atoms: C_4  and  C_14
REMARK    3  A    between atoms: C_12  and  C_20
REMARK    4  A    between atoms: C_23  and  N_27
REMARK                            x       y       z     vdW  Elec       q    Type
REMARK                         _______ _______ _______ _____ _____    ______ ____
ROOT
ATOM      1  C   UNL     1      35.619 -21.195 -20.265  0.00  0.00    -0.043 C 
ATOM      2  C   UNL     1      34.258 -21.475 -20.145  0.00  0.00    -0.006 C 
ATOM      3  C   UNL     1      36.497 -21.550 -19.240  0.00  0.00    -0.006 C 
ATOM      4  C   UNL     1      34.652 -22.464 -17.976  0.00  0.00    +0.016 C 
ATOM      5  C   UNL     1      33.774 -22.109 -19.000  0.00  0.00    +0.001 C 
ATOM      6  C   UNL     1      36.014 -22.184 -18.096  0.00  0.00    +0.001 C 
ENDROOT
BRANCH   4  14
ATOM      7  O   UNL     1      28.084 -23.994 -15.192  0.00  0.00    -0.274 OA
ATOM      8  N   UNL     1      29.352 -23.050 -16.943  0.00  0.00    -0.217 N 
ATOM      9  N   UNL     1      32.760 -23.265 -16.518  0.00  0.00    -0.152 N 
ATOM     10  N   UNL     1      31.709 -22.862 -17.283  0.00  0.00    -0.092 NA
ATOM     11  N   UNL     1      30.941 -23.876 -15.387  0.00  0.00    -0.319 NA
ATOM     12  C   UNL     1      28.174 -23.417 -16.267  0.00  0.00    +0.234 C 
ATOM     13  C   UNL     1      30.661 -23.249 -16.559  0.00  0.00    +0.167 C 
ATOM     14  C   UNL     1      34.142 -23.132 -16.766  0.00  0.00    +0.077 C 
ATOM     15  C   UNL     1      32.255 -23.886 -15.367  0.00  0.00    +0.219 C 
ATOM     16  C   UNL     1      35.008 -23.625 -15.855  0.00  0.00    +0.017 C 
ATOM     17  C   UNL     1      33.187 -24.397 -14.423  0.00  0.00    +0.051 C 
ATOM     18  C   UNL     1      34.505 -24.274 -14.656  0.00  0.00    +0.005 C 
ATOM     19  H   UNL     1      29.225 -22.589 -17.804  0.00  0.00    +0.167 HD
BRANCH  12  20
ATOM     20  C   UNL     1      26.912 -23.042 -16.979  0.00  0.00    +0.077 C 
ATOM     21  C   UNL     1      26.819 -21.697 -17.638  0.00  0.00    +0.010 C 
ATOM     22  C   UNL     1      26.031 -21.977 -16.392  0.00  0.00    +0.010 C 
ENDBRANCH  12  20
ENDBRANCH   4  14
BRANCH   1  23
ATOM     23  C   UNL     1      36.141 -20.513 -21.501  0.00  0.00    -0.050 C 
BRANCH  23  27
ATOM     24  S   UNL     1      34.904 -16.442 -23.013  0.00  0.00    -0.014 S 
ATOM     25  O   UNL     1      33.800 -15.504 -23.056  0.00  0.00    -0.173 OA
ATOM     26  O   UNL     1      36.175 -16.132 -23.638  0.00  0.00    -0.173 OA
ATOM     27  N   UNL     1      35.387 -19.295 -21.810  0.00  0.00    +0.392 N 
ATOM     28  C   UNL     1      35.264 -19.140 -23.270  0.00  0.00    -0.051 C 
ATOM     29  C   UNL     1      36.041 -18.131 -21.189  0.00  0.00    -0.051 C 
ATOM     30  C   UNL     1      35.203 -16.864 -21.313  0.00  0.00    +0.128 C 
ATOM     31  C   UNL     1      34.329 -17.998 -23.652  0.00  0.00    +0.128 C 
ATOM     32  H   UNL     1      34.445 -19.364 -21.425  0.00  0.00    -0.079 HD
ENDBRANCH  23  27
ENDBRANCH   1  23
TORSDOF 4
ENDMDL
MODEL 7
REMARK VINA RESULT:      -9.2      8.060     14.748
REMARK  Name = 49831257
REMARK  4 active torsions:
REMARK  status: ('A' for Active; 'I' for Inactive)
REMARK    1  A    between atoms: C_1  and  C_23
REMARK    2  A    between atoms: C_4  and  C_14
REMARK    3  A    between atoms: C_12  and  C_20
REMARK    4  A    between atoms: C_23  and  N_27
REMARK                            x       y       z     vdW  Elec       q    Type
REMARK                         _______ _______ _______ _____ _____    ______ ____
ROOT
ATOM      1  C   UNL     1      33.514 -13.618 -23.907  0.00  0.00    -0.043 C 
ATOM      2  C   UNL     1      32.690 -13.737 -22.789  0.00  0.00    -0.006 C 
ATOM      3  C   UNL     1      33.966 -12.361 -24.309  0.00  0.00    -0.006 C 
ATOM      4  C   UNL     1      32.768 -11.343 -22.475  0.00  0.00    +0.016 C 
ATOM      5  C   UNL     1      32.316 -12.600 -22.073  0.00  0.00    +0.001 C 
ATOM      6  C   UNL     1      33.594 -11.223 -23.594  0.00  0.00    +0.001 C 
ENDROOT
BRANCH   4  14
ATOM      7  O   UNL     1      32.125  -4.216 -23.898  0.00  0.00    -0.274 OA
ATOM      8  N   UNL     1      32.649  -6.380 -24.679  0.00  0.00    -0.217 N 
ATOM      9  N   UNL     1      32.358  -8.863 -22.314  0.00  0.00    -0.152 N 
ATOM     10  N   UNL     1      32.654  -8.508 -23.594  0.00  0.00    -0.092 NA
ATOM     11  N   UNL     1      32.065  -6.656 -22.395  0.00  0.00    -0.319 NA
ATOM     12  C   UNL     1      32.477  -4.987 -24.781  0.00  0.00    +0.234 C 
ATOM     13  C   UNL     1      32.465  -7.190 -23.579  0.00  0.00    +0.167 C 
ATOM     14  C   UNL     1      32.373 -10.142 -21.720  0.00  0.00    +0.077 C 
ATOM     15  C   UNL     1      31.997  -7.706 -21.608  0.00  0.00    +0.219 C 
ATOM     16  C   UNL     1      32.026 -10.250 -20.419  0.00  0.00    +0.017 C 
ATOM     17  C   UNL     1      31.635  -7.846 -20.241  0.00  0.00    +0.051 C 
ATOM     18  C   UNL     1      31.647  -9.063 -19.671  0.00  0.00    +0.005 C 
ATOM     19  H   UNL     1      32.939  -6.836 -25.502  0.00  0.00    +0.167 HD
BRANCH  12  20
ATOM     20  C   UNL     1      32.767  -4.427 -26.138  0.00  0.00    +0.077 C 
ATOM     21  C   UNL     1      34.018  -4.852 -26.850  0.00  0.00    +0.010 C 
ATOM     22  C   UNL     1      33.903  -3.459 -26.302  0.00  0.00    +0.010 C 
ENDBRANCH  12  20
ENDBRANCH   4  14
BRANCH   1  23
ATOM     23  C   UNL     1      33.919 -14.846 -24.680  0.00  0.00    -0.050 C 
BRANCH  23  27
ATOM     24  S   UNL     1      35.522 -18.402 -22.405  0.00  0.00    -0.014 S 
ATOM     25  O   UNL     1      35.152 -19.450 -21.476  0.00  0.00    -0.173 OA
ATOM     26  O   UNL     1      36.877 -18.290 -22.908  0.00  0.00    -0.173 OA
ATOM     27  N   UNL     1      34.052 -16.017 -23.808  0.00  0.00    +0.392 N 
ATOM     28  C   UNL     1      35.020 -15.735 -22.734  0.00  0.00    -0.051 C 
ATOM     29  C   UNL     1      34.445 -17.191 -24.607  0.00  0.00    -0.051 C 
ATOM     30  C   UNL     1      34.414 -18.479 -23.791  0.00  0.00    +0.128 C 
ATOM     31  C   UNL     1      35.059 -16.843 -21.688  0.00  0.00    +0.128 C 
ATOM     32  H   UNL     1      33.155 -16.226 -23.370  0.00  0.00    -0.079 HD
ENDBRANCH  23  27
ENDBRANCH   1  23
TORSDOF 4
ENDMDL
MODEL 8
REMARK VINA RESULT:      -9.0      2.852      5.444
REMARK  Name = 49831257
REMARK  4 active torsions:
REMARK  status: ('A' for Active; 'I' for Inactive)
REMARK    1  A    between atoms: C_1  and  C_23
REMARK    2  A    between atoms: C_4  and  C_14
REMARK    3  A    between atoms: C_12  and  C_20
REMARK    4  A    between atoms: C_23  and  N_27
REMARK                            x       y       z     vdW  Elec       q    Type
REMARK                         _______ _______ _______ _____ _____    ______ ____
ROOT
ATOM      1  C   UNL     1      35.014 -20.113 -21.483  0.00  0.00    -0.043 C 
ATOM      2  C   UNL     1      36.184 -20.522 -20.844  0.00  0.00    -0.006 C 
ATOM      3  C   UNL     1      33.772 -20.464 -20.956  0.00  0.00    -0.006 C 
ATOM      4  C   UNL     1      34.869 -21.635 -19.150  0.00  0.00    +0.016 C 
ATOM      5  C   UNL     1      36.112 -21.284 -19.678  0.00  0.00    +0.001 C 
ATOM      6  C   UNL     1      33.698 -21.225 -19.789  0.00  0.00    +0.001 C 
ENDROOT
BRANCH   4  14
ATOM      7  O   UNL     1      29.543 -24.481 -15.056  0.00  0.00    -0.274 OA
ATOM      8  N   UNL     1      30.163 -23.240 -16.964  0.00  0.00    -0.217 N 
ATOM      9  N   UNL     1      33.557 -22.838 -17.367  0.00  0.00    -0.152 N 
ATOM     10  N   UNL     1      32.298 -22.603 -17.827  0.00  0.00    -0.092 NA
ATOM     11  N   UNL     1      32.202 -23.827 -15.901  0.00  0.00    -0.319 NA
ATOM     12  C   UNL     1      29.267 -23.850 -16.067  0.00  0.00    +0.234 C 
ATOM     13  C   UNL     1      31.540 -23.211 -16.915  0.00  0.00    +0.167 C 
ATOM     14  C   UNL     1      34.792 -22.440 -17.919  0.00  0.00    +0.077 C 
ATOM     15  C   UNL     1      33.463 -23.593 -16.190  0.00  0.00    +0.219 C 
ATOM     16  C   UNL     1      35.926 -22.804 -17.282  0.00  0.00    +0.017 C 
ATOM     17  C   UNL     1      34.670 -23.965 -15.539  0.00  0.00    +0.051 C 
ATOM     18  C   UNL     1      35.850 -23.589 -16.062  0.00  0.00    +0.005 C 
ATOM     19  H   UNL     1      29.752 -22.773 -17.727  0.00  0.00    +0.167 HD
BRANCH  12  20
ATOM     20  C   UNL     1      27.824 -23.684 -16.427  0.00  0.00    +0.077 C 
ATOM     21  C   UNL     1      27.413 -22.509 -17.266  0.00  0.00    +0.010 C 
ATOM     22  C   UNL     1      27.041 -22.560 -15.812  0.00  0.00    +0.010 C 
ENDBRANCH  12  20
ENDBRANCH   4  14
BRANCH   1  23
ATOM     23  C   UNL     1      35.092 -19.289 -22.742  0.00  0.00    -0.050 C 
BRANCH  23  27
ATOM     24  S   UNL     1      34.536 -14.897 -21.854  0.00  0.00    -0.014 S 
ATOM     25  O   UNL     1      35.250 -13.663 -21.596  0.00  0.00    -0.173 OA
ATOM     26  O   UNL     1      33.087 -14.932 -21.876  0.00  0.00    -0.173 OA
ATOM     27  N   UNL     1      35.322 -17.871 -22.451  0.00  0.00    +0.392 N 
ATOM     28  C   UNL     1      34.739 -17.528 -21.141  0.00  0.00    -0.051 C 
ATOM     29  C   UNL     1      34.763 -17.043 -23.533  0.00  0.00    -0.051 C 
ATOM     30  C   UNL     1      35.136 -15.572 -23.384  0.00  0.00    +0.128 C 
ATOM     31  C   UNL     1      35.109 -16.118 -20.697  0.00  0.00    +0.128 C 
ATOM     32  H   UNL     1      36.323 -17.685 -22.402  0.00  0.00    -0.079 HD
ENDBRANCH  23  27
ENDBRANCH   1  23
TORSDOF 4
ENDMDL
MODEL 9
REMARK VINA RESULT:      -8.7      1.703      2.223
REMARK  Name = 49831257
REMARK  4 active torsions:
REMARK  status: ('A' for Active; 'I' for Inactive)
REMARK    1  A    between atoms: C_1  and  C_23
REMARK    2  A    between atoms: C_4  and  C_14
REMARK    3  A    between atoms: C_12  and  C_20
REMARK    4  A    between atoms: C_23  and  N_27
REMARK                            x       y       z     vdW  Elec       q    Type
REMARK                         _______ _______ _______ _____ _____    ______ ____
ROOT
ATOM      1  C   UNL     1      34.843 -20.377 -21.295  0.00  0.00    -0.043 C 
ATOM      2  C   UNL     1      35.759 -21.019 -20.463  0.00  0.00    -0.006 C 
ATOM      3  C   UNL     1      33.479 -20.436 -21.008  0.00  0.00    -0.006 C 
ATOM      4  C   UNL     1      33.948 -21.781 -19.057  0.00  0.00    +0.016 C 
ATOM      5  C   UNL     1      35.312 -21.722 -19.344  0.00  0.00    +0.001 C 
ATOM      6  C   UNL     1      33.031 -21.138 -19.890  0.00  0.00    +0.001 C 
ENDROOT
BRANCH   4  14
ATOM      7  O   UNL     1      37.052 -25.364 -13.511  0.00  0.00    -0.274 OA
ATOM      8  N   UNL     1      37.319 -24.092 -15.479  0.00  0.00    -0.217 N 
ATOM      9  N   UNL     1      34.371 -23.122 -16.967  0.00  0.00    -0.152 N 
ATOM     10  N   UNL     1      35.732 -23.117 -16.975  0.00  0.00    -0.092 NA
ATOM     11  N   UNL     1      34.975 -24.289 -15.167  0.00  0.00    -0.319 NA
ATOM     12  C   UNL     1      37.750 -24.819 -14.355  0.00  0.00    +0.234 C 
ATOM     13  C   UNL     1      36.030 -23.826 -15.888  0.00  0.00    +0.167 C 
ATOM     14  C   UNL     1      33.475 -22.525 -17.877  0.00  0.00    +0.077 C 
ATOM     15  C   UNL     1      33.940 -23.844 -15.845  0.00  0.00    +0.219 C 
ATOM     16  C   UNL     1      32.150 -22.658 -17.653  0.00  0.00    +0.017 C 
ATOM     17  C   UNL     1      32.541 -23.969 -15.630  0.00  0.00    +0.051 C 
ATOM     18  C   UNL     1      31.683 -23.400 -16.495  0.00  0.00    +0.005 C 
ATOM     19  H   UNL     1      38.033 -23.724 -16.050  0.00  0.00    +0.167 HD
BRANCH  12  20
ATOM     20  C   UNL     1      39.237 -24.914 -14.214  0.00  0.00    +0.077 C 
ATOM     21  C   UNL     1      40.069 -25.189 -15.432  0.00  0.00    +0.010 C 
ATOM     22  C   UNL     1      39.904 -26.248 -14.382  0.00  0.00    +0.010 C 
ENDBRANCH  12  20
ENDBRANCH   4  14
BRANCH   1  23
ATOM     23  C   UNL     1      35.326 -19.617 -22.502  0.00  0.00    -0.050 C 
BRANCH  23  27
ATOM     24  S   UNL     1      34.686 -15.226 -21.666  0.00  0.00    -0.014 S 
ATOM     25  O   UNL     1      35.375 -13.985 -21.374  0.00  0.00    -0.173 OA
ATOM     26  O   UNL     1      33.240 -15.273 -21.768  0.00  0.00    -0.173 OA
ATOM     27  N   UNL     1      35.527 -18.195 -22.205  0.00  0.00    +0.392 N 
ATOM     28  C   UNL     1      34.870 -17.852 -20.931  0.00  0.00    -0.051 C 
ATOM     29  C   UNL     1      35.023 -17.376 -23.320  0.00  0.00    -0.051 C 
ATOM     30  C   UNL     1      35.375 -15.902 -23.157  0.00  0.00    +0.128 C 
ATOM     31  C   UNL     1      35.204 -16.437 -20.474  0.00  0.00    +0.128 C 
ATOM     32  H   UNL     1      36.523 -18.001 -22.102  0.00  0.00    -0.079 HD
ENDBRANCH  23  27
ENDBRANCH   1  23
TORSDOF 4
ENDMDL
