MODEL 1
REMARK VINA RESULT:     -11.9      0.000      0.000
REMARK  Name = 9823454
REMARK  7 active torsions:
REMARK  status: ('A' for Active; 'I' for Inactive)
REMARK    1  A    between atoms: C_1  and  C_4
REMARK    2  A    between atoms: C_1  and  N_8
REMARK    3  A    between atoms: C_1  and  C_23
REMARK    4  A    between atoms: N_3  and  O_6
REMARK    5  A    between atoms: N_8  and  S_10
REMARK    6  A    between atoms: S_10  and  C_13
REMARK    7  A    between atoms: C_23  and  C_24
REMARK                            x       y       z     vdW  Elec       q    Type
REMARK                         _______ _______ _______ _____ _____    ______ ____
ROOT
ATOM      1  C   UNL     1      34.639 -24.213 -13.244  0.00  0.00    +0.158 C 
ENDROOT
BRANCH   1   4
ATOM      2  O   UNL     1      35.682 -25.323 -11.367  0.00  0.00    -0.272 OA
ATOM      3  N   UNL     1      36.385 -23.199 -11.935  0.00  0.00    -0.196 N 
ATOM      4  C   UNL     1      35.615 -24.326 -12.084  0.00  0.00    +0.260 C 
ATOM      5  H   UNL     1      36.296 -22.422 -12.534  0.00  0.00    +0.182 HD
BRANCH   3   6
ATOM      6  O   UNL     1      37.305 -23.221 -10.878  0.00  0.00    -0.295 OA
ATOM      7  H   UNL     1      37.290 -24.094 -10.455  0.00  0.00    +0.241 HD
ENDBRANCH   3   6
ENDBRANCH   1   4
BRANCH   1   8
ATOM      8  N   UNL     1      35.295 -23.323 -14.231  0.00  0.00    -0.172 NA
ATOM      9  H   UNL     1      34.577 -22.686 -14.577  0.00  0.00    +0.149 HD
BRANCH   8  10
ATOM     10  S   UNL     1      36.058 -23.989 -15.593  0.00  0.00    +0.061 S 
ATOM     11  O   UNL     1      35.772 -25.409 -15.661  0.00  0.00    -0.153 OA
ATOM     12  O   UNL     1      37.430 -23.517 -15.637  0.00  0.00    -0.153 OA
BRANCH  10  13
ATOM     13  C   UNL     1      35.199 -23.196 -16.918  0.00  0.00    +0.122 C 
ATOM     14  C   UNL     1      35.914 -22.442 -17.833  0.00  0.00    +0.020 C 
ATOM     15  C   UNL     1      35.245 -21.805 -18.891  0.00  0.00    +0.001 C 
ATOM     16  C   UNL     1      33.829 -23.343 -17.016  0.00  0.00    +0.020 C 
ATOM     17  C   UNL     1      33.842 -21.945 -19.006  0.00  0.00    +0.000 C 
ATOM     18  C   UNL     1      33.149 -22.717 -18.061  0.00  0.00    +0.001 C 
ATOM     19  C   UNL     1      35.939 -21.033 -19.836  0.00  0.00    +0.000 C 
ATOM     20  C   UNL     1      33.173 -21.307 -20.064  0.00  0.00    +0.000 C 
ATOM     21  C   UNL     1      35.258 -20.406 -20.881  0.00  0.00    +0.000 C 
ATOM     22  C   UNL     1      33.879 -20.544 -20.995  0.00  0.00    +0.000 C 
ENDBRANCH  10  13
ENDBRANCH   8  10
ENDBRANCH   1   8
BRANCH   1  23
ATOM     23  C   UNL     1      33.305 -23.596 -12.791  0.00  0.00    +0.053 C 
BRANCH  23  24
ATOM     24  C   UNL     1      32.149 -23.994 -13.644  0.00  0.00    -0.020 C 
ATOM     25  C   UNL     1      31.513 -23.046 -14.446  0.00  0.00    -0.004 C 
ATOM     26  C   UNL     1      30.423 -23.405 -15.255  0.00  0.00    -0.000 C 
ATOM     27  C   UNL     1      31.704 -25.313 -13.641  0.00  0.00    -0.004 C 
ATOM     28  C   UNL     1      29.972 -24.747 -15.252  0.00  0.00    -0.000 C 
ATOM     29  C   UNL     1      30.623 -25.688 -14.439  0.00  0.00    -0.000 C 
ATOM     30  C   UNL     1      29.772 -22.463 -16.067  0.00  0.00    -0.000 C 
ATOM     31  C   UNL     1      28.882 -25.106 -16.061  0.00  0.00    -0.000 C 
ATOM     32  C   UNL     1      28.690 -22.838 -16.866  0.00  0.00    -0.000 C 
ATOM     33  C   UNL     1      28.246 -24.156 -16.861  0.00  0.00    -0.000 C 
ENDBRANCH  23  24
ENDBRANCH   1  23
TORSDOF 7
ENDMDL
MODEL 2
REMARK VINA RESULT:     -11.7      1.457      5.962
REMARK  Name = 9823454
REMARK  7 active torsions:
REMARK  status: ('A' for Active; 'I' for Inactive)
REMARK    1  A    between atoms: C_1  and  C_4
REMARK    2  A    between atoms: C_1  and  N_8
REMARK    3  A    between atoms: C_1  and  C_23
REMARK    4  A    between atoms: N_3  and  O_6
REMARK    5  A    between atoms: N_8  and  S_10
REMARK    6  A    between atoms: S_10  and  C_13
REMARK    7  A    between atoms: C_23  and  C_24
REMARK                            x       y       z     vdW  Elec       q    Type
REMARK                         _______ _______ _______ _____ _____    ______ ____
ROOT
ATOM      1  C   UNL     1      36.009 -22.706 -15.500  0.00  0.00    +0.158 C 
ENDROOT
BRANCH   1   4
ATOM      2  O   UNL     1      37.667 -22.933 -13.756  0.00  0.00    -0.272 OA
ATOM      3  N   UNL     1      37.972 -24.078 -15.737  0.00  0.00    -0.196 N 
ATOM      4  C   UNL     1      37.294 -23.240 -14.887  0.00  0.00    +0.260 C 
ATOM      5  H   UNL     1      37.635 -24.296 -16.636  0.00  0.00    +0.182 HD
BRANCH   3   6
ATOM      6  O   UNL     1      39.175 -24.604 -15.246  0.00  0.00    -0.295 OA
ATOM      7  H   UNL     1      39.788 -24.751 -15.984  0.00  0.00    +0.241 HD
ENDBRANCH   3   6
ENDBRANCH   1   4
BRANCH   1   8
ATOM      8  N   UNL     1      34.981 -22.826 -14.439  0.00  0.00    -0.172 NA
ATOM      9  H   UNL     1      35.312 -22.279 -13.644  0.00  0.00    +0.149 HD
BRANCH   8  10
ATOM     10  S   UNL     1      34.559 -24.358 -13.840  0.00  0.00    +0.061 S 
ATOM     11  O   UNL     1      34.653 -24.353 -12.392  0.00  0.00    -0.153 OA
ATOM     12  O   UNL     1      35.255 -25.369 -14.612  0.00  0.00    -0.153 OA
BRANCH  10  13
ATOM     13  C   UNL     1      32.850 -24.461 -14.275  0.00  0.00    +0.122 C 
ATOM     14  C   UNL     1      32.350 -23.621 -15.255  0.00  0.00    +0.020 C 
ATOM     15  C   UNL     1      30.993 -23.690 -15.612  0.00  0.00    +0.001 C 
ATOM     16  C   UNL     1      32.044 -25.379 -13.630  0.00  0.00    +0.020 C 
ATOM     17  C   UNL     1      30.153 -24.625 -14.961  0.00  0.00    +0.000 C 
ATOM     18  C   UNL     1      30.694 -25.462 -13.973  0.00  0.00    +0.001 C 
ATOM     19  C   UNL     1      30.453 -22.852 -16.601  0.00  0.00    +0.000 C 
ATOM     20  C   UNL     1      28.797 -24.694 -15.318  0.00  0.00    +0.000 C 
ATOM     21  C   UNL     1      29.102 -22.935 -16.943  0.00  0.00    +0.000 C 
ATOM     22  C   UNL     1      28.277 -23.854 -16.304  0.00  0.00    +0.000 C 
ENDBRANCH  10  13
ENDBRANCH   8  10
ENDBRANCH   1   8
BRANCH   1  23
ATOM     23  C   UNL     1      35.592 -23.535 -16.726  0.00  0.00    +0.053 C 
BRANCH  23  24
ATOM     24  C   UNL     1      35.119 -22.703 -17.870  0.00  0.00    -0.020 C 
ATOM     25  C   UNL     1      36.029 -21.934 -18.597  0.00  0.00    -0.004 C 
ATOM     26  C   UNL     1      35.600 -21.146 -19.677  0.00  0.00    -0.000 C 
ATOM     27  C   UNL     1      33.771 -22.695 -18.213  0.00  0.00    -0.004 C 
ATOM     28  C   UNL     1      34.228 -21.138 -20.025  0.00  0.00    -0.000 C 
ATOM     29  C   UNL     1      33.327 -21.918 -19.283  0.00  0.00    -0.000 C 
ATOM     30  C   UNL     1      36.502 -20.365 -20.417  0.00  0.00    -0.000 C 
ATOM     31  C   UNL     1      33.798 -20.349 -21.105  0.00  0.00    -0.000 C 
ATOM     32  C   UNL     1      36.058 -19.588 -21.488  0.00  0.00    -0.000 C 
ATOM     33  C   UNL     1      34.709 -19.579 -21.830  0.00  0.00    -0.000 C 
ENDBRANCH  23  24
ENDBRANCH   1  23
TORSDOF 7
ENDMDL
MODEL 3
REMARK VINA RESULT:     -11.3      0.893      1.659
REMARK  Name = 9823454
REMARK  7 active torsions:
REMARK  status: ('A' for Active; 'I' for Inactive)
REMARK    1  A    between atoms: C_1  and  C_4
REMARK    2  A    between atoms: C_1  and  N_8
REMARK    3  A    between atoms: C_1  and  C_23
REMARK    4  A    between atoms: N_3  and  O_6
REMARK    5  A    between atoms: N_8  and  S_10
REMARK    6  A    between atoms: S_10  and  C_13
REMARK    7  A    between atoms: C_23  and  C_24
REMARK                            x       y       z     vdW  Elec       q    Type
REMARK                         _______ _______ _______ _____ _____    ______ ____
ROOT
ATOM      1  C   UNL     1      34.748 -24.364 -13.408  0.00  0.00    +0.158 C 
ENDROOT
BRANCH   1   4
ATOM      2  O   UNL     1      35.216 -24.671 -11.057  0.00  0.00    -0.272 OA
ATOM      3  N   UNL     1      36.458 -25.853 -12.603  0.00  0.00    -0.196 N 
ATOM      4  C   UNL     1      35.481 -24.967 -12.221  0.00  0.00    +0.260 C 
ATOM      5  H   UNL     1      36.636 -26.060 -13.549  0.00  0.00    +0.182 HD
BRANCH   3   6
ATOM      6  O   UNL     1      37.188 -26.445 -11.563  0.00  0.00    -0.295 OA
ATOM      7  H   UNL     1      38.104 -26.129 -11.590  0.00  0.00    +0.241 HD
ENDBRANCH   3   6
ENDBRANCH   1   4
BRANCH   1   8
ATOM      8  N   UNL     1      35.697 -23.401 -14.016  0.00  0.00    -0.172 NA
ATOM      9  H   UNL     1      35.138 -22.664 -14.442  0.00  0.00    +0.149 HD
BRANCH   8  10
ATOM     10  S   UNL     1      36.796 -23.930 -15.198  0.00  0.00    +0.061 S 
ATOM     11  O   UNL     1      36.614 -25.351 -15.426  0.00  0.00    -0.153 OA
ATOM     12  O   UNL     1      38.111 -23.404 -14.882  0.00  0.00    -0.153 OA
BRANCH  10  13
ATOM     13  C   UNL     1      36.228 -23.071 -16.634  0.00  0.00    +0.122 C 
ATOM     14  C   UNL     1      34.879 -23.092 -16.945  0.00  0.00    +0.020 C 
ATOM     15  C   UNL     1      34.412 -22.415 -18.083  0.00  0.00    +0.001 C 
ATOM     16  C   UNL     1      37.140 -22.394 -17.419  0.00  0.00    +0.020 C 
ATOM     17  C   UNL     1      35.333 -21.716 -18.899  0.00  0.00    +0.000 C 
ATOM     18  C   UNL     1      36.693 -21.715 -18.554  0.00  0.00    +0.001 C 
ATOM     19  C   UNL     1      33.051 -22.416 -18.429  0.00  0.00    +0.000 C 
ATOM     20  C   UNL     1      34.866 -21.040 -20.038  0.00  0.00    +0.000 C 
ATOM     21  C   UNL     1      32.604 -21.738 -19.564  0.00  0.00    +0.000 C 
ATOM     22  C   UNL     1      33.509 -21.051 -20.366  0.00  0.00    +0.000 C 
ENDBRANCH  10  13
ENDBRANCH   8  10
ENDBRANCH   1   8
BRANCH   1  23
ATOM     23  C   UNL     1      33.474 -23.628 -12.961  0.00  0.00    +0.053 C 
BRANCH  23  24
ATOM     24  C   UNL     1      32.264 -24.007 -13.746  0.00  0.00    -0.020 C 
ATOM     25  C   UNL     1      31.699 -23.097 -14.640  0.00  0.00    -0.004 C 
ATOM     26  C   UNL     1      30.560 -23.439 -15.387  0.00  0.00    -0.000 C 
ATOM     27  C   UNL     1      31.700 -25.269 -13.588  0.00  0.00    -0.004 C 
ATOM     28  C   UNL     1      29.986 -24.723 -15.225  0.00  0.00    -0.000 C 
ATOM     29  C   UNL     1      30.569 -25.626 -14.322  0.00  0.00    -0.000 C 
ATOM     30  C   UNL     1      29.978 -22.535 -16.290  0.00  0.00    -0.000 C 
ATOM     31  C   UNL     1      28.848 -25.065 -15.972  0.00  0.00    -0.000 C 
ATOM     32  C   UNL     1      28.846 -22.891 -17.025  0.00  0.00    -0.000 C 
ATOM     33  C   UNL     1      28.282 -24.153 -16.865  0.00  0.00    -0.000 C 
ENDBRANCH  23  24
ENDBRANCH   1  23
TORSDOF 7
ENDMDL
MODEL 4
REMARK VINA RESULT:     -10.4      2.952      5.665
REMARK  Name = 9823454
REMARK  7 active torsions:
REMARK  status: ('A' for Active; 'I' for Inactive)
REMARK    1  A    between atoms: C_1  and  C_4
REMARK    2  A    between atoms: C_1  and  N_8
REMARK    3  A    between atoms: C_1  and  C_23
REMARK    4  A    between atoms: N_3  and  O_6
REMARK    5  A    between atoms: N_8  and  S_10
REMARK    6  A    between atoms: S_10  and  C_13
REMARK    7  A    between atoms: C_23  and  C_24
REMARK                            x       y       z     vdW  Elec       q    Type
REMARK                         _______ _______ _______ _____ _____    ______ ____
ROOT
ATOM      1  C   UNL     1      32.416 -23.146 -16.155  0.00  0.00    +0.158 C 
ENDROOT
BRANCH   1   4
ATOM      2  O   UNL     1      30.384 -23.351 -14.863  0.00  0.00    -0.272 OA
ATOM      3  N   UNL     1      30.234 -22.724 -17.079  0.00  0.00    -0.196 N 
ATOM      4  C   UNL     1      30.912 -23.088 -15.942  0.00  0.00    +0.260 C 
ATOM      5  H   UNL     1      30.700 -22.522 -17.924  0.00  0.00    +0.182 HD
BRANCH   3   6
ATOM      6  O   UNL     1      28.839 -22.657 -16.966  0.00  0.00    -0.295 OA
ATOM      7  H   UNL     1      28.530 -21.793 -17.278  0.00  0.00    +0.241 HD
ENDBRANCH   3   6
ENDBRANCH   1   4
BRANCH   1   8
ATOM      8  N   UNL     1      32.631 -22.775 -17.574  0.00  0.00    -0.172 NA
ATOM      9  H   UNL     1      31.882 -23.212 -18.111  0.00  0.00    +0.149 HD
BRANCH   8  10
ATOM     10  S   UNL     1      34.089 -23.183 -18.343  0.00  0.00    +0.061 S 
ATOM     11  O   UNL     1      33.909 -24.407 -19.101  0.00  0.00    -0.153 OA
ATOM     12  O   UNL     1      35.170 -23.072 -17.382  0.00  0.00    -0.153 OA
BRANCH  10  13
ATOM     13  C   UNL     1      34.281 -21.854 -19.491  0.00  0.00    +0.122 C 
ATOM     14  C   UNL     1      35.549 -21.358 -19.746  0.00  0.00    +0.020 C 
ATOM     15  C   UNL     1      35.718 -20.302 -20.656  0.00  0.00    +0.001 C 
ATOM     16  C   UNL     1      33.164 -21.334 -20.113  0.00  0.00    +0.020 C 
ATOM     17  C   UNL     1      34.583 -19.757 -21.302  0.00  0.00    +0.000 C 
ATOM     18  C   UNL     1      33.314 -20.284 -21.021  0.00  0.00    +0.001 C 
ATOM     19  C   UNL     1      36.989 -19.774 -20.937  0.00  0.00    +0.000 C 
ATOM     20  C   UNL     1      34.753 -18.700 -22.211  0.00  0.00    +0.000 C 
ATOM     21  C   UNL     1      37.139 -18.724 -21.844  0.00  0.00    +0.000 C 
ATOM     22  C   UNL     1      36.023 -18.189 -22.479  0.00  0.00    +0.000 C 
ENDBRANCH  10  13
ENDBRANCH   8  10
ENDBRANCH   1   8
BRANCH   1  23
ATOM     23  C   UNL     1      32.960 -24.561 -15.898  0.00  0.00    +0.053 C 
BRANCH  23  24
ATOM     24  C   UNL     1      34.007 -24.608 -14.838  0.00  0.00    -0.020 C 
ATOM     25  C   UNL     1      35.284 -25.085 -15.137  0.00  0.00    -0.004 C 
ATOM     26  C   UNL     1      36.281 -25.136 -14.150  0.00  0.00    -0.000 C 
ATOM     27  C   UNL     1      33.711 -24.176 -13.548  0.00  0.00    -0.004 C 
ATOM     28  C   UNL     1      35.978 -24.696 -12.839  0.00  0.00    -0.000 C 
ATOM     29  C   UNL     1      34.689 -24.219 -12.555  0.00  0.00    -0.000 C 
ATOM     30  C   UNL     1      37.570 -25.613 -14.434  0.00  0.00    -0.000 C 
ATOM     31  C   UNL     1      36.975 -24.747 -11.851  0.00  0.00    -0.000 C 
ATOM     32  C   UNL     1      38.549 -25.656 -13.440  0.00  0.00    -0.000 C 
ATOM     33  C   UNL     1      38.251 -25.225 -12.151  0.00  0.00    -0.000 C 
ENDBRANCH  23  24
ENDBRANCH   1  23
TORSDOF 7
ENDMDL
MODEL 5
REMARK VINA RESULT:     -10.3      1.883      3.065
REMARK  Name = 9823454
REMARK  7 active torsions:
REMARK  status: ('A' for Active; 'I' for Inactive)
REMARK    1  A    between atoms: C_1  and  C_4
REMARK    2  A    between atoms: C_1  and  N_8
REMARK    3  A    between atoms: C_1  and  C_23
REMARK    4  A    between atoms: N_3  and  O_6
REMARK    5  A    between atoms: N_8  and  S_10
REMARK    6  A    between atoms: S_10  and  C_13
REMARK    7  A    between atoms: C_23  and  C_24
REMARK                            x       y       z     vdW  Elec       q    Type
REMARK                         _______ _______ _______ _____ _____    ______ ____
ROOT
ATOM      1  C   UNL     1      34.519 -24.483 -15.810  0.00  0.00    +0.158 C 
ENDROOT
BRANCH   1   4
ATOM      2  O   UNL     1      36.649 -25.572 -15.461  0.00  0.00    -0.272 OA
ATOM      3  N   UNL     1      36.504 -23.287 -15.164  0.00  0.00    -0.196 N 
ATOM      4  C   UNL     1      35.999 -24.527 -15.467  0.00  0.00    +0.260 C 
ATOM      5  H   UNL     1      35.946 -22.476 -15.182  0.00  0.00    +0.182 HD
BRANCH   3   6
ATOM      6  O   UNL     1      37.864 -23.245 -14.826  0.00  0.00    -0.295 OA
ATOM      7  H   UNL     1      38.295 -24.062 -15.122  0.00  0.00    +0.241 HD
ENDBRANCH   3   6
ENDBRANCH   1   4
BRANCH   1   8
ATOM      8  N   UNL     1      34.313 -23.200 -16.524  0.00  0.00    -0.172 NA
ATOM      9  H   UNL     1      33.730 -22.619 -15.923  0.00  0.00    +0.149 HD
BRANCH   8  10
ATOM     10  S   UNL     1      33.595 -23.195 -18.062  0.00  0.00    +0.061 S 
ATOM     11  O   UNL     1      32.281 -22.584 -17.979  0.00  0.00    -0.153 OA
ATOM     12  O   UNL     1      33.753 -24.509 -18.656  0.00  0.00    -0.153 OA
BRANCH  10  13
ATOM     13  C   UNL     1      34.651 -22.095 -18.955  0.00  0.00    +0.122 C 
ATOM     14  C   UNL     1      34.114 -21.310 -19.961  0.00  0.00    +0.020 C 
ATOM     15  C   UNL     1      34.941 -20.431 -20.680  0.00  0.00    +0.001 C 
ATOM     16  C   UNL     1      35.992 -22.038 -18.632  0.00  0.00    +0.020 C 
ATOM     17  C   UNL     1      36.318 -20.361 -20.362  0.00  0.00    +0.000 C 
ATOM     18  C   UNL     1      36.828 -21.170 -19.335  0.00  0.00    +0.001 C 
ATOM     19  C   UNL     1      34.430 -19.621 -21.708  0.00  0.00    +0.000 C 
ATOM     20  C   UNL     1      37.145 -19.482 -21.082  0.00  0.00    +0.000 C 
ATOM     21  C   UNL     1      35.266 -18.754 -22.412  0.00  0.00    +0.000 C 
ATOM     22  C   UNL     1      36.620 -18.684 -22.099  0.00  0.00    +0.000 C 
ENDBRANCH  10  13
ENDBRANCH   8  10
ENDBRANCH   1   8
BRANCH   1  23
ATOM     23  C   UNL     1      33.652 -24.518 -14.540  0.00  0.00    +0.053 C 
BRANCH  23  24
ATOM     24  C   UNL     1      32.278 -23.978 -14.747  0.00  0.00    -0.020 C 
ATOM     25  C   UNL     1      31.407 -24.606 -15.638  0.00  0.00    -0.004 C 
ATOM     26  C   UNL     1      30.109 -24.110 -15.844  0.00  0.00    -0.000 C 
ATOM     27  C   UNL     1      31.864 -22.846 -14.051  0.00  0.00    -0.004 C 
ATOM     28  C   UNL     1      29.689 -22.959 -15.135  0.00  0.00    -0.000 C 
ATOM     29  C   UNL     1      30.578 -22.340 -14.243  0.00  0.00    -0.000 C 
ATOM     30  C   UNL     1      29.221 -24.730 -16.737  0.00  0.00    -0.000 C 
ATOM     31  C   UNL     1      28.392 -22.462 -15.341  0.00  0.00    -0.000 C 
ATOM     32  C   UNL     1      27.935 -24.223 -16.929  0.00  0.00    -0.000 C 
ATOM     33  C   UNL     1      27.522 -23.091 -16.233  0.00  0.00    -0.000 C 
ENDBRANCH  23  24
ENDBRANCH   1  23
TORSDOF 7
ENDMDL
MODEL 6
REMARK VINA RESULT:     -10.3      5.152      7.967
REMARK  Name = 9823454
REMARK  7 active torsions:
REMARK  status: ('A' for Active; 'I' for Inactive)
REMARK    1  A    between atoms: C_1  and  C_4
REMARK    2  A    between atoms: C_1  and  N_8
REMARK    3  A    between atoms: C_1  and  C_23
REMARK    4  A    between atoms: N_3  and  O_6
REMARK    5  A    between atoms: N_8  and  S_10
REMARK    6  A    between atoms: S_10  and  C_13
REMARK    7  A    between atoms: C_23  and  C_24
REMARK                            x       y       z     vdW  Elec       q    Type
REMARK                         _______ _______ _______ _____ _____    ______ ____
ROOT
ATOM      1  C   UNL     1      34.957 -20.641 -20.196  0.00  0.00    +0.158 C 
ENDROOT
BRANCH   1   4
ATOM      2  O   UNL     1      32.744 -21.335 -19.515  0.00  0.00    -0.272 OA
ATOM      3  N   UNL     1      32.987 -20.176 -21.497  0.00  0.00    -0.196 N 
ATOM      4  C   UNL     1      33.449 -20.762 -20.344  0.00  0.00    +0.260 C 
ATOM      5  H   UNL     1      33.590 -19.727 -22.134  0.00  0.00    +0.182 HD
BRANCH   3   6
ATOM      6  O   UNL     1      31.604 -20.254 -21.711  0.00  0.00    -0.295 OA
ATOM      7  H   UNL     1      31.337 -21.186 -21.760  0.00  0.00    +0.241 HD
ENDBRANCH   3   6
ENDBRANCH   1   4
BRANCH   1   8
ATOM      8  N   UNL     1      35.443 -20.108 -21.491  0.00  0.00    -0.172 NA
ATOM      9  H   UNL     1      36.063 -20.814 -21.887  0.00  0.00    +0.149 HD
BRANCH   8  10
ATOM     10  S   UNL     1      36.285 -18.634 -21.536  0.00  0.00    +0.061 S 
ATOM     11  O   UNL     1      37.645 -18.868 -21.984  0.00  0.00    -0.153 OA
ATOM     12  O   UNL     1      36.038 -17.918 -20.298  0.00  0.00    -0.153 OA
BRANCH  10  13
ATOM     13  C   UNL     1      35.431 -17.765 -22.814  0.00  0.00    +0.122 C 
ATOM     14  C   UNL     1      35.142 -16.421 -22.642  0.00  0.00    +0.020 C 
ATOM     15  C   UNL     1      34.463 -15.716 -23.649  0.00  0.00    +0.001 C 
ATOM     16  C   UNL     1      35.067 -18.440 -23.962  0.00  0.00    +0.020 C 
ATOM     17  C   UNL     1      34.082 -16.393 -24.832  0.00  0.00    +0.000 C 
ATOM     18  C   UNL     1      34.392 -17.755 -24.973  0.00  0.00    +0.001 C 
ATOM     19  C   UNL     1      34.154 -14.353 -23.507  0.00  0.00    +0.000 C 
ATOM     20  C   UNL     1      33.402 -15.688 -25.838  0.00  0.00    +0.000 C 
ATOM     21  C   UNL     1      33.478 -13.668 -24.518  0.00  0.00    +0.000 C 
ATOM     22  C   UNL     1      33.104 -14.334 -25.681  0.00  0.00    +0.000 C 
ENDBRANCH  10  13
ENDBRANCH   8  10
ENDBRANCH   1   8
BRANCH   1  23
ATOM     23  C   UNL     1      35.601 -22.011 -19.922  0.00  0.00    +0.053 C 
BRANCH  23  24
ATOM     24  C   UNL     1      35.792 -22.294 -18.470  0.00  0.00    -0.020 C 
ATOM     25  C   UNL     1      34.799 -22.960 -17.751  0.00  0.00    -0.004 C 
ATOM     26  C   UNL     1      34.964 -23.235 -16.384  0.00  0.00    -0.000 C 
ATOM     27  C   UNL     1      36.963 -21.895 -17.832  0.00  0.00    -0.004 C 
ATOM     28  C   UNL     1      36.155 -22.828 -15.736  0.00  0.00    -0.000 C 
ATOM     29  C   UNL     1      37.144 -22.160 -16.475  0.00  0.00    -0.000 C 
ATOM     30  C   UNL     1      33.974 -23.903 -15.647  0.00  0.00    -0.000 C 
ATOM     31  C   UNL     1      36.321 -23.103 -14.369  0.00  0.00    -0.000 C 
ATOM     32  C   UNL     1      34.156 -24.168 -14.288  0.00  0.00    -0.000 C 
ATOM     33  C   UNL     1      35.326 -23.768 -13.651  0.00  0.00    -0.000 C 
ENDBRANCH  23  24
ENDBRANCH   1  23
TORSDOF 7
ENDMDL
MODEL 7
REMARK VINA RESULT:      -9.9      9.227     12.468
REMARK  Name = 9823454
REMARK  7 active torsions:
REMARK  status: ('A' for Active; 'I' for Inactive)
REMARK    1  A    between atoms: C_1  and  C_4
REMARK    2  A    between atoms: C_1  and  N_8
REMARK    3  A    between atoms: C_1  and  C_23
REMARK    4  A    between atoms: N_3  and  O_6
REMARK    5  A    between atoms: N_8  and  S_10
REMARK    6  A    between atoms: S_10  and  C_13
REMARK    7  A    between atoms: C_23  and  C_24
REMARK                            x       y       z     vdW  Elec       q    Type
REMARK                         _______ _______ _______ _____ _____    ______ ____
ROOT
ATOM      1  C   UNL     1      34.535 -16.212 -23.570  0.00  0.00    +0.158 C 
ENDROOT
BRANCH   1   4
ATOM      2  O   UNL     1      35.033 -16.602 -25.902  0.00  0.00    -0.272 OA
ATOM      3  N   UNL     1      33.068 -17.440 -25.029  0.00  0.00    -0.196 N 
ATOM      4  C   UNL     1      34.261 -16.764 -24.959  0.00  0.00    +0.260 C 
ATOM      5  H   UNL     1      32.480 -17.546 -24.246  0.00  0.00    +0.182 HD
BRANCH   3   6
ATOM      6  O   UNL     1      32.738 -17.971 -26.283  0.00  0.00    -0.295 OA
ATOM      7  H   UNL     1      31.827 -17.725 -26.509  0.00  0.00    +0.241 HD
ENDBRANCH   3   6
ENDBRANCH   1   4
BRANCH   1   8
ATOM      8  N   UNL     1      34.522 -14.737 -23.717  0.00  0.00    -0.172 NA
ATOM      9  H   UNL     1      34.877 -14.350 -22.843  0.00  0.00    +0.149 HD
BRANCH   8  10
ATOM     10  S   UNL     1      33.064 -13.934 -24.054  0.00  0.00    +0.061 S 
ATOM     11  O   UNL     1      32.138 -14.134 -22.955  0.00  0.00    -0.153 OA
ATOM     12  O   UNL     1      32.662 -14.247 -25.412  0.00  0.00    -0.153 OA
BRANCH  10  13
ATOM     13  C   UNL     1      33.569 -12.242 -24.042  0.00  0.00    +0.122 C 
ATOM     14  C   UNL     1      32.983 -11.368 -23.142  0.00  0.00    +0.020 C 
ATOM     15  C   UNL     1      33.372 -10.019 -23.119  0.00  0.00    +0.001 C 
ATOM     16  C   UNL     1      34.538 -11.820 -24.930  0.00  0.00    +0.020 C 
ATOM     17  C   UNL     1      34.365  -9.570 -24.023  0.00  0.00    +0.000 C 
ATOM     18  C   UNL     1      34.938 -10.483 -24.922  0.00  0.00    +0.001 C 
ATOM     19  C   UNL     1      32.798  -9.105 -22.220  0.00  0.00    +0.000 C 
ATOM     20  C   UNL     1      34.754  -8.221 -24.002  0.00  0.00    +0.000 C 
ATOM     21  C   UNL     1      33.197  -7.768 -22.213  0.00  0.00    +0.000 C 
ATOM     22  C   UNL     1      34.173  -7.327 -23.101  0.00  0.00    +0.000 C 
ENDBRANCH  10  13
ENDBRANCH   8  10
ENDBRANCH   1   8
BRANCH   1  23
ATOM     23  C   UNL     1      35.907 -16.672 -23.049  0.00  0.00    +0.053 C 
BRANCH  23  24
ATOM     24  C   UNL     1      35.842 -17.911 -22.221  0.00  0.00    -0.020 C 
ATOM     25  C   UNL     1      34.606 -18.488 -21.924  0.00  0.00    -0.004 C 
ATOM     26  C   UNL     1      34.528 -19.654 -21.146  0.00  0.00    -0.000 C 
ATOM     27  C   UNL     1      37.013 -18.491 -21.746  0.00  0.00    -0.004 C 
ATOM     28  C   UNL     1      35.721 -20.244 -20.662  0.00  0.00    -0.000 C 
ATOM     29  C   UNL     1      36.955 -19.650 -20.971  0.00  0.00    -0.000 C 
ATOM     30  C   UNL     1      33.294 -20.247 -20.837  0.00  0.00    -0.000 C 
ATOM     31  C   UNL     1      35.643 -21.411 -19.884  0.00  0.00    -0.000 C 
ATOM     32  C   UNL     1      33.235 -21.407 -20.063  0.00  0.00    -0.000 C 
ATOM     33  C   UNL     1      34.407 -21.986 -19.587  0.00  0.00    -0.000 C 
ENDBRANCH  23  24
ENDBRANCH   1  23
TORSDOF 7
ENDMDL
MODEL 8
REMARK VINA RESULT:      -9.7     11.125     14.347
REMARK  Name = 9823454
REMARK  7 active torsions:
REMARK  status: ('A' for Active; 'I' for Inactive)
REMARK    1  A    between atoms: C_1  and  C_4
REMARK    2  A    between atoms: C_1  and  N_8
REMARK    3  A    between atoms: C_1  and  C_23
REMARK    4  A    between atoms: N_3  and  O_6
REMARK    5  A    between atoms: N_8  and  S_10
REMARK    6  A    between atoms: S_10  and  C_13
REMARK    7  A    between atoms: C_23  and  C_24
REMARK                            x       y       z     vdW  Elec       q    Type
REMARK                         _______ _______ _______ _____ _____    ______ ____
ROOT
ATOM      1  C   UNL     1      33.157 -13.158 -23.176  0.00  0.00    +0.158 C 
ENDROOT
BRANCH   1   4
ATOM      2  O   UNL     1      33.615 -12.424 -25.433  0.00  0.00    -0.272 OA
ATOM      3  N   UNL     1      32.667 -14.504 -25.109  0.00  0.00    -0.196 N 
ATOM      4  C   UNL     1      33.183 -13.303 -24.689  0.00  0.00    +0.260 C 
ATOM      5  H   UNL     1      32.331 -15.180 -24.476  0.00  0.00    +0.182 HD
BRANCH   3   6
ATOM      6  O   UNL     1      32.647 -14.710 -26.496  0.00  0.00    -0.295 OA
ATOM      7  H   UNL     1      33.509 -14.471 -26.870  0.00  0.00    +0.241 HD
ENDBRANCH   3   6
ENDBRANCH   1   4
BRANCH   1   8
ATOM      8  N   UNL     1      32.789 -11.745 -22.918  0.00  0.00    -0.172 NA
ATOM      9  H   UNL     1      33.661 -11.231 -22.794  0.00  0.00    +0.149 HD
BRANCH   8  10
ATOM     10  S   UNL     1      31.798 -11.358 -21.595  0.00  0.00    +0.061 S 
ATOM     11  O   UNL     1      32.422 -11.824 -20.371  0.00  0.00    -0.153 OA
ATOM     12  O   UNL     1      30.433 -11.737 -21.908  0.00  0.00    -0.153 OA
BRANCH  10  13
ATOM     13  C   UNL     1      31.857  -9.593 -21.599  0.00  0.00    +0.122 C 
ATOM     14  C   UNL     1      31.558  -8.909 -22.765  0.00  0.00    +0.020 C 
ATOM     15  C   UNL     1      31.601  -7.505 -22.785  0.00  0.00    +0.001 C 
ATOM     16  C   UNL     1      32.199  -8.927 -20.438  0.00  0.00    +0.020 C 
ATOM     17  C   UNL     1      31.950  -6.807 -21.604  0.00  0.00    +0.000 C 
ATOM     18  C   UNL     1      32.246  -7.532 -20.440  0.00  0.00    +0.001 C 
ATOM     19  C   UNL     1      31.306  -6.780 -23.951  0.00  0.00    +0.000 C 
ATOM     20  C   UNL     1      31.994  -5.403 -21.624  0.00  0.00    +0.000 C 
ATOM     21  C   UNL     1      31.354  -5.385 -23.952  0.00  0.00    +0.000 C 
ATOM     22  C   UNL     1      31.697  -4.699 -22.792  0.00  0.00    +0.000 C 
ENDBRANCH  10  13
ENDBRANCH   8  10
ENDBRANCH   1   8
BRANCH   1  23
ATOM     23  C   UNL     1      34.536 -13.458 -22.564  0.00  0.00    +0.053 C 
BRANCH  23  24
ATOM     24  C   UNL     1      34.719 -14.891 -22.192  0.00  0.00    -0.020 C 
ATOM     25  C   UNL     1      34.784 -15.868 -23.186  0.00  0.00    -0.004 C 
ATOM     26  C   UNL     1      34.956 -17.221 -22.851  0.00  0.00    -0.000 C 
ATOM     27  C   UNL     1      34.825 -15.252 -20.852  0.00  0.00    -0.004 C 
ATOM     28  C   UNL     1      35.064 -17.588 -21.488  0.00  0.00    -0.000 C 
ATOM     29  C   UNL     1      34.997 -16.591 -20.502  0.00  0.00    -0.000 C 
ATOM     30  C   UNL     1      35.023 -18.216 -23.839  0.00  0.00    -0.000 C 
ATOM     31  C   UNL     1      35.237 -18.941 -21.154  0.00  0.00    -0.000 C 
ATOM     32  C   UNL     1      35.196 -19.556 -23.488  0.00  0.00    -0.000 C 
ATOM     33  C   UNL     1      35.301 -19.917 -22.148  0.00  0.00    -0.000 C 
ENDBRANCH  23  24
ENDBRANCH   1  23
TORSDOF 7
ENDMDL
MODEL 9
REMARK VINA RESULT:      -9.7     12.577     16.300
REMARK  Name = 9823454
REMARK  7 active torsions:
REMARK  status: ('A' for Active; 'I' for Inactive)
REMARK    1  A    between atoms: C_1  and  C_4
REMARK    2  A    between atoms: C_1  and  N_8
REMARK    3  A    between atoms: C_1  and  C_23
REMARK    4  A    between atoms: N_3  and  O_6
REMARK    5  A    between atoms: N_8  and  S_10
REMARK    6  A    between atoms: S_10  and  C_13
REMARK    7  A    between atoms: C_23  and  C_24
REMARK                            x       y       z     vdW  Elec       q    Type
REMARK                         _______ _______ _______ _____ _____    ______ ____
ROOT
ATOM      1  C   UNL     1      32.265 -10.157 -22.707  0.00  0.00    +0.158 C 
ENDROOT
BRANCH   1   4
ATOM      2  O   UNL     1      30.435 -11.194 -21.515  0.00  0.00    -0.272 OA
ATOM      3  N   UNL     1      31.899  -9.841 -20.349  0.00  0.00    -0.196 N 
ATOM      4  C   UNL     1      31.427 -10.467 -21.477  0.00  0.00    +0.260 C 
ATOM      5  H   UNL     1      32.699  -9.267 -20.366  0.00  0.00    +0.182 HD
BRANCH   3   6
ATOM      6  O   UNL     1      31.173 -10.070 -19.173  0.00  0.00    -0.295 OA
ATOM      7  H   UNL     1      30.511 -10.762 -19.331  0.00  0.00    +0.241 HD
ENDBRANCH   3   6
ENDBRANCH   1   4
BRANCH   1   8
ATOM      8  N   UNL     1      32.964 -11.420 -23.042  0.00  0.00    -0.172 NA
ATOM      9  H   UNL     1      33.701 -11.543 -22.348  0.00  0.00    +0.149 HD
BRANCH   8  10
ATOM     10  S   UNL     1      33.688 -11.607 -24.566  0.00  0.00    +0.061 S 
ATOM     11  O   UNL     1      35.038 -11.075 -24.527  0.00  0.00    -0.153 OA
ATOM     12  O   UNL     1      32.756 -11.160 -25.584  0.00  0.00    -0.153 OA
BRANCH  10  13
ATOM     13  C   UNL     1      33.799 -13.365 -24.705  0.00  0.00    +0.122 C 
ATOM     14  C   UNL     1      34.417 -14.085 -23.697  0.00  0.00    +0.020 C 
ATOM     15  C   UNL     1      34.513 -15.483 -23.792  0.00  0.00    +0.001 C 
ATOM     16  C   UNL     1      33.266 -13.988 -25.816  0.00  0.00    +0.020 C 
ATOM     17  C   UNL     1      33.973 -16.138 -24.924  0.00  0.00    +0.000 C 
ATOM     18  C   UNL     1      33.352 -15.377 -25.927  0.00  0.00    +0.001 C 
ATOM     19  C   UNL     1      35.135 -16.244 -22.789  0.00  0.00    +0.000 C 
ATOM     20  C   UNL     1      34.070 -17.536 -25.020  0.00  0.00    +0.000 C 
ATOM     21  C   UNL     1      35.222 -17.633 -22.900  0.00  0.00    +0.000 C 
ATOM     22  C   UNL     1      34.690 -18.277 -24.013  0.00  0.00    +0.000 C 
ENDBRANCH  10  13
ENDBRANCH   8  10
ENDBRANCH   1   8
BRANCH   1  23
ATOM     23  C   UNL     1      33.295  -9.053 -22.415  0.00  0.00    +0.053 C 
BRANCH  23  24
ATOM     24  C   UNL     1      33.082  -7.816 -23.221  0.00  0.00    -0.020 C 
ATOM     25  C   UNL     1      34.112  -7.318 -24.020  0.00  0.00    -0.004 C 
ATOM     26  C   UNL     1      33.927  -6.155 -24.786  0.00  0.00    -0.000 C 
ATOM     27  C   UNL     1      31.855  -7.161 -23.177  0.00  0.00    -0.004 C 
ATOM     28  C   UNL     1      32.679  -5.489 -24.740  0.00  0.00    -0.000 C 
ATOM     29  C   UNL     1      31.654  -6.004 -23.932  0.00  0.00    -0.000 C 
ATOM     30  C   UNL     1      34.953  -5.640 -25.594  0.00  0.00    -0.000 C 
ATOM     31  C   UNL     1      32.494  -4.326 -25.506  0.00  0.00    -0.000 C 
ATOM     32  C   UNL     1      34.751  -4.483 -26.349  0.00  0.00    -0.000 C 
ATOM     33  C   UNL     1      33.525  -3.827 -26.303  0.00  0.00    -0.000 C 
ENDBRANCH  23  24
ENDBRANCH   1  23
TORSDOF 7
ENDMDL
