MODEL 1
REMARK VINA RESULT:     -11.5      0.000      0.000
REMARK  Name = 24958200
REMARK  3 active torsions:
REMARK  status: ('A' for Active; 'I' for Inactive)
REMARK    1  A    between atoms: N_1  and  C_13
REMARK    2  A    between atoms: C_6  and  C_26
REMARK    3  A    between atoms: C_10  and  C_17
REMARK                            x       y       z     vdW  Elec       q    Type
REMARK                         _______ _______ _______ _____ _____    ______ ____
ROOT
ATOM      1  N   UNL     1      32.571 -23.047 -17.223  0.00  0.00    -0.189 N 
ATOM      2  N   UNL     1      31.226 -23.121 -17.261  0.00  0.00    -0.174 NA
ATOM      3  C   UNL     1      32.092 -24.161 -15.437  0.00  0.00    +0.036 C 
ATOM      4  C   UNL     1      33.146 -23.657 -16.146  0.00  0.00    +0.091 C 
ATOM      5  C   UNL     1      30.891 -23.812 -16.157  0.00  0.00    +0.105 C 
ATOM      6  C   UNL     1      29.628 -24.197 -15.671  0.00  0.00    +0.072 C 
ATOM      7  C   UNL     1      32.183 -24.872 -14.248  0.00  0.00    +0.003 C 
ATOM      8  C   UNL     1      29.687 -24.924 -14.462  0.00  0.00    +0.006 C 
ATOM      9  C   UNL     1      30.906 -25.245 -13.785  0.00  0.00    +0.000 C 
ENDROOT
BRANCH   1  13
ATOM     10  C   UNL     1      34.642 -21.071 -20.259  0.00  0.00    -0.024 C 
ATOM     11  C   UNL     1      35.340 -21.820 -19.311  0.00  0.00    -0.003 C 
ATOM     12  C   UNL     1      33.250 -20.983 -20.192  0.00  0.00    -0.003 C 
ATOM     13  C   UNL     1      33.257 -22.392 -18.228  0.00  0.00    +0.074 C 
ATOM     14  C   UNL     1      34.647 -22.480 -18.296  0.00  0.00    +0.016 C 
ATOM     15  C   UNL     1      32.558 -21.644 -19.177  0.00  0.00    +0.016 C 
BRANCH  10  17
ATOM     16  N   UNL     1      35.188 -18.921 -23.380  0.00  0.00    +0.384 N 
ATOM     17  C   UNL     1      35.395 -20.351 -21.363  0.00  0.00    +0.001 C 
ATOM     18  C   UNL     1      36.472 -19.411 -20.799  0.00  0.00    +0.000 C 
ATOM     19  C   UNL     1      34.447 -19.586 -22.306  0.00  0.00    -0.077 C 
ATOM     20  C   UNL     1      37.174 -18.667 -21.932  0.00  0.00    -0.023 C 
ATOM     21  C   UNL     1      36.168 -17.975 -22.849  0.00  0.00    -0.082 C 
ATOM     22  H   UNL     1      34.530 -18.419 -23.975  0.00  0.00    -0.085 HD
ATOM     23  H   UNL     1      35.687 -19.634 -23.914  0.00  0.00    -0.085 HD
ENDBRANCH  10  17
ENDBRANCH   1  13
BRANCH   6  26
ATOM     24  O   UNL     1      27.954 -24.575 -17.283  0.00  0.00    -0.270 OA
ATOM     25  N   UNL     1      27.660 -22.779 -15.889  0.00  0.00    -0.325 N 
ATOM     26  C   UNL     1      28.385 -23.882 -16.340  0.00  0.00    +0.244 C 
ATOM     27  H   UNL     1      26.809 -22.537 -16.322  0.00  0.00    +0.145 HD
ATOM     28  H   UNL     1      27.997 -22.243 -15.135  0.00  0.00    +0.145 HD
ENDBRANCH   6  26
TORSDOF 3
ENDMDL
MODEL 2
REMARK VINA RESULT:     -10.9      2.177      3.232
REMARK  Name = 24958200
REMARK  3 active torsions:
REMARK  status: ('A' for Active; 'I' for Inactive)
REMARK    1  A    between atoms: N_1  and  C_13
REMARK    2  A    between atoms: C_6  and  C_26
REMARK    3  A    between atoms: C_10  and  C_17
REMARK                            x       y       z     vdW  Elec       q    Type
REMARK                         _______ _______ _______ _____ _____    ______ ____
ROOT
ATOM      1  N   UNL     1      32.931 -23.013 -17.178  0.00  0.00    -0.189 N 
ATOM      2  N   UNL     1      33.699 -23.385 -16.136  0.00  0.00    -0.174 NA
ATOM      3  C   UNL     1      31.529 -23.999 -15.867  0.00  0.00    +0.036 C 
ATOM      4  C   UNL     1      31.615 -23.357 -17.070  0.00  0.00    +0.091 C 
ATOM      5  C   UNL     1      32.853 -24.006 -15.294  0.00  0.00    +0.105 C 
ATOM      6  C   UNL     1      33.088 -24.603 -14.042  0.00  0.00    +0.072 C 
ATOM      7  C   UNL     1      30.372 -24.537 -15.318  0.00  0.00    +0.003 C 
ATOM      8  C   UNL     1      31.930 -25.159 -13.456  0.00  0.00    +0.006 C 
ATOM      9  C   UNL     1      30.636 -25.127 -14.066  0.00  0.00    +0.000 C 
ENDROOT
BRANCH   1  13
ATOM     10  C   UNL     1      34.626 -20.968 -20.397  0.00  0.00    -0.024 C 
ATOM     11  C   UNL     1      33.243 -20.958 -20.214  0.00  0.00    -0.003 C 
ATOM     12  C   UNL     1      35.443 -21.662 -19.502  0.00  0.00    -0.003 C 
ATOM     13  C   UNL     1      33.493 -22.336 -18.245  0.00  0.00    +0.074 C 
ATOM     14  C   UNL     1      32.677 -21.642 -19.138  0.00  0.00    +0.016 C 
ATOM     15  C   UNL     1      34.876 -22.346 -18.427  0.00  0.00    +0.016 C 
BRANCH  10  17
ATOM     16  N   UNL     1      34.788 -18.950 -23.646  0.00  0.00    +0.384 N 
ATOM     17  C   UNL     1      35.243 -20.226 -21.568  0.00  0.00    +0.001 C 
ATOM     18  C   UNL     1      36.217 -19.132 -21.101  0.00  0.00    +0.000 C 
ATOM     19  C   UNL     1      34.174 -19.637 -22.508  0.00  0.00    -0.077 C 
ATOM     20  C   UNL     1      36.779 -18.374 -22.301  0.00  0.00    -0.023 C 
ATOM     21  C   UNL     1      35.663 -17.862 -23.208  0.00  0.00    -0.082 C 
ATOM     22  H   UNL     1      34.051 -18.565 -24.237  0.00  0.00    -0.085 HD
ATOM     23  H   UNL     1      35.351 -19.626 -24.163  0.00  0.00    -0.085 HD
ENDBRANCH  10  17
ENDBRANCH   1  13
BRANCH   6  26
ATOM     24  O   UNL     1      34.572 -24.210 -12.256  0.00  0.00    -0.270 OA
ATOM     25  N   UNL     1      35.445 -25.213 -14.123  0.00  0.00    -0.325 N 
ATOM     26  C   UNL     1      34.389 -24.647 -13.410  0.00  0.00    +0.244 C 
ATOM     27  H   UNL     1      36.344 -25.258 -13.721  0.00  0.00    +0.145 HD
ATOM     28  H   UNL     1      35.294 -25.568 -15.029  0.00  0.00    +0.145 HD
ENDBRANCH   6  26
TORSDOF 3
ENDMDL
MODEL 3
REMARK VINA RESULT:     -10.9      1.309      1.849
REMARK  Name = 24958200
REMARK  3 active torsions:
REMARK  status: ('A' for Active; 'I' for Inactive)
REMARK    1  A    between atoms: N_1  and  C_13
REMARK    2  A    between atoms: C_6  and  C_26
REMARK    3  A    between atoms: C_10  and  C_17
REMARK                            x       y       z     vdW  Elec       q    Type
REMARK                         _______ _______ _______ _____ _____    ______ ____
ROOT
ATOM      1  N   UNL     1      33.501 -22.367 -18.136  0.00  0.00    -0.189 N 
ATOM      2  N   UNL     1      32.197 -22.585 -17.874  0.00  0.00    -0.174 NA
ATOM      3  C   UNL     1      33.557 -23.559 -16.337  0.00  0.00    +0.036 C 
ATOM      4  C   UNL     1      34.365 -22.930 -17.243  0.00  0.00    +0.091 C 
ATOM      5  C   UNL     1      32.195 -23.329 -16.753  0.00  0.00    +0.105 C 
ATOM      6  C   UNL     1      31.122 -23.857 -16.012  0.00  0.00    +0.072 C 
ATOM      7  C   UNL     1      33.989 -24.277 -15.230  0.00  0.00    +0.003 C 
ATOM      8  C   UNL     1      31.528 -24.595 -14.879  0.00  0.00    +0.006 C 
ATOM      9  C   UNL     1      32.895 -24.794 -14.507  0.00  0.00    +0.000 C 
ENDROOT
BRANCH   1  13
ATOM     10  C   UNL     1      34.614 -20.124 -21.473  0.00  0.00    -0.024 C 
ATOM     11  C   UNL     1      35.590 -20.739 -20.689  0.00  0.00    -0.003 C 
ATOM     12  C   UNL     1      33.265 -20.259 -21.142  0.00  0.00    -0.003 C 
ATOM     13  C   UNL     1      33.870 -21.623 -19.241  0.00  0.00    +0.074 C 
ATOM     14  C   UNL     1      35.218 -21.489 -19.574  0.00  0.00    +0.016 C 
ATOM     15  C   UNL     1      32.893 -21.008 -20.026  0.00  0.00    +0.016 C 
BRANCH  10  17
ATOM     16  N   UNL     1      34.381 -18.597 -24.977  0.00  0.00    +0.384 N 
ATOM     17  C   UNL     1      35.018 -19.306 -22.687  0.00  0.00    +0.001 C 
ATOM     18  C   UNL     1      35.329 -17.847 -22.314  0.00  0.00    +0.000 C 
ATOM     19  C   UNL     1      33.960 -19.368 -23.805  0.00  0.00    -0.077 C 
ATOM     20  C   UNL     1      35.683 -17.044 -23.563  0.00  0.00    -0.023 C 
ATOM     21  C   UNL     1      34.611 -17.192 -24.641  0.00  0.00    -0.082 C 
ATOM     22  H   UNL     1      33.652 -18.653 -25.689  0.00  0.00    -0.085 HD
ATOM     23  H   UNL     1      35.256 -18.992 -25.323  0.00  0.00    -0.085 HD
ENDBRANCH  10  17
ENDBRANCH   1  13
BRANCH   6  26
ATOM     24  O   UNL     1      29.355 -22.672 -17.022  0.00  0.00    -0.270 OA
ATOM     25  N   UNL     1      28.816 -24.642 -15.981  0.00  0.00    -0.325 N 
ATOM     26  C   UNL     1      29.733 -23.666 -16.371  0.00  0.00    +0.244 C 
ATOM     27  H   UNL     1      27.863 -24.542 -16.210  0.00  0.00    +0.145 HD
ATOM     28  H   UNL     1      29.120 -25.432 -15.478  0.00  0.00    +0.145 HD
ENDBRANCH   6  26
TORSDOF 3
ENDMDL
MODEL 4
REMARK VINA RESULT:     -10.7      8.132     12.184
REMARK  Name = 24958200
REMARK  3 active torsions:
REMARK  status: ('A' for Active; 'I' for Inactive)
REMARK    1  A    between atoms: N_1  and  C_13
REMARK    2  A    between atoms: C_6  and  C_26
REMARK    3  A    between atoms: C_10  and  C_17
REMARK                            x       y       z     vdW  Elec       q    Type
REMARK                         _______ _______ _______ _____ _____    ______ ____
ROOT
ATOM      1  N   UNL     1      33.399 -13.748 -23.595  0.00  0.00    -0.189 N 
ATOM      2  N   UNL     1      34.056 -14.572 -22.757  0.00  0.00    -0.174 NA
ATOM      3  C   UNL     1      33.734 -15.505 -24.803  0.00  0.00    +0.036 C 
ATOM      4  C   UNL     1      33.177 -14.258 -24.841  0.00  0.00    +0.091 C 
ATOM      5  C   UNL     1      34.283 -15.683 -23.480  0.00  0.00    +0.105 C 
ATOM      6  C   UNL     1      34.930 -16.883 -23.129  0.00  0.00    +0.072 C 
ATOM      7  C   UNL     1      33.757 -16.414 -25.852  0.00  0.00    +0.003 C 
ATOM      8  C   UNL     1      34.969 -17.830 -24.177  0.00  0.00    +0.006 C 
ATOM      9  C   UNL     1      34.409 -17.604 -25.474  0.00  0.00    +0.000 C 
ENDROOT
BRANCH   1  13
ATOM     10  C   UNL     1      32.210  -9.964 -22.297  0.00  0.00    -0.024 C 
ATOM     11  C   UNL     1      31.733 -11.105 -21.652  0.00  0.00    -0.003 C 
ATOM     12  C   UNL     1      33.086 -10.088 -23.377  0.00  0.00    -0.003 C 
ATOM     13  C   UNL     1      33.004 -12.494 -23.165  0.00  0.00    +0.074 C 
ATOM     14  C   UNL     1      32.130 -12.370 -22.086  0.00  0.00    +0.016 C 
ATOM     15  C   UNL     1      33.483 -11.353 -23.811  0.00  0.00    +0.016 C 
BRANCH  10  17
ATOM     16  N   UNL     1      32.397  -6.602 -20.475  0.00  0.00    +0.384 N 
ATOM     17  C   UNL     1      31.777  -8.588 -21.827  0.00  0.00    +0.001 C 
ATOM     18  C   UNL     1      31.396  -7.676 -23.004  0.00  0.00    +0.000 C 
ATOM     19  C   UNL     1      32.844  -7.916 -20.942  0.00  0.00    -0.077 C 
ATOM     20  C   UNL     1      31.014  -6.287 -22.498  0.00  0.00    -0.023 C 
ATOM     21  C   UNL     1      32.099  -5.708 -21.593  0.00  0.00    -0.082 C 
ATOM     22  H   UNL     1      33.133  -6.186 -19.904  0.00  0.00    -0.085 HD
ATOM     23  H   UNL     1      31.544  -6.730 -19.930  0.00  0.00    -0.085 HD
ENDBRANCH  10  17
ENDBRANCH   1  13
BRANCH   6  26
ATOM     24  O   UNL     1      36.359 -18.017 -21.641  0.00  0.00    -0.270 OA
ATOM     25  N   UNL     1      35.084 -16.327 -20.763  0.00  0.00    -0.325 N 
ATOM     26  C   UNL     1      35.503 -17.129 -21.824  0.00  0.00    +0.244 C 
ATOM     27  H   UNL     1      35.454 -16.468 -19.861  0.00  0.00    +0.145 HD
ATOM     28  H   UNL     1      34.417 -15.618 -20.914  0.00  0.00    +0.145 HD
ENDBRANCH   6  26
TORSDOF 3
ENDMDL
MODEL 5
REMARK VINA RESULT:     -10.7      2.694      3.766
REMARK  Name = 24958200
REMARK  3 active torsions:
REMARK  status: ('A' for Active; 'I' for Inactive)
REMARK    1  A    between atoms: N_1  and  C_13
REMARK    2  A    between atoms: C_6  and  C_26
REMARK    3  A    between atoms: C_10  and  C_17
REMARK                            x       y       z     vdW  Elec       q    Type
REMARK                         _______ _______ _______ _____ _____    ______ ____
ROOT
ATOM      1  N   UNL     1      33.778 -22.483 -18.019  0.00  0.00    -0.189 N 
ATOM      2  N   UNL     1      34.755 -23.037 -17.277  0.00  0.00    -0.174 NA
ATOM      3  C   UNL     1      32.687 -23.521 -16.473  0.00  0.00    +0.036 C 
ATOM      4  C   UNL     1      32.511 -22.741 -17.581  0.00  0.00    +0.091 C 
ATOM      5  C   UNL     1      34.108 -23.696 -16.298  0.00  0.00    +0.105 C 
ATOM      6  C   UNL     1      34.609 -24.460 -15.228  0.00  0.00    +0.072 C 
ATOM      7  C   UNL     1      31.672 -24.038 -15.678  0.00  0.00    +0.003 C 
ATOM      8  C   UNL     1      33.601 -25.000 -14.400  0.00  0.00    +0.006 C 
ATOM      9  C   UNL     1      32.201 -24.797 -14.616  0.00  0.00    +0.000 C 
ENDROOT
BRANCH   1  13
ATOM     10  C   UNL     1      34.743 -20.184 -21.365  0.00  0.00    -0.024 C 
ATOM     11  C   UNL     1      35.755 -20.771 -20.606  0.00  0.00    -0.003 C 
ATOM     12  C   UNL     1      33.406 -20.366 -21.005  0.00  0.00    -0.003 C 
ATOM     13  C   UNL     1      34.098 -21.721 -19.127  0.00  0.00    +0.074 C 
ATOM     14  C   UNL     1      35.433 -21.539 -19.488  0.00  0.00    +0.016 C 
ATOM     15  C   UNL     1      33.084 -21.134 -19.887  0.00  0.00    +0.016 C 
BRANCH  10  17
ATOM     16  N   UNL     1      34.384 -18.647 -24.854  0.00  0.00    +0.384 N 
ATOM     17  C   UNL     1      35.093 -19.346 -22.581  0.00  0.00    +0.001 C 
ATOM     18  C   UNL     1      35.360 -17.879 -22.206  0.00  0.00    +0.000 C 
ATOM     19  C   UNL     1      34.015 -19.438 -23.678  0.00  0.00    -0.077 C 
ATOM     20  C   UNL     1      35.660 -17.057 -23.457  0.00  0.00    -0.023 C 
ATOM     21  C   UNL     1      34.572 -17.237 -24.514  0.00  0.00    -0.082 C 
ATOM     22  H   UNL     1      33.643 -18.724 -25.551  0.00  0.00    -0.085 HD
ATOM     23  H   UNL     1      35.265 -19.009 -25.220  0.00  0.00    -0.085 HD
ENDBRANCH  10  17
ENDBRANCH   1  13
BRANCH   6  26
ATOM     24  O   UNL     1      36.606 -25.693 -15.417  0.00  0.00    -0.270 OA
ATOM     25  N   UNL     1      36.725 -23.701 -14.289  0.00  0.00    -0.325 N 
ATOM     26  C   UNL     1      36.020 -24.677 -14.994  0.00  0.00    +0.244 C 
ATOM     27  H   UNL     1      37.687 -23.818 -14.113  0.00  0.00    +0.145 HD
ATOM     28  H   UNL     1      36.261 -22.894 -13.968  0.00  0.00    +0.145 HD
ENDBRANCH   6  26
TORSDOF 3
ENDMDL
MODEL 6
REMARK VINA RESULT:     -10.7      7.702     11.385
REMARK  Name = 24958200
REMARK  3 active torsions:
REMARK  status: ('A' for Active; 'I' for Inactive)
REMARK    1  A    between atoms: N_1  and  C_13
REMARK    2  A    between atoms: C_6  and  C_26
REMARK    3  A    between atoms: C_10  and  C_17
REMARK                            x       y       z     vdW  Elec       q    Type
REMARK                         _______ _______ _______ _____ _____    ______ ____
ROOT
ATOM      1  N   UNL     1      33.926 -14.899 -24.045  0.00  0.00    -0.189 N 
ATOM      2  N   UNL     1      34.583 -15.562 -23.074  0.00  0.00    -0.174 NA
ATOM      3  C   UNL     1      34.016 -16.916 -24.808  0.00  0.00    +0.036 C 
ATOM      4  C   UNL     1      33.560 -15.665 -25.113  0.00  0.00    +0.091 C 
ATOM      5  C   UNL     1      34.658 -16.830 -23.518  0.00  0.00    +0.105 C 
ATOM      6  C   UNL     1      35.234 -17.970 -22.928  0.00  0.00    +0.072 C 
ATOM      7  C   UNL     1      33.878 -18.045 -25.604  0.00  0.00    +0.003 C 
ATOM      8  C   UNL     1      35.109 -19.136 -23.714  0.00  0.00    +0.006 C 
ATOM      9  C   UNL     1      34.462 -19.170 -24.990  0.00  0.00    +0.000 C 
ENDROOT
BRANCH   1  13
ATOM     10  C   UNL     1      33.153 -10.819 -23.635  0.00  0.00    -0.024 C 
ATOM     11  C   UNL     1      33.859 -11.288 -24.743  0.00  0.00    -0.003 C 
ATOM     12  C   UNL     1      32.705 -11.715 -22.663  0.00  0.00    -0.003 C 
ATOM     13  C   UNL     1      33.671 -13.547 -23.909  0.00  0.00    +0.074 C 
ATOM     14  C   UNL     1      34.117 -12.651 -24.880  0.00  0.00    +0.016 C 
ATOM     15  C   UNL     1      32.964 -13.079 -22.800  0.00  0.00    +0.016 C 
BRANCH  10  17
ATOM     16  N   UNL     1      31.725  -7.599 -22.133  0.00  0.00    +0.384 N 
ATOM     17  C   UNL     1      32.874  -9.335 -23.484  0.00  0.00    +0.001 C 
ATOM     18  C   UNL     1      34.170  -8.510 -23.455  0.00  0.00    +0.000 C 
ATOM     19  C   UNL     1      32.009  -9.032 -22.246  0.00  0.00    -0.077 C 
ATOM     20  C   UNL     1      33.853  -7.030 -23.252  0.00  0.00    -0.023 C 
ATOM     21  C   UNL     1      32.956  -6.815 -22.036  0.00  0.00    -0.082 C 
ATOM     22  H   UNL     1      31.162  -7.438 -21.299  0.00  0.00    -0.085 HD
ATOM     23  H   UNL     1      31.223  -7.305 -22.972  0.00  0.00    -0.085 HD
ENDBRANCH  10  17
ENDBRANCH   1  13
BRANCH   6  26
ATOM     24  O   UNL     1      36.921 -18.627 -21.423  0.00  0.00    -0.270 OA
ATOM     25  N   UNL     1      35.355 -17.148 -20.638  0.00  0.00    -0.325 N 
ATOM     26  C   UNL     1      35.893 -17.956 -21.640  0.00  0.00    +0.244 C 
ATOM     27  H   UNL     1      35.780 -17.116 -19.750  0.00  0.00    +0.145 HD
ATOM     28  H   UNL     1      34.551 -16.610 -20.818  0.00  0.00    +0.145 HD
ENDBRANCH   6  26
TORSDOF 3
ENDMDL
MODEL 7
REMARK VINA RESULT:     -10.5      4.161      5.461
REMARK  Name = 24958200
REMARK  3 active torsions:
REMARK  status: ('A' for Active; 'I' for Inactive)
REMARK    1  A    between atoms: N_1  and  C_13
REMARK    2  A    between atoms: C_6  and  C_26
REMARK    3  A    between atoms: C_10  and  C_17
REMARK                            x       y       z     vdW  Elec       q    Type
REMARK                         _______ _______ _______ _____ _____    ______ ____
ROOT
ATOM      1  N   UNL     1      35.899 -23.301 -15.899  0.00  0.00    -0.189 N 
ATOM      2  N   UNL     1      36.891 -24.180 -15.656  0.00  0.00    -0.174 NA
ATOM      3  C   UNL     1      35.478 -23.968 -13.890  0.00  0.00    +0.036 C 
ATOM      4  C   UNL     1      35.019 -23.133 -14.870  0.00  0.00    +0.091 C 
ATOM      5  C   UNL     1      36.659 -24.618 -14.406  0.00  0.00    +0.105 C 
ATOM      6  C   UNL     1      37.366 -25.547 -13.620  0.00  0.00    +0.072 C 
ATOM      7  C   UNL     1      34.900 -24.143 -12.639  0.00  0.00    +0.003 C 
ATOM      8  C   UNL     1      36.803 -25.746 -12.340  0.00  0.00    +0.006 C 
ATOM      9  C   UNL     1      35.628 -25.076 -11.874  0.00  0.00    +0.000 C 
ENDROOT
BRANCH   1  13
ATOM     10  C   UNL     1      35.704 -21.333 -19.573  0.00  0.00    -0.024 C 
ATOM     11  C   UNL     1      34.596 -22.035 -19.098  0.00  0.00    -0.003 C 
ATOM     12  C   UNL     1      36.877 -21.287 -18.819  0.00  0.00    -0.003 C 
ATOM     13  C   UNL     1      35.835 -22.649 -17.116  0.00  0.00    +0.074 C 
ATOM     14  C   UNL     1      34.662 -22.693 -17.870  0.00  0.00    +0.016 C 
ATOM     15  C   UNL     1      36.943 -21.945 -17.591  0.00  0.00    +0.016 C 
BRANCH  10  17
ATOM     16  N   UNL     1      34.148 -19.505 -22.557  0.00  0.00    +0.384 N 
ATOM     17  C   UNL     1      35.634 -20.618 -20.910  0.00  0.00    +0.001 C 
ATOM     18  C   UNL     1      36.605 -19.428 -20.972  0.00  0.00    +0.000 C 
ATOM     19  C   UNL     1      34.201 -20.168 -21.251  0.00  0.00    -0.077 C 
ATOM     20  C   UNL     1      36.472 -18.703 -22.310  0.00  0.00    -0.023 C 
ATOM     21  C   UNL     1      35.019 -18.332 -22.598  0.00  0.00    -0.082 C 
ATOM     22  H   UNL     1      33.188 -19.213 -22.741  0.00  0.00    -0.085 HD
ATOM     23  H   UNL     1      34.468 -20.167 -23.265  0.00  0.00    -0.085 HD
ENDBRANCH  10  17
ENDBRANCH   1  13
BRANCH   6  26
ATOM     24  O   UNL     1      38.496 -27.354 -14.620  0.00  0.00    -0.270 OA
ATOM     25  N   UNL     1      39.785 -25.602 -13.897  0.00  0.00    -0.325 N 
ATOM     26  C   UNL     1      38.555 -26.235 -14.072  0.00  0.00    +0.244 C 
ATOM     27  H   UNL     1      40.614 -26.043 -14.195  0.00  0.00    +0.145 HD
ATOM     28  H   UNL     1      39.826 -24.713 -13.476  0.00  0.00    +0.145 HD
ENDBRANCH   6  26
TORSDOF 3
ENDMDL
MODEL 8
REMARK VINA RESULT:     -10.5      8.934     12.659
REMARK  Name = 24958200
REMARK  3 active torsions:
REMARK  status: ('A' for Active; 'I' for Inactive)
REMARK    1  A    between atoms: N_1  and  C_13
REMARK    2  A    between atoms: C_6  and  C_26
REMARK    3  A    between atoms: C_10  and  C_17
REMARK                            x       y       z     vdW  Elec       q    Type
REMARK                         _______ _______ _______ _____ _____    ______ ____
ROOT
ATOM      1  N   UNL     1      33.520 -13.134 -22.884  0.00  0.00    -0.189 N 
ATOM      2  N   UNL     1      33.349 -13.856 -24.009  0.00  0.00    -0.174 NA
ATOM      3  C   UNL     1      34.502 -14.999 -22.420  0.00  0.00    +0.036 C 
ATOM      4  C   UNL     1      34.208 -13.772 -21.894  0.00  0.00    +0.091 C 
ATOM      5  C   UNL     1      33.952 -15.031 -23.753  0.00  0.00    +0.105 C 
ATOM      6  C   UNL     1      34.094 -16.176 -24.559  0.00  0.00    +0.072 C 
ATOM      7  C   UNL     1      35.201 -16.010 -21.773  0.00  0.00    +0.003 C 
ATOM      8  C   UNL     1      34.802 -17.224 -23.929  0.00  0.00    +0.006 C 
ATOM      9  C   UNL     1      35.328 -17.143 -22.601  0.00  0.00    +0.000 C 
ENDROOT
BRANCH   1  13
ATOM     10  C   UNL     1      31.997  -9.257 -22.639  0.00  0.00    -0.024 C 
ATOM     11  C   UNL     1      31.510 -10.253 -21.792  0.00  0.00    -0.003 C 
ATOM     12  C   UNL     1      32.994  -9.557 -23.567  0.00  0.00    -0.003 C 
ATOM     13  C   UNL     1      33.015 -11.850 -22.803  0.00  0.00    +0.074 C 
ATOM     14  C   UNL     1      32.018 -11.549 -21.875  0.00  0.00    +0.016 C 
ATOM     15  C   UNL     1      33.503 -10.853 -23.650  0.00  0.00    +0.016 C 
BRANCH  10  17
ATOM     16  N   UNL     1      31.534  -5.687 -21.332  0.00  0.00    +0.384 N 
ATOM     17  C   UNL     1      31.442  -7.847 -22.551  0.00  0.00    +0.001 C 
ATOM     18  C   UNL     1      31.559  -7.103 -23.891  0.00  0.00    +0.000 C 
ATOM     19  C   UNL     1      32.102  -7.035 -21.420  0.00  0.00    -0.077 C 
ATOM     20  C   UNL     1      31.039  -5.674 -23.752  0.00  0.00    -0.023 C 
ATOM     21  C   UNL     1      31.704  -4.951 -22.584  0.00  0.00    -0.082 C 
ATOM     22  H   UNL     1      32.002  -5.179 -20.581  0.00  0.00    -0.085 HD
ATOM     23  H   UNL     1      30.535  -5.773 -21.143  0.00  0.00    -0.085 HD
ENDBRANCH  10  17
ENDBRANCH   1  13
BRANCH   6  26
ATOM     24  O   UNL     1      33.134 -17.356 -26.357  0.00  0.00    -0.270 OA
ATOM     25  N   UNL     1      33.540 -15.123 -26.684  0.00  0.00    -0.325 N 
ATOM     26  C   UNL     1      33.568 -16.278 -25.902  0.00  0.00    +0.244 C 
ATOM     27  H   UNL     1      33.187 -15.158 -27.603  0.00  0.00    +0.145 HD
ATOM     28  H   UNL     1      33.871 -14.272 -26.317  0.00  0.00    +0.145 HD
ENDBRANCH   6  26
TORSDOF 3
ENDMDL
MODEL 9
REMARK VINA RESULT:     -10.2      4.486      9.173
REMARK  Name = 24958200
REMARK  3 active torsions:
REMARK  status: ('A' for Active; 'I' for Inactive)
REMARK    1  A    between atoms: N_1  and  C_13
REMARK    2  A    between atoms: C_6  and  C_26
REMARK    3  A    between atoms: C_10  and  C_17
REMARK                            x       y       z     vdW  Elec       q    Type
REMARK                         _______ _______ _______ _____ _____    ______ ____
ROOT
ATOM      1  N   UNL     1      34.909 -19.368 -21.936  0.00  0.00    -0.189 N 
ATOM      2  N   UNL     1      34.894 -18.039 -21.715  0.00  0.00    -0.174 NA
ATOM      3  C   UNL     1      34.626 -18.548 -23.913  0.00  0.00    +0.036 C 
ATOM      4  C   UNL     1      34.752 -19.732 -23.242  0.00  0.00    +0.091 C 
ATOM      5  C   UNL     1      34.718 -17.494 -22.932  0.00  0.00    +0.105 C 
ATOM      6  C   UNL     1      34.623 -16.145 -23.321  0.00  0.00    +0.072 C 
ATOM      7  C   UNL     1      34.442 -18.410 -25.282  0.00  0.00    +0.003 C 
ATOM      8  C   UNL     1      34.436 -15.970 -24.710  0.00  0.00    +0.006 C 
ATOM      9  C   UNL     1      34.351 -17.051 -25.643  0.00  0.00    +0.000 C 
ENDROOT
BRANCH   1  13
ATOM     10  C   UNL     1      35.417 -22.012 -18.748  0.00  0.00    -0.024 C 
ATOM     11  C   UNL     1      34.141 -21.772 -19.260  0.00  0.00    -0.003 C 
ATOM     12  C   UNL     1      36.523 -21.368 -19.304  0.00  0.00    -0.003 C 
ATOM     13  C   UNL     1      35.077 -20.244 -20.880  0.00  0.00    +0.074 C 
ATOM     14  C   UNL     1      33.972 -20.888 -20.325  0.00  0.00    +0.016 C 
ATOM     15  C   UNL     1      36.354 -20.484 -20.369  0.00  0.00    +0.016 C 
BRANCH  10  17
ATOM     16  N   UNL     1      36.885 -23.455 -15.520  0.00  0.00    +0.384 N 
ATOM     17  C   UNL     1      35.602 -22.973 -17.588  0.00  0.00    +0.001 C 
ATOM     18  C   UNL     1      34.284 -23.220 -16.836  0.00  0.00    +0.000 C 
ATOM     19  C   UNL     1      36.701 -22.502 -16.617  0.00  0.00    -0.077 C 
ATOM     20  C   UNL     1      34.517 -24.149 -15.647  0.00  0.00    -0.023 C 
ATOM     21  C   UNL     1      35.650 -23.641 -14.759  0.00  0.00    -0.082 C 
ATOM     22  H   UNL     1      37.611 -23.105 -14.894  0.00  0.00    -0.085 HD
ATOM     23  H   UNL     1      37.154 -24.355 -15.919  0.00  0.00    -0.085 HD
ENDBRANCH  10  17
ENDBRANCH   1  13
BRANCH   6  26
ATOM     24  O   UNL     1      34.580 -13.856 -22.769  0.00  0.00    -0.270 OA
ATOM     25  N   UNL     1      34.915 -15.329 -21.044  0.00  0.00    -0.325 N 
ATOM     26  C   UNL     1      34.706 -15.038 -22.393  0.00  0.00    +0.244 C 
ATOM     27  H   UNL     1      34.977 -14.598 -20.386  0.00  0.00    +0.145 HD
ATOM     28  H   UNL     1      35.001 -16.264 -20.750  0.00  0.00    +0.145 HD
ENDBRANCH   6  26
TORSDOF 3
ENDMDL
