MODEL 1
REMARK VINA RESULT:     -11.5      0.000      0.000
REMARK  Name = 6419789
REMARK  3 active torsions:
REMARK  status: ('A' for Active; 'I' for Inactive)
REMARK    1  A    between atoms: N_4  and  C_13
REMARK    2  A    between atoms: C_5  and  C_19
REMARK    3  A    between atoms: C_22  and  N_25
REMARK                            x       y       z     vdW  Elec       q    Type
REMARK                         _______ _______ _______ _____ _____    ______ ____
ROOT
ATOM      1  N   UNL     1      35.934 -23.446 -14.492  0.00  0.00    -0.164 N 
ATOM      2  N   UNL     1      34.907 -23.070 -16.633  0.00  0.00    -0.374 NA
ATOM      3  N   UNL     1      35.613 -23.840 -13.232  0.00  0.00    -0.174 NA
ATOM      4  N   UNL     1      36.213 -22.353 -18.420  0.00  0.00    -0.288 N 
ATOM      5  C   UNL     1      33.755 -23.839 -14.550  0.00  0.00    +0.134 C 
ATOM      6  C   UNL     1      34.819 -23.434 -15.324  0.00  0.00    +0.194 C 
ATOM      7  C   UNL     1      34.301 -24.074 -13.282  0.00  0.00    +0.104 C 
ATOM      8  C   UNL     1      36.086 -22.725 -17.100  0.00  0.00    +0.186 C 
ATOM      9  C   UNL     1      37.183 -23.082 -14.975  0.00  0.00    +0.096 C 
ATOM     10  C   UNL     1      37.330 -22.716 -16.251  0.00  0.00    +0.066 C 
ATOM     11  H   UNL     1      37.079 -22.538 -18.851  0.00  0.00    +0.155 HD
ENDROOT
BRANCH   4  13
ATOM     12 CL   UNL     1      35.090 -19.089 -22.216  0.00  0.00    -0.082 Cl
ATOM     13  C   UNL     1      35.243 -21.742 -19.207  0.00  0.00    +0.051 C 
ATOM     14  C   UNL     1      35.603 -20.823 -20.207  0.00  0.00    +0.026 C 
ATOM     15  C   UNL     1      33.882 -22.032 -19.019  0.00  0.00    +0.015 C 
ATOM     16  C   UNL     1      34.629 -20.212 -20.996  0.00  0.00    +0.059 C 
ATOM     17  C   UNL     1      32.908 -21.420 -19.808  0.00  0.00    +0.002 C 
ATOM     18  C   UNL     1      33.281 -20.510 -20.797  0.00  0.00    +0.011 C 
ENDBRANCH   4  13
BRANCH   5  19
ATOM     19  C   UNL     1      32.410 -23.965 -15.025  0.00  0.00    -0.008 C 
ATOM     20  C   UNL     1      31.544 -24.895 -14.445  0.00  0.00    +0.011 C 
ATOM     21  C   UNL     1      31.959 -23.158 -16.072  0.00  0.00    -0.003 C 
ATOM     22  C   UNL     1      30.234 -25.017 -14.909  0.00  0.00    +0.041 C 
ATOM     23  C   UNL     1      30.649 -23.281 -16.537  0.00  0.00    +0.001 C 
ATOM     24  C   UNL     1      29.787 -24.210 -15.955  0.00  0.00    +0.014 C 
BRANCH  22  25
ATOM     25  N   UNL     1      29.362 -25.957 -14.321  0.00  0.00    -0.357 N 
ATOM     26  H   UNL     1      29.728 -26.735 -13.842  0.00  0.00    +0.142 HD
ATOM     27  H   UNL     1      28.388 -25.836 -14.392  0.00  0.00    +0.142 HD
ENDBRANCH  22  25
ENDBRANCH   5  19
TORSDOF 3
ENDMDL
MODEL 2
REMARK VINA RESULT:     -10.6      3.226      5.779
REMARK  Name = 6419789
REMARK  3 active torsions:
REMARK  status: ('A' for Active; 'I' for Inactive)
REMARK    1  A    between atoms: N_4  and  C_13
REMARK    2  A    between atoms: C_5  and  C_19
REMARK    3  A    between atoms: C_22  and  N_25
REMARK                            x       y       z     vdW  Elec       q    Type
REMARK                         _______ _______ _______ _____ _____    ______ ____
ROOT
ATOM      1  N   UNL     1      34.938 -22.378 -18.068  0.00  0.00    -0.164 N 
ATOM      2  N   UNL     1      35.402 -23.167 -15.845  0.00  0.00    -0.374 NA
ATOM      3  N   UNL     1      33.903 -22.249 -18.937  0.00  0.00    -0.174 NA
ATOM      4  N   UNL     1      37.572 -23.039 -15.013  0.00  0.00    -0.288 N 
ATOM      5  C   UNL     1      33.178 -23.178 -16.988  0.00  0.00    +0.134 C 
ATOM      6  C   UNL     1      34.528 -22.944 -16.865  0.00  0.00    +0.194 C 
ATOM      7  C   UNL     1      32.852 -22.733 -18.275  0.00  0.00    +0.104 C 
ATOM      8  C   UNL     1      36.660 -22.831 -16.024  0.00  0.00    +0.186 C 
ATOM      9  C   UNL     1      36.264 -22.020 -18.268  0.00  0.00    +0.096 C 
ATOM     10  C   UNL     1      37.166 -22.216 -17.302  0.00  0.00    +0.066 C 
ATOM     11  H   UNL     1      38.332 -22.416 -14.967  0.00  0.00    +0.155 HD
ENDROOT
BRANCH   4  13
ATOM     12 CL   UNL     1      35.827 -24.651 -10.465  0.00  0.00    -0.082 Cl
ATOM     13  C   UNL     1      37.527 -24.042 -14.050  0.00  0.00    +0.051 C 
ATOM     14  C   UNL     1      36.786 -23.871 -12.869  0.00  0.00    +0.026 C 
ATOM     15  C   UNL     1      38.223 -25.247 -14.239  0.00  0.00    +0.015 C 
ATOM     16  C   UNL     1      36.741 -24.878 -11.905  0.00  0.00    +0.059 C 
ATOM     17  C   UNL     1      38.179 -26.254 -13.274  0.00  0.00    +0.002 C 
ATOM     18  C   UNL     1      37.439 -26.070 -12.107  0.00  0.00    +0.011 C 
ENDBRANCH   4  13
BRANCH   5  19
ATOM     19  C   UNL     1      32.360 -23.758 -15.966  0.00  0.00    -0.008 C 
ATOM     20  C   UNL     1      30.978 -23.857 -16.143  0.00  0.00    +0.011 C 
ATOM     21  C   UNL     1      32.941 -24.227 -14.786  0.00  0.00    -0.003 C 
ATOM     22  C   UNL     1      30.181 -24.421 -15.147  0.00  0.00    +0.041 C 
ATOM     23  C   UNL     1      32.146 -24.792 -13.789  0.00  0.00    +0.001 C 
ATOM     24  C   UNL     1      30.766 -24.889 -13.969  0.00  0.00    +0.014 C 
BRANCH  22  25
ATOM     25  N   UNL     1      28.786 -24.519 -15.328  0.00  0.00    -0.357 N 
ATOM     26  H   UNL     1      28.348 -24.015 -16.051  0.00  0.00    +0.142 HD
ATOM     27  H   UNL     1      28.252 -25.091 -14.731  0.00  0.00    +0.142 HD
ENDBRANCH  22  25
ENDBRANCH   5  19
TORSDOF 3
ENDMDL
MODEL 3
REMARK VINA RESULT:     -10.5      2.323      5.883
REMARK  Name = 6419789
REMARK  3 active torsions:
REMARK  status: ('A' for Active; 'I' for Inactive)
REMARK    1  A    between atoms: N_4  and  C_13
REMARK    2  A    between atoms: C_5  and  C_19
REMARK    3  A    between atoms: C_22  and  N_25
REMARK                            x       y       z     vdW  Elec       q    Type
REMARK                         _______ _______ _______ _____ _____    ______ ____
ROOT
ATOM      1  N   UNL     1      36.714 -23.496 -14.442  0.00  0.00    -0.164 N 
ATOM      2  N   UNL     1      34.358 -23.361 -14.900  0.00  0.00    -0.374 NA
ATOM      3  N   UNL     1      37.912 -23.291 -15.050  0.00  0.00    -0.174 NA
ATOM      4  N   UNL     1      32.833 -23.911 -13.231  0.00  0.00    -0.288 N 
ATOM      5  C   UNL     1      36.212 -22.831 -16.494  0.00  0.00    +0.134 C 
ATOM      6  C   UNL     1      35.653 -23.224 -15.299  0.00  0.00    +0.194 C 
ATOM      7  C   UNL     1      37.594 -22.891 -16.281  0.00  0.00    +0.104 C 
ATOM      8  C   UNL     1      34.130 -23.763 -13.670  0.00  0.00    +0.186 C 
ATOM      9  C   UNL     1      36.484 -23.922 -13.141  0.00  0.00    +0.096 C 
ATOM     10  C   UNL     1      35.234 -24.075 -12.695  0.00  0.00    +0.066 C 
ATOM     11  H   UNL     1      32.671 -23.763 -12.271  0.00  0.00    +0.155 HD
ENDROOT
BRANCH   4  13
ATOM     12 CL   UNL     1      29.287 -22.465 -16.645  0.00  0.00    -0.082 Cl
ATOM     13  C   UNL     1      31.729 -24.249 -14.006  0.00  0.00    +0.051 C 
ATOM     14  C   UNL     1      31.122 -23.300 -14.845  0.00  0.00    +0.026 C 
ATOM     15  C   UNL     1      31.197 -25.549 -13.966  0.00  0.00    +0.015 C 
ATOM     16  C   UNL     1      30.016 -23.641 -15.623  0.00  0.00    +0.059 C 
ATOM     17  C   UNL     1      30.090 -25.889 -14.743  0.00  0.00    +0.002 C 
ATOM     18  C   UNL     1      29.499 -24.936 -15.571  0.00  0.00    +0.011 C 
ENDBRANCH   4  13
BRANCH   5  19
ATOM     19  C   UNL     1      35.461 -22.457 -17.655  0.00  0.00    -0.008 C 
ATOM     20  C   UNL     1      36.075 -21.750 -18.691  0.00  0.00    +0.011 C 
ATOM     21  C   UNL     1      34.111 -22.800 -17.756  0.00  0.00    -0.003 C 
ATOM     22  C   UNL     1      35.343 -21.386 -19.821  0.00  0.00    +0.041 C 
ATOM     23  C   UNL     1      33.378 -22.436 -18.886  0.00  0.00    +0.001 C 
ATOM     24  C   UNL     1      33.994 -21.729 -19.918  0.00  0.00    +0.014 C 
BRANCH  22  25
ATOM     25  N   UNL     1      35.965 -20.671 -20.866  0.00  0.00    -0.357 N 
ATOM     26  H   UNL     1      35.481 -20.510 -21.707  0.00  0.00    +0.142 HD
ATOM     27  H   UNL     1      36.883 -20.334 -20.753  0.00  0.00    +0.142 HD
ENDBRANCH  22  25
ENDBRANCH   5  19
TORSDOF 3
ENDMDL
MODEL 4
REMARK VINA RESULT:     -10.3      3.097      5.484
REMARK  Name = 6419789
REMARK  3 active torsions:
REMARK  status: ('A' for Active; 'I' for Inactive)
REMARK    1  A    between atoms: N_4  and  C_13
REMARK    2  A    between atoms: C_5  and  C_19
REMARK    3  A    between atoms: C_22  and  N_25
REMARK                            x       y       z     vdW  Elec       q    Type
REMARK                         _______ _______ _______ _____ _____    ______ ____
ROOT
ATOM      1  N   UNL     1      34.344 -22.362 -18.349  0.00  0.00    -0.164 N 
ATOM      2  N   UNL     1      35.377 -23.149 -16.326  0.00  0.00    -0.374 NA
ATOM      3  N   UNL     1      33.121 -22.278 -18.936  0.00  0.00    -0.174 NA
ATOM      4  N   UNL     1      37.675 -22.917 -16.048  0.00  0.00    -0.288 N 
ATOM      5  C   UNL     1      32.942 -23.265 -16.891  0.00  0.00    +0.134 C 
ATOM      6  C   UNL     1      34.269 -22.961 -17.096  0.00  0.00    +0.194 C 
ATOM      7  C   UNL     1      32.290 -22.824 -18.048  0.00  0.00    +0.104 C 
ATOM      8  C   UNL     1      36.534 -22.746 -16.800  0.00  0.00    +0.186 C 
ATOM      9  C   UNL     1      35.561 -21.934 -18.860  0.00  0.00    +0.096 C 
ATOM     10  C   UNL     1      36.681 -22.092 -18.148  0.00  0.00    +0.066 C 
ATOM     11  H   UNL     1      38.393 -22.256 -16.175  0.00  0.00    +0.155 HD
ENDROOT
BRANCH   4  13
ATOM     12 CL   UNL     1      40.775 -26.647 -14.373  0.00  0.00    -0.082 Cl
ATOM     13  C   UNL     1      37.917 -23.931 -15.126  0.00  0.00    +0.051 C 
ATOM     14  C   UNL     1      39.090 -24.700 -15.197  0.00  0.00    +0.026 C 
ATOM     15  C   UNL     1      36.992 -24.206 -14.106  0.00  0.00    +0.015 C 
ATOM     16  C   UNL     1      39.332 -25.715 -14.271  0.00  0.00    +0.059 C 
ATOM     17  C   UNL     1      37.234 -25.222 -13.181  0.00  0.00    +0.002 C 
ATOM     18  C   UNL     1      38.403 -25.977 -13.263  0.00  0.00    +0.011 C 
ENDBRANCH   4  13
BRANCH   5  19
ATOM     19  C   UNL     1      32.429 -23.897 -15.713  0.00  0.00    -0.008 C 
ATOM     20  C   UNL     1      31.124 -24.392 -15.693  0.00  0.00    +0.011 C 
ATOM     21  C   UNL     1      33.234 -24.021 -14.578  0.00  0.00    -0.003 C 
ATOM     22  C   UNL     1      30.624 -25.007 -14.545  0.00  0.00    +0.041 C 
ATOM     23  C   UNL     1      32.735 -24.636 -13.429  0.00  0.00    +0.001 C 
ATOM     24  C   UNL     1      31.430 -25.129 -13.412  0.00  0.00    +0.014 C 
BRANCH  22  25
ATOM     25  N   UNL     1      29.305 -25.506 -14.528  0.00  0.00    -0.357 N 
ATOM     26  H   UNL     1      29.023 -26.127 -13.818  0.00  0.00    +0.142 HD
ATOM     27  H   UNL     1      28.667 -25.233 -15.226  0.00  0.00    +0.142 HD
ENDBRANCH  22  25
ENDBRANCH   5  19
TORSDOF 3
ENDMDL
MODEL 5
REMARK VINA RESULT:      -9.9      2.868      5.839
REMARK  Name = 6419789
REMARK  3 active torsions:
REMARK  status: ('A' for Active; 'I' for Inactive)
REMARK    1  A    between atoms: N_4  and  C_13
REMARK    2  A    between atoms: C_5  and  C_19
REMARK    3  A    between atoms: C_22  and  N_25
REMARK                            x       y       z     vdW  Elec       q    Type
REMARK                         _______ _______ _______ _____ _____    ______ ____
ROOT
ATOM      1  N   UNL     1      35.886 -22.309 -17.840  0.00  0.00    -0.164 N 
ATOM      2  N   UNL     1      33.975 -23.168 -16.662  0.00  0.00    -0.374 NA
ATOM      3  N   UNL     1      37.211 -22.073 -17.654  0.00  0.00    -0.174 NA
ATOM      4  N   UNL     1      31.913 -23.258 -17.735  0.00  0.00    -0.288 N 
ATOM      5  C   UNL     1      36.301 -22.959 -15.764  0.00  0.00    +0.134 C 
ATOM      6  C   UNL     1      35.299 -22.851 -16.702  0.00  0.00    +0.194 C 
ATOM      7  C   UNL     1      37.446 -22.468 -16.403  0.00  0.00    +0.104 C 
ATOM      8  C   UNL     1      33.254 -22.947 -17.738  0.00  0.00    +0.186 C 
ATOM      9  C   UNL     1      35.134 -22.071 -18.982  0.00  0.00    +0.096 C 
ATOM     10  C   UNL     1      33.830 -22.362 -19.000  0.00  0.00    +0.066 C 
ATOM     11  H   UNL     1      31.516 -23.516 -18.598  0.00  0.00    +0.155 HD
ENDROOT
BRANCH   4  13
ATOM     12 CL   UNL     1      27.163 -22.620 -15.901  0.00  0.00    -0.082 Cl
ATOM     13  C   UNL     1      31.061 -23.243 -16.635  0.00  0.00    +0.051 C 
ATOM     14  C   UNL     1      29.691 -22.969 -16.792  0.00  0.00    +0.026 C 
ATOM     15  C   UNL     1      31.552 -23.502 -15.346  0.00  0.00    +0.015 C 
ATOM     16  C   UNL     1      28.838 -22.956 -15.689  0.00  0.00    +0.059 C 
ATOM     17  C   UNL     1      30.698 -23.488 -14.242  0.00  0.00    +0.002 C 
ATOM     18  C   UNL     1      29.341 -23.215 -14.413  0.00  0.00    +0.011 C 
ENDBRANCH   4  13
BRANCH   5  19
ATOM     19  C   UNL     1      36.119 -23.474 -14.441  0.00  0.00    -0.008 C 
ATOM     20  C   UNL     1      37.170 -23.439 -13.522  0.00  0.00    +0.011 C 
ATOM     21  C   UNL     1      34.888 -24.016 -14.063  0.00  0.00    -0.003 C 
ATOM     22  C   UNL     1      36.992 -23.942 -12.232  0.00  0.00    +0.041 C 
ATOM     23  C   UNL     1      34.709 -24.520 -12.774  0.00  0.00    +0.001 C 
ATOM     24  C   UNL     1      35.761 -24.483 -11.859  0.00  0.00    +0.014 C 
BRANCH  22  25
ATOM     25  N   UNL     1      38.055 -23.905 -11.307  0.00  0.00    -0.357 N 
ATOM     26  H   UNL     1      38.940 -23.577 -11.587  0.00  0.00    +0.142 HD
ATOM     27  H   UNL     1      37.912 -24.208 -10.382  0.00  0.00    +0.142 HD
ENDBRANCH  22  25
ENDBRANCH   5  19
TORSDOF 3
ENDMDL
MODEL 6
REMARK VINA RESULT:      -9.7     12.182     15.554
REMARK  Name = 6419789
REMARK  3 active torsions:
REMARK  status: ('A' for Active; 'I' for Inactive)
REMARK    1  A    between atoms: N_4  and  C_13
REMARK    2  A    between atoms: C_5  and  C_19
REMARK    3  A    between atoms: C_22  and  N_25
REMARK                            x       y       z     vdW  Elec       q    Type
REMARK                         _______ _______ _______ _____ _____    ______ ____
ROOT
ATOM      1  N   UNL     1      31.878 -11.395 -20.818  0.00  0.00    -0.164 N 
ATOM      2  N   UNL     1      32.621  -9.454 -22.027  0.00  0.00    -0.374 NA
ATOM      3  N   UNL     1      31.869 -12.749 -20.919  0.00  0.00    -0.174 NA
ATOM      4  N   UNL     1      32.243  -7.337 -21.139  0.00  0.00    -0.288 N 
ATOM      5  C   UNL     1      32.893 -11.837 -22.737  0.00  0.00    +0.134 C 
ATOM      6  C   UNL     1      32.498 -10.805 -21.916  0.00  0.00    +0.194 C 
ATOM      7  C   UNL     1      32.482 -13.001 -22.075  0.00  0.00    +0.104 C 
ATOM      8  C   UNL     1      32.134  -8.708 -21.061  0.00  0.00    +0.186 C 
ATOM      9  C   UNL     1      31.361 -10.615 -19.793  0.00  0.00    +0.096 C 
ATOM     10  C   UNL     1      31.453  -9.284 -19.849  0.00  0.00    +0.066 C 
ATOM     11  H   UNL     1      32.305  -6.848 -20.286  0.00  0.00    +0.155 HD
ENDROOT
BRANCH   4  13
ATOM     12 CL   UNL     1      34.881  -5.708 -25.227  0.00  0.00    -0.082 Cl
ATOM     13  C   UNL     1      32.273  -6.572 -22.300  0.00  0.00    +0.051 C 
ATOM     14  C   UNL     1      33.429  -6.522 -23.098  0.00  0.00    +0.026 C 
ATOM     15  C   UNL     1      31.148  -5.832 -22.699  0.00  0.00    +0.015 C 
ATOM     16  C   UNL     1      33.457  -5.755 -24.263  0.00  0.00    +0.059 C 
ATOM     17  C   UNL     1      31.177  -5.065 -23.864  0.00  0.00    +0.002 C 
ATOM     18  C   UNL     1      32.331  -5.026 -24.646  0.00  0.00    +0.011 C 
ENDBRANCH   4  13
BRANCH   5  19
ATOM     19  C   UNL     1      33.573 -11.663 -23.985  0.00  0.00    -0.008 C 
ATOM     20  C   UNL     1      33.334 -12.541 -25.044  0.00  0.00    +0.011 C 
ATOM     21  C   UNL     1      34.481 -10.614 -24.147  0.00  0.00    -0.003 C 
ATOM     22  C   UNL     1      33.998 -12.372 -26.259  0.00  0.00    +0.041 C 
ATOM     23  C   UNL     1      35.146 -10.444 -25.362  0.00  0.00    +0.001 C 
ATOM     24  C   UNL     1      34.904 -11.323 -26.418  0.00  0.00    +0.014 C 
BRANCH  22  25
ATOM     25  N   UNL     1      33.755 -13.261 -27.327  0.00  0.00    -0.357 N 
ATOM     26  H   UNL     1      33.596 -14.215 -27.146  0.00  0.00    +0.142 HD
ATOM     27  H   UNL     1      33.745 -12.926 -28.253  0.00  0.00    +0.142 HD
ENDBRANCH  22  25
ENDBRANCH   5  19
TORSDOF 3
ENDMDL
MODEL 7
REMARK VINA RESULT:      -9.6      3.021      5.897
REMARK  Name = 6419789
REMARK  3 active torsions:
REMARK  status: ('A' for Active; 'I' for Inactive)
REMARK    1  A    between atoms: N_4  and  C_13
REMARK    2  A    between atoms: C_5  and  C_19
REMARK    3  A    between atoms: C_22  and  N_25
REMARK                            x       y       z     vdW  Elec       q    Type
REMARK                         _______ _______ _______ _____ _____    ______ ____
ROOT
ATOM      1  N   UNL     1      35.841 -22.134 -18.095  0.00  0.00    -0.164 N 
ATOM      2  N   UNL     1      34.054 -23.242 -16.930  0.00  0.00    -0.374 NA
ATOM      3  N   UNL     1      37.171 -21.881 -17.975  0.00  0.00    -0.174 NA
ATOM      4  N   UNL     1      31.914 -23.236 -17.842  0.00  0.00    -0.288 N 
ATOM      5  C   UNL     1      36.439 -23.092 -16.190  0.00  0.00    +0.134 C 
ATOM      6  C   UNL     1      35.362 -22.873 -17.019  0.00  0.00    +0.194 C 
ATOM      7  C   UNL     1      37.516 -22.463 -16.826  0.00  0.00    +0.104 C 
ATOM      8  C   UNL     1      33.243 -22.878 -17.898  0.00  0.00    +0.186 C 
ATOM      9  C   UNL     1      34.993 -21.744 -19.122  0.00  0.00    +0.096 C 
ATOM     10  C   UNL     1      33.699 -22.077 -19.088  0.00  0.00    +0.066 C 
ATOM     11  H   UNL     1      31.455 -23.367 -18.703  0.00  0.00    +0.155 HD
ENDROOT
BRANCH   4  13
ATOM     12 CL   UNL     1      31.511 -25.331 -13.176  0.00  0.00    -0.082 Cl
ATOM     13  C   UNL     1      31.154 -23.429 -16.693  0.00  0.00    +0.051 C 
ATOM     14  C   UNL     1      31.649 -24.197 -15.626  0.00  0.00    +0.026 C 
ATOM     15  C   UNL     1      29.875 -22.861 -16.577  0.00  0.00    +0.015 C 
ATOM     16  C   UNL     1      30.887 -24.389 -14.474  0.00  0.00    +0.059 C 
ATOM     17  C   UNL     1      29.112 -23.055 -15.425  0.00  0.00    +0.002 C 
ATOM     18  C   UNL     1      29.618 -23.818 -14.373  0.00  0.00    +0.011 C 
ENDBRANCH   4  13
BRANCH   5  19
ATOM     19  C   UNL     1      36.379 -23.820 -14.958  0.00  0.00    -0.008 C 
ATOM     20  C   UNL     1      36.860 -25.129 -14.891  0.00  0.00    +0.011 C 
ATOM     21  C   UNL     1      35.837 -23.223 -13.818  0.00  0.00    -0.003 C 
ATOM     22  C   UNL     1      36.800 -25.838 -13.691  0.00  0.00    +0.041 C 
ATOM     23  C   UNL     1      35.776 -23.931 -12.617  0.00  0.00    +0.001 C 
ATOM     24  C   UNL     1      36.257 -25.239 -12.554  0.00  0.00    +0.014 C 
BRANCH  22  25
ATOM     25  N   UNL     1      37.286 -27.161 -13.627  0.00  0.00    -0.357 N 
ATOM     26  H   UNL     1      38.255 -27.326 -13.577  0.00  0.00    +0.142 HD
ATOM     27  H   UNL     1      36.656 -27.917 -13.632  0.00  0.00    +0.142 HD
ENDBRANCH  22  25
ENDBRANCH   5  19
TORSDOF 3
ENDMDL
MODEL 8
REMARK VINA RESULT:      -9.5     12.438     15.787
REMARK  Name = 6419789
REMARK  3 active torsions:
REMARK  status: ('A' for Active; 'I' for Inactive)
REMARK    1  A    between atoms: N_4  and  C_13
REMARK    2  A    between atoms: C_5  and  C_19
REMARK    3  A    between atoms: C_22  and  N_25
REMARK                            x       y       z     vdW  Elec       q    Type
REMARK                         _______ _______ _______ _____ _____    ______ ____
ROOT
ATOM      1  N   UNL     1      31.836 -11.140 -20.913  0.00  0.00    -0.164 N 
ATOM      2  N   UNL     1      32.800  -9.301 -22.125  0.00  0.00    -0.374 NA
ATOM      3  N   UNL     1      31.684 -12.487 -21.002  0.00  0.00    -0.174 NA
ATOM      4  N   UNL     1      32.637  -7.147 -21.260  0.00  0.00    -0.288 N 
ATOM      5  C   UNL     1      32.826 -11.706 -22.811  0.00  0.00    +0.134 C 
ATOM      6  C   UNL     1      32.531 -10.631 -22.005  0.00  0.00    +0.194 C 
ATOM      7  C   UNL     1      32.284 -12.813 -22.147  0.00  0.00    +0.104 C 
ATOM      8  C   UNL     1      32.381  -8.498 -21.173  0.00  0.00    +0.186 C 
ATOM      9  C   UNL     1      31.389 -10.300 -19.902  0.00  0.00    +0.096 C 
ATOM     10  C   UNL     1      31.624  -8.986 -19.967  0.00  0.00    +0.066 C 
ATOM     11  H   UNL     1      32.738  -6.660 -20.410  0.00  0.00    +0.155 HD
ENDROOT
BRANCH   4  13
ATOM     12 CL   UNL     1      30.929  -3.299 -24.193  0.00  0.00    -0.082 Cl
ATOM     13  C   UNL     1      32.766  -6.401 -22.427  0.00  0.00    +0.051 C 
ATOM     14  C   UNL     1      31.885  -5.342 -22.703  0.00  0.00    +0.026 C 
ATOM     15  C   UNL     1      33.781  -6.691 -23.353  0.00  0.00    +0.015 C 
ATOM     16  C   UNL     1      32.017  -4.593 -23.872  0.00  0.00    +0.059 C 
ATOM     17  C   UNL     1      33.911  -5.943 -24.523  0.00  0.00    +0.002 C 
ATOM     18  C   UNL     1      33.030  -4.894 -24.783  0.00  0.00    +0.011 C 
ENDBRANCH   4  13
BRANCH   5  19
ATOM     19  C   UNL     1      33.540 -11.619 -24.049  0.00  0.00    -0.008 C 
ATOM     20  C   UNL     1      33.279 -12.527 -25.077  0.00  0.00    +0.011 C 
ATOM     21  C   UNL     1      34.502 -10.623 -24.234  0.00  0.00    -0.003 C 
ATOM     22  C   UNL     1      33.976 -12.441 -26.283  0.00  0.00    +0.041 C 
ATOM     23  C   UNL     1      35.199 -10.536 -25.439  0.00  0.00    +0.001 C 
ATOM     24  C   UNL     1      34.936 -11.445 -26.463  0.00  0.00    +0.014 C 
BRANCH  22  25
ATOM     25  N   UNL     1      33.710 -13.361 -27.319  0.00  0.00    -0.357 N 
ATOM     26  H   UNL     1      32.849 -13.330 -27.794  0.00  0.00    +0.142 HD
ATOM     27  H   UNL     1      34.386 -14.032 -27.565  0.00  0.00    +0.142 HD
ENDBRANCH  22  25
ENDBRANCH   5  19
TORSDOF 3
ENDMDL
MODEL 9
REMARK VINA RESULT:      -9.4     13.565     16.856
REMARK  Name = 6419789
REMARK  3 active torsions:
REMARK  status: ('A' for Active; 'I' for Inactive)
REMARK    1  A    between atoms: N_4  and  C_13
REMARK    2  A    between atoms: C_5  and  C_19
REMARK    3  A    between atoms: C_22  and  N_25
REMARK                            x       y       z     vdW  Elec       q    Type
REMARK                         _______ _______ _______ _____ _____    ______ ____
ROOT
ATOM      1  N   UNL     1      32.085  -8.077 -20.354  0.00  0.00    -0.164 N 
ATOM      2  N   UNL     1      32.579  -8.903 -22.557  0.00  0.00    -0.374 NA
ATOM      3  N   UNL     1      31.960  -6.904 -19.680  0.00  0.00    -0.174 NA
ATOM      4  N   UNL     1      32.599 -11.197 -22.942  0.00  0.00    -0.288 N 
ATOM      5  C   UNL     1      32.486  -6.502 -21.859  0.00  0.00    +0.134 C 
ATOM      6  C   UNL     1      32.406  -7.866 -21.691  0.00  0.00    +0.194 C 
ATOM      7  C   UNL     1      32.204  -5.967 -20.597  0.00  0.00    +0.104 C 
ATOM      8  C   UNL     1      32.434 -10.124 -22.094  0.00  0.00    +0.186 C 
ATOM      9  C   UNL     1      31.930  -9.363 -19.856  0.00  0.00    +0.096 C 
ATOM     10  C   UNL     1      32.088 -10.418 -20.659  0.00  0.00    +0.066 C 
ATOM     11  H   UNL     1      32.076 -12.006 -22.740  0.00  0.00    +0.155 HD
ENDROOT
BRANCH   4  13
ATOM     12 CL   UNL     1      33.796 -13.467 -27.386  0.00  0.00    -0.082 Cl
ATOM     13  C   UNL     1      33.431 -11.254 -24.056  0.00  0.00    +0.051 C 
ATOM     14  C   UNL     1      33.228 -12.221 -25.055  0.00  0.00    +0.026 C 
ATOM     15  C   UNL     1      34.491 -10.346 -24.205  0.00  0.00    +0.015 C 
ATOM     16  C   UNL     1      34.062 -12.276 -26.172  0.00  0.00    +0.059 C 
ATOM     17  C   UNL     1      35.326 -10.402 -25.321  0.00  0.00    +0.002 C 
ATOM     18  C   UNL     1      35.111 -11.367 -26.305  0.00  0.00    +0.011 C 
ENDBRANCH   4  13
BRANCH   5  19
ATOM     19  C   UNL     1      32.797  -5.856 -23.099  0.00  0.00    -0.008 C 
ATOM     20  C   UNL     1      32.037  -4.769 -23.535  0.00  0.00    +0.011 C 
ATOM     21  C   UNL     1      33.863  -6.312 -23.878  0.00  0.00    -0.003 C 
ATOM     22  C   UNL     1      32.340  -4.140 -24.743  0.00  0.00    +0.041 C 
ATOM     23  C   UNL     1      34.167  -5.684 -25.086  0.00  0.00    +0.001 C 
ATOM     24  C   UNL     1      33.406  -4.598 -25.518  0.00  0.00    +0.014 C 
BRANCH  22  25
ATOM     25  N   UNL     1      31.571  -3.042 -25.180  0.00  0.00    -0.357 N 
ATOM     26  H   UNL     1      31.780  -2.606 -26.038  0.00  0.00    +0.142 HD
ATOM     27  H   UNL     1      30.826  -2.712 -24.628  0.00  0.00    +0.142 HD
ENDBRANCH  22  25
ENDBRANCH   5  19
TORSDOF 3
ENDMDL
