MODEL 1
REMARK VINA RESULT:     -12.0      0.000      0.000
REMARK  Name = 25191001
REMARK  7 active torsions:
REMARK  status: ('A' for Active; 'I' for Inactive)
REMARK    1  A    between atoms: C_1  and  N_9
REMARK    2  A    between atoms: C_2  and  O_24
REMARK    3  A    between atoms: N_8  and  C_14
REMARK    4  A    between atoms: C_15  and  C_23
REMARK    5  A    between atoms: O_24  and  C_26
REMARK    6  A    between atoms: C_28  and  C_33
REMARK    7  A    between atoms: N_32  and  C_35
REMARK                            x       y       z     vdW  Elec       q    Type
REMARK                         _______ _______ _______ _____ _____    ______ ____
ROOT
ATOM      1  C   UNL     1      34.929 -16.714 -23.005  0.00  0.00    +0.052 C 
ATOM      2  C   UNL     1      35.562 -19.126 -21.754  0.00  0.00    +0.145 C 
ATOM      3  C   UNL     1      35.270 -16.731 -21.652  0.00  0.00    +0.018 C 
ATOM      4  C   UNL     1      34.904 -17.904 -23.732  0.00  0.00    +0.018 C 
ATOM      5  C   UNL     1      35.587 -17.936 -21.027  0.00  0.00    +0.039 C 
ATOM      6  C   UNL     1      35.221 -19.111 -23.107  0.00  0.00    +0.039 C 
ENDROOT
BRANCH   1   9
ATOM      7  O   UNL     1      34.703 -13.959 -21.873  0.00  0.00    -0.252 OA
ATOM      8  N   UNL     1      34.164 -13.261 -24.044  0.00  0.00    -0.268 N 
ATOM      9  N   UNL     1      34.607 -15.491 -23.639  0.00  0.00    -0.268 N 
ATOM     10  C   UNL     1      34.513 -14.216 -23.058  0.00  0.00    +0.308 C 
ATOM     11  H   UNL     1      34.043 -13.613 -24.956  0.00  0.00    +0.156 HD
ATOM     12  H   UNL     1      34.426 -15.541 -24.605  0.00  0.00    +0.156 HD
BRANCH   8  14
ATOM     13 CL   UNL     1      33.377  -7.435 -23.433  0.00  0.00    -0.082 Cl
ATOM     14  C   UNL     1      33.970 -11.887 -23.895  0.00  0.00    +0.052 C 
ATOM     15  C   UNL     1      32.674 -10.038 -23.037  0.00  0.00    +0.083 C 
ATOM     16  C   UNL     1      32.867 -11.411 -23.186  0.00  0.00    +0.019 C 
ATOM     17  C   UNL     1      34.880 -10.991 -24.455  0.00  0.00    +0.016 C 
ATOM     18  C   UNL     1      33.584  -9.140 -23.597  0.00  0.00    +0.062 C 
ATOM     19  C   UNL     1      34.687  -9.617 -24.307  0.00  0.00    +0.013 C 
BRANCH  15  23
ATOM     20  F   UNL     1      31.794  -8.992 -21.074  0.00  0.00    -0.166 F 
ATOM     21  F   UNL     1      30.740  -8.634 -22.935  0.00  0.00    -0.166 F 
ATOM     22  F   UNL     1      30.617 -10.581 -21.976  0.00  0.00    -0.166 F 
ATOM     23  C   UNL     1      31.480  -9.568 -22.270  0.00  0.00    +0.419 C 
ENDBRANCH  15  23
ENDBRANCH   8  14
ENDBRANCH   1   9
BRANCH   2  24
ATOM     24  O   UNL     1      35.869 -20.304 -21.143  0.00  0.00    -0.453 OA
BRANCH  24  26
ATOM     25  N   UNL     1      32.898 -22.121 -18.832  0.00  0.00    -0.239 NA
ATOM     26  C   UNL     1      34.885 -20.907 -20.378  0.00  0.00    +0.149 C 
ATOM     27  C   UNL     1      35.234 -21.733 -19.315  0.00  0.00    +0.061 C 
ATOM     28  C   UNL     1      34.213 -22.311 -18.579  0.00  0.00    +0.137 C 
ATOM     29  C   UNL     1      33.543 -20.687 -20.669  0.00  0.00    +0.058 C 
ATOM     30  C   UNL     1      32.596 -21.313 -19.873  0.00  0.00    +0.102 C 
BRANCH  28  33
ATOM     31  O   UNL     1      33.841 -24.205 -17.249  0.00  0.00    -0.269 OA
ATOM     32  N   UNL     1      35.612 -22.830 -16.656  0.00  0.00    -0.313 N 
ATOM     33  C   UNL     1      34.519 -23.182 -17.458  0.00  0.00    +0.263 C 
ATOM     34  H   UNL     1      36.104 -22.007 -16.878  0.00  0.00    +0.149 HD
ATOM     35  C   UNL     1      36.055 -23.606 -15.522  0.00  0.00    +0.128 C 
ENDBRANCH  28  33
ENDBRANCH  24  26
ENDBRANCH   2  24
TORSDOF 6
ENDMDL
MODEL 2
REMARK VINA RESULT:     -11.8      3.709      6.253
REMARK  Name = 25191001
REMARK  7 active torsions:
REMARK  status: ('A' for Active; 'I' for Inactive)
REMARK    1  A    between atoms: C_1  and  N_9
REMARK    2  A    between atoms: C_2  and  O_24
REMARK    3  A    between atoms: N_8  and  C_14
REMARK    4  A    between atoms: C_15  and  C_23
REMARK    5  A    between atoms: O_24  and  C_26
REMARK    6  A    between atoms: C_28  and  C_33
REMARK    7  A    between atoms: N_32  and  C_35
REMARK                            x       y       z     vdW  Elec       q    Type
REMARK                         _______ _______ _______ _____ _____    ______ ____
ROOT
ATOM      1  C   UNL     1      35.503 -21.471 -19.457  0.00  0.00    +0.052 C 
ATOM      2  C   UNL     1      34.922 -23.227 -17.369  0.00  0.00    +0.145 C 
ATOM      3  C   UNL     1      36.417 -21.645 -18.417  0.00  0.00    +0.018 C 
ATOM      4  C   UNL     1      34.299 -22.175 -19.453  0.00  0.00    +0.018 C 
ATOM      5  C   UNL     1      36.126 -22.523 -17.373  0.00  0.00    +0.039 C 
ATOM      6  C   UNL     1      34.008 -23.054 -18.408  0.00  0.00    +0.039 C 
ENDROOT
BRANCH   1   9
ATOM      7  O   UNL     1      33.698 -19.685 -21.029  0.00  0.00    -0.252 OA
ATOM      8  N   UNL     1      35.610 -19.018 -22.207  0.00  0.00    -0.268 N 
ATOM      9  N   UNL     1      35.797 -20.579 -20.515  0.00  0.00    -0.268 N 
ATOM     10  C   UNL     1      34.907 -19.757 -21.225  0.00  0.00    +0.308 C 
ATOM     11  H   UNL     1      36.580 -19.179 -22.250  0.00  0.00    +0.156 HD
ATOM     12  H   UNL     1      36.742 -20.528 -20.787  0.00  0.00    +0.156 HD
BRANCH   8  14
ATOM     13 CL   UNL     1      33.493 -15.118 -26.112  0.00  0.00    -0.082 Cl
ATOM     14  C   UNL     1      35.110 -18.091 -23.123  0.00  0.00    +0.052 C 
ATOM     15  C   UNL     1      34.411 -15.839 -23.649  0.00  0.00    +0.083 C 
ATOM     16  C   UNL     1      34.910 -16.766 -22.734  0.00  0.00    +0.019 C 
ATOM     17  C   UNL     1      34.811 -18.489 -24.425  0.00  0.00    +0.016 C 
ATOM     18  C   UNL     1      34.112 -16.236 -24.953  0.00  0.00    +0.062 C 
ATOM     19  C   UNL     1      34.311 -17.563 -25.340  0.00  0.00    +0.013 C 
BRANCH  15  23
ATOM     20  F   UNL     1      34.584 -13.500 -24.122  0.00  0.00    -0.166 F 
ATOM     21  F   UNL     1      32.913 -14.134 -22.893  0.00  0.00    -0.166 F 
ATOM     22  F   UNL     1      34.927 -14.137 -22.071  0.00  0.00    -0.166 F 
ATOM     23  C   UNL     1      34.211 -14.429 -23.194  0.00  0.00    +0.419 C 
ENDBRANCH  15  23
ENDBRANCH   8  14
ENDBRANCH   1   9
BRANCH   2  24
ATOM     24  O   UNL     1      34.638 -24.083 -16.349  0.00  0.00    -0.453 OA
BRANCH  24  26
ATOM     25  N   UNL     1      31.153 -23.393 -14.145  0.00  0.00    -0.239 NA
ATOM     26  C   UNL     1      33.483 -23.853 -15.620  0.00  0.00    +0.149 C 
ATOM     27  C   UNL     1      32.299 -23.525 -16.270  0.00  0.00    +0.061 C 
ATOM     28  C   UNL     1      31.172 -23.307 -15.495  0.00  0.00    +0.137 C 
ATOM     29  C   UNL     1      33.504 -23.952 -14.233  0.00  0.00    +0.058 C 
ATOM     30  C   UNL     1      32.323 -23.714 -13.548  0.00  0.00    +0.102 C 
BRANCH  28  33
ATOM     31  O   UNL     1      29.864 -22.641 -17.323  0.00  0.00    -0.269 OA
ATOM     32  N   UNL     1      28.760 -23.029 -15.321  0.00  0.00    -0.313 N 
ATOM     33  C   UNL     1      29.907 -22.961 -16.121  0.00  0.00    +0.263 C 
ATOM     34  H   UNL     1      28.866 -23.289 -14.377  0.00  0.00    +0.149 HD
ATOM     35  C   UNL     1      27.430 -22.739 -15.803  0.00  0.00    +0.128 C 
ENDBRANCH  28  33
ENDBRANCH  24  26
ENDBRANCH   2  24
TORSDOF 6
ENDMDL
MODEL 3
REMARK VINA RESULT:     -11.8      6.282     11.176
REMARK  Name = 25191001
REMARK  7 active torsions:
REMARK  status: ('A' for Active; 'I' for Inactive)
REMARK    1  A    between atoms: C_1  and  N_9
REMARK    2  A    between atoms: C_2  and  O_24
REMARK    3  A    between atoms: N_8  and  C_14
REMARK    4  A    between atoms: C_15  and  C_23
REMARK    5  A    between atoms: O_24  and  C_26
REMARK    6  A    between atoms: C_28  and  C_33
REMARK    7  A    between atoms: N_32  and  C_35
REMARK                            x       y       z     vdW  Elec       q    Type
REMARK                         _______ _______ _______ _____ _____    ______ ____
ROOT
ATOM      1  C   UNL     1      34.984 -18.945 -23.228  0.00  0.00    +0.052 C 
ATOM      2  C   UNL     1      34.125 -17.276 -25.292  0.00  0.00    +0.145 C 
ATOM      3  C   UNL     1      35.352 -17.599 -23.237  0.00  0.00    +0.018 C 
ATOM      4  C   UNL     1      34.187 -19.456 -24.252  0.00  0.00    +0.018 C 
ATOM      5  C   UNL     1      34.922 -16.765 -24.268  0.00  0.00    +0.039 C 
ATOM      6  C   UNL     1      33.757 -18.622 -25.285  0.00  0.00    +0.039 C 
ENDROOT
BRANCH   1   9
ATOM      7  O   UNL     1      33.461 -20.146 -20.957  0.00  0.00    -0.252 OA
ATOM      8  N   UNL     1      35.485 -21.127 -20.300  0.00  0.00    -0.268 N 
ATOM      9  N   UNL     1      35.422 -19.791 -22.182  0.00  0.00    -0.268 N 
ATOM     10  C   UNL     1      34.662 -20.331 -21.133  0.00  0.00    +0.308 C 
ATOM     11  H   UNL     1      36.431 -21.185 -20.564  0.00  0.00    +0.156 HD
ATOM     12  H   UNL     1      36.376 -20.030 -22.192  0.00  0.00    +0.156 HD
BRANCH   8  14
ATOM     13 CL   UNL     1      33.956 -24.155 -15.459  0.00  0.00    -0.082 Cl
ATOM     14  C   UNL     1      35.132 -21.841 -19.154  0.00  0.00    +0.052 C 
ATOM     15  C   UNL     1      35.721 -22.763 -17.000  0.00  0.00    +0.083 C 
ATOM     16  C   UNL     1      36.073 -22.049 -18.145  0.00  0.00    +0.019 C 
ATOM     17  C   UNL     1      33.839 -22.346 -19.017  0.00  0.00    +0.016 C 
ATOM     18  C   UNL     1      34.428 -23.268 -16.862  0.00  0.00    +0.062 C 
ATOM     19  C   UNL     1      33.487 -23.059 -17.872  0.00  0.00    +0.013 C 
BRANCH  15  23
ATOM     20  F   UNL     1      36.388 -22.486 -14.719  0.00  0.00    -0.166 F 
ATOM     21  F   UNL     1      37.073 -24.276 -15.733  0.00  0.00    -0.166 F 
ATOM     22  F   UNL     1      37.934 -22.345 -16.240  0.00  0.00    -0.166 F 
ATOM     23  C   UNL     1      36.758 -22.964 -15.942  0.00  0.00    +0.419 C 
ENDBRANCH  15  23
ENDBRANCH   8  14
ENDBRANCH   1   9
BRANCH   2  24
ATOM     24  O   UNL     1      33.707 -16.462 -26.301  0.00  0.00    -0.453 OA
BRANCH  24  26
ATOM     25  N   UNL     1      33.397 -12.372 -25.498  0.00  0.00    -0.239 NA
ATOM     26  C   UNL     1      33.603 -15.108 -26.034  0.00  0.00    +0.149 C 
ATOM     27  C   UNL     1      33.334 -14.668 -24.743  0.00  0.00    +0.061 C 
ATOM     28  C   UNL     1      33.242 -13.302 -24.528  0.00  0.00    +0.137 C 
ATOM     29  C   UNL     1      33.770 -14.182 -27.058  0.00  0.00    +0.058 C 
ATOM     30  C   UNL     1      33.658 -12.837 -26.741  0.00  0.00    +0.102 C 
BRANCH  28  33
ATOM     31  O   UNL     1      32.980 -11.560 -22.981  0.00  0.00    -0.269 OA
ATOM     32  N   UNL     1      32.654 -13.721 -22.204  0.00  0.00    -0.313 N 
ATOM     33  C   UNL     1      32.962 -12.786 -23.200  0.00  0.00    +0.263 C 
ATOM     34  H   UNL     1      32.659 -14.675 -22.446  0.00  0.00    +0.149 HD
ATOM     35  C   UNL     1      32.331 -13.363 -20.843  0.00  0.00    +0.128 C 
ENDBRANCH  28  33
ENDBRANCH  24  26
ENDBRANCH   2  24
TORSDOF 6
ENDMDL
MODEL 4
REMARK VINA RESULT:     -11.7      1.532      2.177
REMARK  Name = 25191001
REMARK  7 active torsions:
REMARK  status: ('A' for Active; 'I' for Inactive)
REMARK    1  A    between atoms: C_1  and  N_9
REMARK    2  A    between atoms: C_2  and  O_24
REMARK    3  A    between atoms: N_8  and  C_14
REMARK    4  A    between atoms: C_15  and  C_23
REMARK    5  A    between atoms: O_24  and  C_26
REMARK    6  A    between atoms: C_28  and  C_33
REMARK    7  A    between atoms: N_32  and  C_35
REMARK                            x       y       z     vdW  Elec       q    Type
REMARK                         _______ _______ _______ _____ _____    ______ ____
ROOT
ATOM      1  C   UNL     1      34.886 -16.136 -23.016  0.00  0.00    +0.052 C 
ATOM      2  C   UNL     1      35.480 -18.719 -22.144  0.00  0.00    +0.145 C 
ATOM      3  C   UNL     1      34.853 -17.201 -23.916  0.00  0.00    +0.018 C 
ATOM      4  C   UNL     1      35.216 -16.362 -21.680  0.00  0.00    +0.018 C 
ATOM      5  C   UNL     1      35.149 -18.492 -23.480  0.00  0.00    +0.039 C 
ATOM      6  C   UNL     1      35.513 -17.654 -21.243  0.00  0.00    +0.039 C 
ENDROOT
BRANCH   1   9
ATOM      7  O   UNL     1      33.575 -13.869 -21.580  0.00  0.00    -0.252 OA
ATOM      8  N   UNL     1      33.853 -12.638 -23.554  0.00  0.00    -0.268 N 
ATOM      9  N   UNL     1      34.586 -14.826 -23.459  0.00  0.00    -0.268 N 
ATOM     10  C   UNL     1      33.965 -13.792 -22.741  0.00  0.00    +0.308 C 
ATOM     11  H   UNL     1      34.211 -12.723 -24.467  0.00  0.00    +0.156 HD
ATOM     12  H   UNL     1      34.845 -14.614 -24.385  0.00  0.00    +0.156 HD
BRANCH   8  14
ATOM     13 CL   UNL     1      31.493  -7.398 -22.176  0.00  0.00    -0.082 Cl
ATOM     14  C   UNL     1      33.303 -11.397 -23.233  0.00  0.00    +0.052 C 
ATOM     15  C   UNL     1      33.390  -8.984 -23.321  0.00  0.00    +0.083 C 
ATOM     16  C   UNL     1      33.940 -10.225 -23.642  0.00  0.00    +0.019 C 
ATOM     17  C   UNL     1      32.116 -11.328 -22.503  0.00  0.00    +0.016 C 
ATOM     18  C   UNL     1      32.203  -8.914 -22.591  0.00  0.00    +0.062 C 
ATOM     19  C   UNL     1      31.566 -10.087 -22.182  0.00  0.00    +0.013 C 
BRANCH  15  23
ATOM     20  F   UNL     1      34.855  -7.942 -24.900  0.00  0.00    -0.166 F 
ATOM     21  F   UNL     1      33.263  -6.719 -24.080  0.00  0.00    -0.166 F 
ATOM     22  F   UNL     1      34.961  -7.267 -22.836  0.00  0.00    -0.166 F 
ATOM     23  C   UNL     1      34.102  -7.752 -23.778  0.00  0.00    +0.419 C 
ENDBRANCH  15  23
ENDBRANCH   8  14
ENDBRANCH   1   9
BRANCH   2  24
ATOM     24  O   UNL     1      35.772 -19.978 -21.718  0.00  0.00    -0.453 OA
BRANCH  24  26
ATOM     25  N   UNL     1      33.064 -21.824 -19.123  0.00  0.00    -0.239 NA
ATOM     26  C   UNL     1      34.876 -20.591 -20.859  0.00  0.00    +0.149 C 
ATOM     27  C   UNL     1      35.339 -21.377 -19.810  0.00  0.00    +0.061 C 
ATOM     28  C   UNL     1      34.401 -21.967 -18.978  0.00  0.00    +0.137 C 
ATOM     29  C   UNL     1      33.508 -20.420 -21.041  0.00  0.00    +0.058 C 
ATOM     30  C   UNL     1      32.651 -21.052 -20.154  0.00  0.00    +0.102 C 
BRANCH  28  33
ATOM     31  O   UNL     1      34.174 -23.809 -17.545  0.00  0.00    -0.269 OA
ATOM     32  N   UNL     1      36.004 -22.425 -17.204  0.00  0.00    -0.313 N 
ATOM     33  C   UNL     1      34.828 -22.799 -17.866  0.00  0.00    +0.263 C 
ATOM     34  H   UNL     1      36.471 -21.615 -17.510  0.00  0.00    +0.149 HD
ATOM     35  C   UNL     1      36.568 -23.163 -16.098  0.00  0.00    +0.128 C 
ENDBRANCH  28  33
ENDBRANCH  24  26
ENDBRANCH   2  24
TORSDOF 6
ENDMDL
MODEL 5
REMARK VINA RESULT:     -11.7      2.294      3.497
REMARK  Name = 25191001
REMARK  7 active torsions:
REMARK  status: ('A' for Active; 'I' for Inactive)
REMARK    1  A    between atoms: C_1  and  N_9
REMARK    2  A    between atoms: C_2  and  O_24
REMARK    3  A    between atoms: N_8  and  C_14
REMARK    4  A    between atoms: C_15  and  C_23
REMARK    5  A    between atoms: O_24  and  C_26
REMARK    6  A    between atoms: C_28  and  C_33
REMARK    7  A    between atoms: N_32  and  C_35
REMARK                            x       y       z     vdW  Elec       q    Type
REMARK                         _______ _______ _______ _____ _____    ______ ____
ROOT
ATOM      1  C   UNL     1      33.807 -14.008 -23.234  0.00  0.00    +0.052 C 
ATOM      2  C   UNL     1      34.758 -16.603 -23.616  0.00  0.00    +0.145 C 
ATOM      3  C   UNL     1      34.553 -14.632 -22.234  0.00  0.00    +0.018 C 
ATOM      4  C   UNL     1      33.536 -14.681 -24.425  0.00  0.00    +0.018 C 
ATOM      5  C   UNL     1      35.029 -15.929 -22.425  0.00  0.00    +0.039 C 
ATOM      6  C   UNL     1      34.012 -15.979 -24.617  0.00  0.00    +0.039 C 
ENDROOT
BRANCH   1   9
ATOM      7  O   UNL     1      34.701 -11.427 -24.444  0.00  0.00    -0.252 OA
ATOM      8  N   UNL     1      33.023 -10.406 -23.166  0.00  0.00    -0.268 N 
ATOM      9  N   UNL     1      33.324 -12.693 -23.039  0.00  0.00    -0.268 N 
ATOM     10  C   UNL     1      33.781 -11.507 -23.635  0.00  0.00    +0.308 C 
ATOM     11  H   UNL     1      32.315 -10.621 -22.517  0.00  0.00    +0.156 HD
ATOM     12  H   UNL     1      32.575 -12.598 -22.407  0.00  0.00    +0.156 HD
BRANCH   8  14
ATOM     13 CL   UNL     1      33.581  -4.701 -24.604  0.00  0.00    -0.082 Cl
ATOM     14  C   UNL     1      33.147  -9.057 -23.502  0.00  0.00    +0.052 C 
ATOM     15  C   UNL     1      32.257  -6.812 -23.502  0.00  0.00    +0.083 C 
ATOM     16  C   UNL     1      32.133  -8.160 -23.166  0.00  0.00    +0.019 C 
ATOM     17  C   UNL     1      34.283  -8.608 -24.173  0.00  0.00    +0.016 C 
ATOM     18  C   UNL     1      33.394  -6.361 -24.173  0.00  0.00    +0.062 C 
ATOM     19  C   UNL     1      34.407  -7.260 -24.509  0.00  0.00    +0.013 C 
BRANCH  15  23
ATOM     20  F   UNL     1      31.514  -4.949 -22.196  0.00  0.00    -0.166 F 
ATOM     21  F   UNL     1      30.657  -5.166 -24.177  0.00  0.00    -0.166 F 
ATOM     22  F   UNL     1      30.079  -6.535 -22.589  0.00  0.00    -0.166 F 
ATOM     23  C   UNL     1      31.149  -5.881 -23.124  0.00  0.00    +0.419 C 
ENDBRANCH  15  23
ENDBRANCH   8  14
ENDBRANCH   1   9
BRANCH   2  24
ATOM     24  O   UNL     1      35.220 -17.870 -23.802  0.00  0.00    -0.453 OA
BRANCH  24  26
ATOM     25  N   UNL     1      36.084 -20.146 -20.404  0.00  0.00    -0.239 NA
ATOM     26  C   UNL     1      35.505 -18.623 -22.676  0.00  0.00    +0.149 C 
ATOM     27  C   UNL     1      34.510 -19.386 -22.075  0.00  0.00    +0.061 C 
ATOM     28  C   UNL     1      34.847 -20.123 -20.952  0.00  0.00    +0.137 C 
ATOM     29  C   UNL     1      36.789 -18.621 -22.143  0.00  0.00    +0.058 C 
ATOM     30  C   UNL     1      37.025 -19.392 -21.016  0.00  0.00    +0.102 C 
BRANCH  28  33
ATOM     31  O   UNL     1      32.649 -20.866 -20.612  0.00  0.00    -0.269 OA
ATOM     32  N   UNL     1      34.300 -21.810 -19.285  0.00  0.00    -0.313 N 
ATOM     33  C   UNL     1      33.848 -20.938 -20.283  0.00  0.00    +0.263 C 
ATOM     34  H   UNL     1      35.261 -21.817 -19.074  0.00  0.00    +0.149 HD
ATOM     35  C   UNL     1      33.434 -22.700 -18.547  0.00  0.00    +0.128 C 
ENDBRANCH  28  33
ENDBRANCH  24  26
ENDBRANCH   2  24
TORSDOF 6
ENDMDL
MODEL 6
REMARK VINA RESULT:     -11.6      7.303     12.817
REMARK  Name = 25191001
REMARK  7 active torsions:
REMARK  status: ('A' for Active; 'I' for Inactive)
REMARK    1  A    between atoms: C_1  and  N_9
REMARK    2  A    between atoms: C_2  and  O_24
REMARK    3  A    between atoms: N_8  and  C_14
REMARK    4  A    between atoms: C_15  and  C_23
REMARK    5  A    between atoms: O_24  and  C_26
REMARK    6  A    between atoms: C_28  and  C_33
REMARK    7  A    between atoms: N_32  and  C_35
REMARK                            x       y       z     vdW  Elec       q    Type
REMARK                         _______ _______ _______ _____ _____    ______ ____
ROOT
ATOM      1  C   UNL     1      35.319 -21.370 -19.656  0.00  0.00    +0.052 C 
ATOM      2  C   UNL     1      35.657 -19.394 -21.596  0.00  0.00    +0.145 C 
ATOM      3  C   UNL     1      34.215 -20.881 -20.353  0.00  0.00    +0.018 C 
ATOM      4  C   UNL     1      36.593 -20.871 -19.929  0.00  0.00    +0.018 C 
ATOM      5  C   UNL     1      34.383 -19.893 -21.323  0.00  0.00    +0.039 C 
ATOM      6  C   UNL     1      36.762 -19.882 -20.899  0.00  0.00    +0.039 C 
ENDROOT
BRANCH   1   9
ATOM      7  O   UNL     1      36.318 -21.497 -16.844  0.00  0.00    -0.252 OA
ATOM      8  N   UNL     1      35.242 -23.573 -16.701  0.00  0.00    -0.268 N 
ATOM      9  N   UNL     1      35.148 -22.371 -18.671  0.00  0.00    -0.268 N 
ATOM     10  C   UNL     1      35.641 -22.383 -17.357  0.00  0.00    +0.308 C 
ATOM     11  H   UNL     1      34.699 -24.195 -17.238  0.00  0.00    +0.156 HD
ATOM     12  H   UNL     1      34.618 -23.155 -18.941  0.00  0.00    +0.156 HD
BRANCH   8  14
ATOM     13 CL   UNL     1      36.359 -25.294 -11.158  0.00  0.00    -0.082 Cl
ATOM     14  C   UNL     1      35.514 -23.981 -15.395  0.00  0.00    +0.052 C 
ATOM     15  C   UNL     1      37.072 -24.807 -13.743  0.00  0.00    +0.083 C 
ATOM     16  C   UNL     1      36.800 -24.399 -15.049  0.00  0.00    +0.019 C 
ATOM     17  C   UNL     1      34.502 -23.972 -14.436  0.00  0.00    +0.016 C 
ATOM     18  C   UNL     1      36.060 -24.797 -12.783  0.00  0.00    +0.062 C 
ATOM     19  C   UNL     1      34.774 -24.379 -13.130  0.00  0.00    +0.013 C 
BRANCH  15  23
ATOM     20  F   UNL     1      38.538 -26.545 -12.999  0.00  0.00    -0.166 F 
ATOM     21  F   UNL     1      39.326 -25.153 -14.464  0.00  0.00    -0.166 F 
ATOM     22  F   UNL     1      39.018 -24.507 -12.411  0.00  0.00    -0.166 F 
ATOM     23  C   UNL     1      38.462 -25.246 -13.412  0.00  0.00    +0.419 C 
ENDBRANCH  15  23
ENDBRANCH   8  14
ENDBRANCH   1   9
BRANCH   2  24
ATOM     24  O   UNL     1      35.822 -18.428 -22.541  0.00  0.00    -0.453 OA
BRANCH  24  26
ATOM     25  N   UNL     1      34.354 -14.608 -21.687  0.00  0.00    -0.239 NA
ATOM     26  C   UNL     1      35.336 -17.162 -22.259  0.00  0.00    +0.149 C 
ATOM     27  C   UNL     1      34.914 -16.330 -23.290  0.00  0.00    +0.061 C 
ATOM     28  C   UNL     1      34.435 -15.074 -22.955  0.00  0.00    +0.137 C 
ATOM     29  C   UNL     1      35.268 -16.719 -20.943  0.00  0.00    +0.058 C 
ATOM     30  C   UNL     1      34.774 -15.445 -20.712  0.00  0.00    +0.102 C 
BRANCH  28  33
ATOM     31  O   UNL     1      33.357 -14.590 -24.980  0.00  0.00    -0.269 OA
ATOM     32  N   UNL     1      34.252 -12.801 -23.806  0.00  0.00    -0.313 N 
ATOM     33  C   UNL     1      33.980 -14.162 -23.990  0.00  0.00    +0.263 C 
ATOM     34  H   UNL     1      34.749 -12.532 -23.001  0.00  0.00    +0.149 HD
ATOM     35  C   UNL     1      33.844 -11.771 -24.733  0.00  0.00    +0.128 C 
ENDBRANCH  28  33
ENDBRANCH  24  26
ENDBRANCH   2  24
TORSDOF 6
ENDMDL
MODEL 7
REMARK VINA RESULT:     -11.5      3.939      6.745
REMARK  Name = 25191001
REMARK  7 active torsions:
REMARK  status: ('A' for Active; 'I' for Inactive)
REMARK    1  A    between atoms: C_1  and  N_9
REMARK    2  A    between atoms: C_2  and  O_24
REMARK    3  A    between atoms: N_8  and  C_14
REMARK    4  A    between atoms: C_15  and  C_23
REMARK    5  A    between atoms: O_24  and  C_26
REMARK    6  A    between atoms: C_28  and  C_33
REMARK    7  A    between atoms: N_32  and  C_35
REMARK                            x       y       z     vdW  Elec       q    Type
REMARK                         _______ _______ _______ _____ _____    ______ ____
ROOT
ATOM      1  C   UNL     1      35.091 -21.823 -19.085  0.00  0.00    +0.052 C 
ATOM      2  C   UNL     1      34.343 -23.439 -16.937  0.00  0.00    +0.145 C 
ATOM      3  C   UNL     1      33.843 -22.447 -19.082  0.00  0.00    +0.018 C 
ATOM      4  C   UNL     1      35.965 -22.008 -18.013  0.00  0.00    +0.018 C 
ATOM      5  C   UNL     1      33.469 -23.255 -18.008  0.00  0.00    +0.039 C 
ATOM      6  C   UNL     1      35.591 -22.816 -16.939  0.00  0.00    +0.039 C 
ENDROOT
BRANCH   1   9
ATOM      7  O   UNL     1      33.453 -19.984 -20.775  0.00  0.00    -0.252 OA
ATOM      8  N   UNL     1      35.432 -19.515 -21.939  0.00  0.00    -0.268 N 
ATOM      9  N   UNL     1      35.470 -21.005 -20.175  0.00  0.00    -0.268 N 
ATOM     10  C   UNL     1      34.658 -20.154 -20.940  0.00  0.00    +0.308 C 
ATOM     11  H   UNL     1      36.388 -19.749 -21.953  0.00  0.00    +0.156 HD
ATOM     12  H   UNL     1      36.421 -21.037 -20.427  0.00  0.00    +0.156 HD
BRANCH   8  14
ATOM     13 CL   UNL     1      33.686 -15.656 -26.061  0.00  0.00    -0.082 Cl
ATOM     14  C   UNL     1      35.020 -18.597 -22.906  0.00  0.00    +0.052 C 
ATOM     15  C   UNL     1      34.497 -16.328 -23.548  0.00  0.00    +0.083 C 
ATOM     16  C   UNL     1      34.909 -17.245 -22.581  0.00  0.00    +0.019 C 
ATOM     17  C   UNL     1      34.721 -19.032 -24.197  0.00  0.00    +0.016 C 
ATOM     18  C   UNL     1      34.198 -16.762 -24.840  0.00  0.00    +0.062 C 
ATOM     19  C   UNL     1      34.309 -18.115 -25.164  0.00  0.00    +0.013 C 
BRANCH  15  23
ATOM     20  F   UNL     1      35.038 -14.588 -21.998  0.00  0.00    -0.166 F 
ATOM     21  F   UNL     1      34.909 -14.035 -24.091  0.00  0.00    -0.166 F 
ATOM     22  F   UNL     1      33.099 -14.492 -22.976  0.00  0.00    -0.166 F 
ATOM     23  C   UNL     1      34.390 -14.888 -23.161  0.00  0.00    +0.419 C 
ENDBRANCH  15  23
ENDBRANCH   8  14
ENDBRANCH   1   9
BRANCH   2  24
ATOM     24  O   UNL     1      33.980 -24.229 -15.890  0.00  0.00    -0.453 OA
BRANCH  24  26
ATOM     25  N   UNL     1      36.883 -25.089 -13.008  0.00  0.00    -0.239 NA
ATOM     26  C   UNL     1      34.941 -24.516 -14.936  0.00  0.00    +0.149 C 
ATOM     27  C   UNL     1      36.084 -25.226 -15.286  0.00  0.00    +0.061 C 
ATOM     28  C   UNL     1      37.017 -25.485 -14.294  0.00  0.00    +0.137 C 
ATOM     29  C   UNL     1      34.768 -24.092 -13.623  0.00  0.00    +0.058 C 
ATOM     30  C   UNL     1      35.758 -24.402 -12.704  0.00  0.00    +0.102 C 
BRANCH  28  33
ATOM     31  O   UNL     1      38.222 -27.467 -14.630  0.00  0.00    -0.269 OA
ATOM     32  N   UNL     1      39.377 -25.472 -14.888  0.00  0.00    -0.313 N 
ATOM     33  C   UNL     1      38.229 -26.222 -14.603  0.00  0.00    +0.263 C 
ATOM     34  H   UNL     1      39.312 -24.491 -14.848  0.00  0.00    +0.149 HD
ATOM     35  C   UNL     1      40.650 -26.059 -15.235  0.00  0.00    +0.128 C 
ENDBRANCH  28  33
ENDBRANCH  24  26
ENDBRANCH   2  24
TORSDOF 6
ENDMDL
MODEL 8
REMARK VINA RESULT:     -11.4      5.911     12.798
REMARK  Name = 25191001
REMARK  7 active torsions:
REMARK  status: ('A' for Active; 'I' for Inactive)
REMARK    1  A    between atoms: C_1  and  N_9
REMARK    2  A    between atoms: C_2  and  O_24
REMARK    3  A    between atoms: N_8  and  C_14
REMARK    4  A    between atoms: C_15  and  C_23
REMARK    5  A    between atoms: O_24  and  C_26
REMARK    6  A    between atoms: C_28  and  C_33
REMARK    7  A    between atoms: N_32  and  C_35
REMARK                            x       y       z     vdW  Elec       q    Type
REMARK                         _______ _______ _______ _____ _____    ______ ____
ROOT
ATOM      1  C   UNL     1      33.462 -10.691 -23.795  0.00  0.00    +0.052 C 
ATOM      2  C   UNL     1      33.472  -8.203 -22.532  0.00  0.00    +0.145 C 
ATOM      3  C   UNL     1      32.455 -10.365 -22.886  0.00  0.00    +0.018 C 
ATOM      4  C   UNL     1      34.474  -9.772 -24.072  0.00  0.00    +0.018 C 
ATOM      5  C   UNL     1      32.460  -9.122 -22.255  0.00  0.00    +0.039 C 
ATOM      6  C   UNL     1      34.480  -8.527 -23.441  0.00  0.00    +0.039 C 
ENDROOT
BRANCH   1   9
ATOM      7  O   UNL     1      34.227 -13.382 -22.749  0.00  0.00    -0.252 OA
ATOM      8  N   UNL     1      33.678 -14.210 -24.871  0.00  0.00    -0.268 N 
ATOM      9  N   UNL     1      33.457 -11.953 -24.434  0.00  0.00    -0.268 N 
ATOM     10  C   UNL     1      33.829 -13.195 -23.895  0.00  0.00    +0.308 C 
ATOM     11  H   UNL     1      33.347 -13.912 -25.749  0.00  0.00    +0.156 HD
ATOM     12  H   UNL     1      33.157 -11.961 -25.371  0.00  0.00    +0.156 HD
BRANCH   8  14
ATOM     13 CL   UNL     1      34.741 -20.005 -24.404  0.00  0.00    -0.082 Cl
ATOM     14  C   UNL     1      33.933 -15.577 -24.753  0.00  0.00    +0.052 C 
ATOM     15  C   UNL     1      34.864 -17.432 -23.517  0.00  0.00    +0.083 C 
ATOM     16  C   UNL     1      34.609 -16.066 -23.634  0.00  0.00    +0.019 C 
ATOM     17  C   UNL     1      33.512 -16.453 -25.752  0.00  0.00    +0.016 C 
ATOM     18  C   UNL     1      34.444 -18.310 -24.516  0.00  0.00    +0.062 C 
ATOM     19  C   UNL     1      33.767 -17.820 -25.634  0.00  0.00    +0.013 C 
BRANCH  15  23
ATOM     20  F   UNL     1      34.968 -18.953 -21.672  0.00  0.00    -0.166 F 
ATOM     21  F   UNL     1      36.853 -18.364 -22.568  0.00  0.00    -0.166 F 
ATOM     22  F   UNL     1      35.736 -16.943 -21.359  0.00  0.00    -0.166 F 
ATOM     23  C   UNL     1      35.591 -17.916 -22.303  0.00  0.00    +0.419 C 
ENDBRANCH  15  23
ENDBRANCH   8  14
ENDBRANCH   1   9
BRANCH   2  24
ATOM     24  O   UNL     1      33.479  -6.990 -21.915  0.00  0.00    -0.453 OA
BRANCH  24  26
ATOM     25  N   UNL     1      30.583  -4.207 -23.073  0.00  0.00    -0.239 NA
ATOM     26  C   UNL     1      32.520  -6.067 -22.298  0.00  0.00    +0.149 C 
ATOM     27  C   UNL     1      32.694  -5.321 -23.458  0.00  0.00    +0.061 C 
ATOM     28  C   UNL     1      31.705  -4.412 -23.799  0.00  0.00    +0.137 C 
ATOM     29  C   UNL     1      31.379  -5.885 -21.525  0.00  0.00    +0.058 C 
ATOM     30  C   UNL     1      30.449  -4.951 -21.951  0.00  0.00    +0.102 C 
BRANCH  28  33
ATOM     31  O   UNL     1      31.109  -2.606 -25.171  0.00  0.00    -0.269 OA
ATOM     32  N   UNL     1      32.812  -3.989 -25.925  0.00  0.00    -0.313 N 
ATOM     33  C   UNL     1      31.833  -3.605 -25.000  0.00  0.00    +0.263 C 
ATOM     34  H   UNL     1      33.349  -4.790 -25.728  0.00  0.00    +0.149 HD
ATOM     35  C   UNL     1      33.076  -3.276 -27.153  0.00  0.00    +0.128 C 
ENDBRANCH  28  33
ENDBRANCH  24  26
ENDBRANCH   2  24
TORSDOF 6
ENDMDL
MODEL 9
REMARK VINA RESULT:     -11.4      6.875     12.462
REMARK  Name = 25191001
REMARK  7 active torsions:
REMARK  status: ('A' for Active; 'I' for Inactive)
REMARK    1  A    between atoms: C_1  and  N_9
REMARK    2  A    between atoms: C_2  and  O_24
REMARK    3  A    between atoms: N_8  and  C_14
REMARK    4  A    between atoms: C_15  and  C_23
REMARK    5  A    between atoms: O_24  and  C_26
REMARK    6  A    between atoms: C_28  and  C_33
REMARK    7  A    between atoms: N_32  and  C_35
REMARK                            x       y       z     vdW  Elec       q    Type
REMARK                         _______ _______ _______ _____ _____    ______ ____
ROOT
ATOM      1  C   UNL     1      35.743 -20.995 -19.860  0.00  0.00    +0.052 C 
ATOM      2  C   UNL     1      35.732 -19.012 -21.822  0.00  0.00    +0.145 C 
ATOM      3  C   UNL     1      36.912 -20.290 -20.146  0.00  0.00    +0.018 C 
ATOM      4  C   UNL     1      34.568 -20.708 -20.555  0.00  0.00    +0.018 C 
ATOM      5  C   UNL     1      36.907 -19.298 -21.127  0.00  0.00    +0.039 C 
ATOM      6  C   UNL     1      34.562 -19.716 -21.537  0.00  0.00    +0.039 C 
ENDROOT
BRANCH   1   9
ATOM      7  O   UNL     1      37.175 -21.108 -17.241  0.00  0.00    -0.252 OA
ATOM      8  N   UNL     1      36.177 -23.207 -16.943  0.00  0.00    -0.268 N 
ATOM      9  N   UNL     1      35.750 -22.002 -18.866  0.00  0.00    -0.268 N 
ATOM     10  C   UNL     1      36.444 -22.006 -17.646  0.00  0.00    +0.308 C 
ATOM     11  H   UNL     1      35.570 -23.838 -17.391  0.00  0.00    +0.156 HD
ATOM     12  H   UNL     1      35.200 -22.796 -19.053  0.00  0.00    +0.156 HD
BRANCH   8  14
ATOM     13 CL   UNL     1      38.261 -24.932 -11.688  0.00  0.00    -0.082 Cl
ATOM     14  C   UNL     1      36.661 -23.613 -15.698  0.00  0.00    +0.052 C 
ATOM     15  C   UNL     1      36.280 -24.097 -13.362  0.00  0.00    +0.083 C 
ATOM     16  C   UNL     1      35.796 -23.690 -14.606  0.00  0.00    +0.019 C 
ATOM     17  C   UNL     1      38.008 -23.940 -15.547  0.00  0.00    +0.016 C 
ATOM     18  C   UNL     1      37.627 -24.425 -13.210  0.00  0.00    +0.062 C 
ATOM     19  C   UNL     1      38.492 -24.346 -14.304  0.00  0.00    +0.013 C 
BRANCH  15  23
ATOM     20  F   UNL     1      35.270 -25.397 -11.626  0.00  0.00    -0.166 F 
ATOM     21  F   UNL     1      35.616 -23.297 -11.208  0.00  0.00    -0.166 F 
ATOM     22  F   UNL     1      34.042 -23.882 -12.589  0.00  0.00    -0.166 F 
ATOM     23  C   UNL     1      35.322 -24.168 -12.217  0.00  0.00    +0.419 C 
ENDBRANCH  15  23
ENDBRANCH   8  14
ENDBRANCH   1   9
BRANCH   2  24
ATOM     24  O   UNL     1      35.726 -18.045 -22.781  0.00  0.00    -0.453 OA
BRANCH  24  26
ATOM     25  N   UNL     1      34.196 -14.295 -21.747  0.00  0.00    -0.239 NA
ATOM     26  C   UNL     1      35.220 -16.803 -22.440  0.00  0.00    +0.149 C 
ATOM     27  C   UNL     1      34.783 -15.930 -23.429  0.00  0.00    +0.061 C 
ATOM     28  C   UNL     1      34.283 -14.699 -23.035  0.00  0.00    +0.137 C 
ATOM     29  C   UNL     1      35.146 -16.424 -21.104  0.00  0.00    +0.058 C 
ATOM     30  C   UNL     1      34.632 -15.170 -20.813  0.00  0.00    +0.102 C 
BRANCH  28  33
ATOM     31  O   UNL     1      33.059 -14.115 -24.947  0.00  0.00    -0.269 OA
ATOM     32  N   UNL     1      34.222 -12.417 -23.878  0.00  0.00    -0.313 N 
ATOM     33  C   UNL     1      33.812 -13.748 -24.026  0.00  0.00    +0.263 C 
ATOM     34  H   UNL     1      34.818 -12.195 -23.127  0.00  0.00    +0.149 HD
ATOM     35  C   UNL     1      33.819 -11.352 -24.767  0.00  0.00    +0.128 C 
ENDBRANCH  28  33
ENDBRANCH  24  26
ENDBRANCH   2  24
TORSDOF 6
ENDMDL
