MODEL 1
REMARK VINA RESULT:     -11.8      0.000      0.000
REMARK  Name = 446805
REMARK  6 active torsions:
REMARK  status: ('A' for Active; 'I' for Inactive)
REMARK    1  A    between atoms: C_4  and  C_22
REMARK    2  A    between atoms: C_7  and  N_11
REMARK    3  A    between atoms: N_11  and  S_13
REMARK    4  A    between atoms: S_13  and  C_16
REMARK    5  A    between atoms: C_22  and  C_23
REMARK    6  A    between atoms: C_28  and  C_31
REMARK                            x       y       z     vdW  Elec       q    Type
REMARK                         _______ _______ _______ _____ _____    ______ ____
ROOT
ATOM      1  N   UNL     1      34.811 -17.385 -24.074  0.00  0.00    -0.262 N 
ATOM      2  N   UNL     1      35.592 -16.429 -22.226  0.00  0.00    -0.394 NA
ATOM      3  C   UNL     1      34.280 -16.121 -24.064  0.00  0.00    +0.079 C 
ATOM      4  C   UNL     1      35.586 -17.521 -22.957  0.00  0.00    +0.168 C 
ATOM      5  C   UNL     1      34.783 -15.544 -22.901  0.00  0.00    +0.129 C 
ATOM      6  C   UNL     1      34.427 -14.222 -22.582  0.00  0.00    +0.103 C 
ATOM      7  C   UNL     1      33.574 -13.532 -23.453  0.00  0.00    +0.050 C 
ATOM      8  C   UNL     1      33.431 -15.452 -24.946  0.00  0.00    +0.018 C 
ATOM      9  C   UNL     1      34.586 -18.392 -25.087  0.00  0.00    +0.119 C 
ATOM     10  C   UNL     1      33.087 -14.137 -24.613  0.00  0.00    +0.013 C 
ENDROOT
BRANCH   7  11
ATOM     11  N   UNL     1      33.199 -12.188 -23.148  0.00  0.00    -0.219 N 
ATOM     12  H   UNL     1      32.644 -11.972 -22.363  0.00  0.00    +0.173 HD
BRANCH  11  13
ATOM     13  S   UNL     1      33.770 -10.953 -24.228  0.00  0.00    +0.073 S 
ATOM     14  O   UNL     1      32.954 -10.949 -25.426  0.00  0.00    -0.150 OA
ATOM     15  O   UNL     1      35.216 -11.033 -24.321  0.00  0.00    -0.150 OA
BRANCH  13  16
ATOM     16  C   UNL     1      33.397  -9.481 -23.320  0.00  0.00    +0.125 C 
ATOM     17  C   UNL     1      32.361  -9.500 -22.402  0.00  0.00    +0.020 C 
ATOM     18  C   UNL     1      34.147  -8.342 -23.546  0.00  0.00    +0.020 C 
ATOM     19  C   UNL     1      32.067  -8.339 -21.686  0.00  0.00    +0.001 C 
ATOM     20  C   UNL     1      33.853  -7.181 -22.829  0.00  0.00    +0.001 C 
ATOM     21  C   UNL     1      32.813  -7.180 -21.900  0.00  0.00    +0.000 C 
ENDBRANCH  13  16
ENDBRANCH  11  13
ENDBRANCH   7  11
BRANCH   4  22
ATOM     22  C   UNL     1      36.313 -18.771 -22.652  0.00  0.00    +0.101 C 
BRANCH  22  23
ATOM     23  C   UNL     1      35.596 -19.674 -21.655  0.00  0.00    -0.014 C 
ATOM     24  C   UNL     1      34.217 -19.704 -21.656  0.00  0.00    -0.004 C 
ATOM     25  C   UNL     1      36.349 -20.433 -20.783  0.00  0.00    -0.004 C 
ATOM     26  C   UNL     1      33.561 -20.530 -20.743  0.00  0.00    +0.002 C 
ATOM     27  C   UNL     1      35.693 -21.259 -19.871  0.00  0.00    +0.002 C 
ATOM     28  C   UNL     1      34.299 -21.307 -19.851  0.00  0.00    +0.031 C 
BRANCH  28  31
ATOM     29  N   UNL     1      32.253 -22.024 -18.639  0.00  0.00    -0.343 N 
ATOM     30  N   UNL     1      34.289 -23.108 -18.259  0.00  0.00    -0.285 NA
ATOM     31  C   UNL     1      33.615 -22.168 -18.899  0.00  0.00    +0.117 C 
ATOM     32  H   UNL     1      31.811 -22.618 -17.990  0.00  0.00    +0.144 HD
ATOM     33  H   UNL     1      31.734 -21.328 -19.103  0.00  0.00    +0.144 HD
ATOM     34  H   UNL     1      33.828 -23.692 -17.614  0.00  0.00    +0.188 HD
ENDBRANCH  28  31
ENDBRANCH  22  23
ENDBRANCH   4  22
TORSDOF 6
ENDMDL
MODEL 2
REMARK VINA RESULT:     -11.6      4.749      8.360
REMARK  Name = 446805
REMARK  6 active torsions:
REMARK  status: ('A' for Active; 'I' for Inactive)
REMARK    1  A    between atoms: C_4  and  C_22
REMARK    2  A    between atoms: C_7  and  N_11
REMARK    3  A    between atoms: N_11  and  S_13
REMARK    4  A    between atoms: S_13  and  C_16
REMARK    5  A    between atoms: C_22  and  C_23
REMARK    6  A    between atoms: C_28  and  C_31
REMARK                            x       y       z     vdW  Elec       q    Type
REMARK                         _______ _______ _______ _____ _____    ______ ____
ROOT
ATOM      1  N   UNL     1      33.214 -22.734 -17.575  0.00  0.00    -0.262 N 
ATOM      2  N   UNL     1      35.425 -22.768 -17.798  0.00  0.00    -0.394 NA
ATOM      3  C   UNL     1      33.476 -22.034 -18.724  0.00  0.00    +0.079 C 
ATOM      4  C   UNL     1      34.408 -23.152 -17.058  0.00  0.00    +0.168 C 
ATOM      5  C   UNL     1      34.862 -22.070 -18.842  0.00  0.00    +0.129 C 
ATOM      6  C   UNL     1      35.474 -21.433 -19.936  0.00  0.00    +0.103 C 
ATOM      7  C   UNL     1      34.659 -20.783 -20.871  0.00  0.00    +0.050 C 
ATOM      8  C   UNL     1      32.645 -21.394 -19.644  0.00  0.00    +0.018 C 
ATOM      9  C   UNL     1      31.906 -22.983 -17.012  0.00  0.00    +0.119 C 
ATOM     10  C   UNL     1      33.270 -20.765 -20.726  0.00  0.00    +0.013 C 
ENDROOT
BRANCH   7  11
ATOM     11  N   UNL     1      35.260 -20.129 -21.990  0.00  0.00    -0.219 N 
ATOM     12  H   UNL     1      35.265 -20.537 -22.886  0.00  0.00    +0.173 HD
BRANCH  11  13
ATOM     13  S   UNL     1      35.978 -18.575 -21.693  0.00  0.00    +0.073 S 
ATOM     14  O   UNL     1      37.401 -18.645 -21.963  0.00  0.00    -0.150 OA
ATOM     15  O   UNL     1      35.494 -18.060 -20.425  0.00  0.00    -0.150 OA
BRANCH  13  16
ATOM     16  C   UNL     1      35.239 -17.589 -22.962  0.00  0.00    +0.125 C 
ATOM     17  C   UNL     1      34.805 -18.202 -24.124  0.00  0.00    +0.020 C 
ATOM     18  C   UNL     1      35.109 -16.226 -22.767  0.00  0.00    +0.020 C 
ATOM     19  C   UNL     1      34.222 -17.424 -25.125  0.00  0.00    +0.001 C 
ATOM     20  C   UNL     1      34.526 -15.448 -23.768  0.00  0.00    +0.001 C 
ATOM     21  C   UNL     1      34.082 -16.047 -24.947  0.00  0.00    +0.000 C 
ENDBRANCH  13  16
ENDBRANCH  11  13
ENDBRANCH   7  11
BRANCH   4  22
ATOM     22  C   UNL     1      34.493 -23.939 -15.811  0.00  0.00    +0.101 C 
BRANCH  22  23
ATOM     23  C   UNL     1      35.880 -24.504 -15.531  0.00  0.00    -0.014 C 
ATOM     24  C   UNL     1      36.949 -23.636 -15.446  0.00  0.00    -0.004 C 
ATOM     25  C   UNL     1      36.025 -25.867 -15.373  0.00  0.00    -0.004 C 
ATOM     26  C   UNL     1      38.219 -24.153 -15.190  0.00  0.00    +0.002 C 
ATOM     27  C   UNL     1      37.294 -26.384 -15.118  0.00  0.00    +0.002 C 
ATOM     28  C   UNL     1      38.391 -25.527 -15.026  0.00  0.00    +0.031 C 
BRANCH  28  31
ATOM     29  N   UNL     1      40.083 -26.489 -13.483  0.00  0.00    -0.343 N 
ATOM     30  N   UNL     1      40.597 -26.160 -15.739  0.00  0.00    -0.285 NA
ATOM     31  C   UNL     1      39.716 -26.067 -14.760  0.00  0.00    +0.117 C 
ATOM     32  H   UNL     1      40.985 -26.851 -13.326  0.00  0.00    +0.144 HD
ATOM     33  H   UNL     1      39.442 -26.426 -12.739  0.00  0.00    +0.144 HD
ATOM     34  H   UNL     1      41.494 -26.525 -15.562  0.00  0.00    +0.188 HD
ENDBRANCH  28  31
ENDBRANCH  22  23
ENDBRANCH   4  22
TORSDOF 6
ENDMDL
MODEL 3
REMARK VINA RESULT:     -11.6      4.885      8.608
REMARK  Name = 446805
REMARK  6 active torsions:
REMARK  status: ('A' for Active; 'I' for Inactive)
REMARK    1  A    between atoms: C_4  and  C_22
REMARK    2  A    between atoms: C_7  and  N_11
REMARK    3  A    between atoms: N_11  and  S_13
REMARK    4  A    between atoms: S_13  and  C_16
REMARK    5  A    between atoms: C_22  and  C_23
REMARK    6  A    between atoms: C_28  and  C_31
REMARK                            x       y       z     vdW  Elec       q    Type
REMARK                         _______ _______ _______ _____ _____    ______ ____
ROOT
ATOM      1  N   UNL     1      34.115 -23.075 -17.123  0.00  0.00    -0.262 N 
ATOM      2  N   UNL     1      32.305 -22.470 -18.263  0.00  0.00    -0.394 NA
ATOM      3  C   UNL     1      34.582 -22.393 -18.217  0.00  0.00    +0.079 C 
ATOM      4  C   UNL     1      32.750 -23.094 -17.195  0.00  0.00    +0.168 C 
ATOM      5  C   UNL     1      33.434 -22.025 -18.912  0.00  0.00    +0.129 C 
ATOM      6  C   UNL     1      33.559 -21.297 -20.108  0.00  0.00    +0.103 C 
ATOM      7  C   UNL     1      34.844 -20.967 -20.556  0.00  0.00    +0.050 C 
ATOM      8  C   UNL     1      35.871 -22.074 -18.645  0.00  0.00    +0.018 C 
ATOM      9  C   UNL     1      34.925 -23.667 -16.083  0.00  0.00    +0.119 C 
ATOM     10  C   UNL     1      35.979 -21.349 -19.836  0.00  0.00    +0.013 C 
ENDROOT
BRANCH   7  11
ATOM     11  N   UNL     1      34.996 -20.228 -21.770  0.00  0.00    -0.219 N 
ATOM     12  H   UNL     1      34.648 -20.565 -22.627  0.00  0.00    +0.173 HD
BRANCH  11  13
ATOM     13  S   UNL     1      35.821 -18.703 -21.658  0.00  0.00    +0.073 S 
ATOM     14  O   UNL     1      37.235 -18.905 -21.904  0.00  0.00    -0.150 OA
ATOM     15  O   UNL     1      35.373 -18.005 -20.467  0.00  0.00    -0.150 OA
BRANCH  13  16
ATOM     16  C   UNL     1      35.153 -17.831 -23.044  0.00  0.00    +0.125 C 
ATOM     17  C   UNL     1      34.674 -18.550 -24.125  0.00  0.00    +0.020 C 
ATOM     18  C   UNL     1      35.124 -16.448 -23.020  0.00  0.00    +0.020 C 
ATOM     19  C   UNL     1      34.147 -17.861 -25.218  0.00  0.00    +0.001 C 
ATOM     20  C   UNL     1      34.597 -15.760 -24.114  0.00  0.00    +0.001 C 
ATOM     21  C   UNL     1      34.108 -16.467 -25.213  0.00  0.00    +0.000 C 
ENDBRANCH  13  16
ENDBRANCH  11  13
ENDBRANCH   7  11
BRANCH   4  22
ATOM     22  C   UNL     1      31.918 -23.753 -16.168  0.00  0.00    +0.101 C 
BRANCH  22  23
ATOM     23  C   UNL     1      30.454 -23.333 -16.196  0.00  0.00    -0.014 C 
ATOM     24  C   UNL     1      29.919 -22.704 -15.092  0.00  0.00    -0.004 C 
ATOM     25  C   UNL     1      29.708 -23.596 -17.327  0.00  0.00    -0.004 C 
ATOM     26  C   UNL     1      28.578 -22.319 -15.118  0.00  0.00    +0.002 C 
ATOM     27  C   UNL     1      28.368 -23.212 -17.354  0.00  0.00    +0.002 C 
ATOM     28  C   UNL     1      27.803 -22.573 -16.250  0.00  0.00    +0.031 C 
BRANCH  28  31
ATOM     29  N   UNL     1      25.842 -21.582 -17.407  0.00  0.00    -0.343 N 
ATOM     30  N   UNL     1      25.644 -22.366 -15.215  0.00  0.00    -0.285 NA
ATOM     31  C   UNL     1      26.405 -22.173 -16.277  0.00  0.00    +0.117 C 
ATOM     32  H   UNL     1      24.893 -21.319 -17.404  0.00  0.00    +0.144 HD
ATOM     33  H   UNL     1      26.393 -21.427 -18.208  0.00  0.00    +0.144 HD
ATOM     34  H   UNL     1      24.697 -22.096 -15.231  0.00  0.00    +0.188 HD
ENDBRANCH  28  31
ENDBRANCH  22  23
ENDBRANCH   4  22
TORSDOF 6
ENDMDL
MODEL 4
REMARK VINA RESULT:     -11.4      1.495      1.961
REMARK  Name = 446805
REMARK  6 active torsions:
REMARK  status: ('A' for Active; 'I' for Inactive)
REMARK    1  A    between atoms: C_4  and  C_22
REMARK    2  A    between atoms: C_7  and  N_11
REMARK    3  A    between atoms: N_11  and  S_13
REMARK    4  A    between atoms: S_13  and  C_16
REMARK    5  A    between atoms: C_22  and  C_23
REMARK    6  A    between atoms: C_28  and  C_31
REMARK                            x       y       z     vdW  Elec       q    Type
REMARK                         _______ _______ _______ _____ _____    ______ ____
ROOT
ATOM      1  N   UNL     1      34.727 -17.209 -24.101  0.00  0.00    -0.262 N 
ATOM      2  N   UNL     1      35.540 -16.362 -22.214  0.00  0.00    -0.394 NA
ATOM      3  C   UNL     1      34.216 -15.940 -24.021  0.00  0.00    +0.079 C 
ATOM      4  C   UNL     1      35.511 -17.414 -23.000  0.00  0.00    +0.168 C 
ATOM      5  C   UNL     1      34.738 -15.431 -22.835  0.00  0.00    +0.129 C 
ATOM      6  C   UNL     1      34.406 -14.122 -22.445  0.00  0.00    +0.103 C 
ATOM      7  C   UNL     1      33.556 -13.375 -23.271  0.00  0.00    +0.050 C 
ATOM      8  C   UNL     1      33.369 -15.213 -24.859  0.00  0.00    +0.018 C 
ATOM      9  C   UNL     1      34.478 -18.159 -25.163  0.00  0.00    +0.119 C 
ATOM     10  C   UNL     1      33.048 -13.913 -24.456  0.00  0.00    +0.013 C 
ENDROOT
BRANCH   7  11
ATOM     11  N   UNL     1      33.204 -12.043 -22.893  0.00  0.00    -0.219 N 
ATOM     12  H   UNL     1      33.657 -11.259 -23.281  0.00  0.00    +0.173 HD
BRANCH  11  13
ATOM     13  S   UNL     1      31.935 -11.873 -21.719  0.00  0.00    +0.073 S 
ATOM     14  O   UNL     1      32.299 -12.592 -20.513  0.00  0.00    -0.150 OA
ATOM     15  O   UNL     1      30.656 -12.112 -22.361  0.00  0.00    -0.150 OA
BRANCH  13  16
ATOM     16  C   UNL     1      32.011 -10.144 -21.355  0.00  0.00    +0.125 C 
ATOM     17  C   UNL     1      31.999  -9.732 -20.034  0.00  0.00    +0.020 C 
ATOM     18  C   UNL     1      32.082  -9.238 -22.398  0.00  0.00    +0.020 C 
ATOM     19  C   UNL     1      32.059  -8.368 -19.748  0.00  0.00    +0.001 C 
ATOM     20  C   UNL     1      32.142  -7.874 -22.112  0.00  0.00    +0.001 C 
ATOM     21  C   UNL     1      32.131  -7.439 -20.787  0.00  0.00    +0.000 C 
ENDBRANCH  13  16
ENDBRANCH  11  13
ENDBRANCH   7  11
BRANCH   4  22
ATOM     22  C   UNL     1      36.220 -18.689 -22.767  0.00  0.00    +0.101 C 
BRANCH  22  23
ATOM     23  C   UNL     1      35.537 -19.599 -21.754  0.00  0.00    -0.014 C 
ATOM     24  C   UNL     1      36.317 -20.315 -20.869  0.00  0.00    -0.004 C 
ATOM     25  C   UNL     1      34.160 -19.678 -21.753  0.00  0.00    -0.004 C 
ATOM     26  C   UNL     1      35.691 -21.148 -19.941  0.00  0.00    +0.002 C 
ATOM     27  C   UNL     1      33.534 -20.512 -20.826  0.00  0.00    +0.002 C 
ATOM     28  C   UNL     1      34.300 -21.246 -19.920  0.00  0.00    +0.031 C 
BRANCH  28  31
ATOM     29  N   UNL     1      32.286 -21.999 -18.677  0.00  0.00    -0.343 N 
ATOM     30  N   UNL     1      34.350 -23.035 -18.316  0.00  0.00    -0.285 NA
ATOM     31  C   UNL     1      33.647 -22.115 -18.953  0.00  0.00    +0.117 C 
ATOM     32  H   UNL     1      31.865 -22.598 -18.018  0.00  0.00    +0.144 HD
ATOM     33  H   UNL     1      31.746 -21.319 -19.139  0.00  0.00    +0.144 HD
ATOM     34  H   UNL     1      33.911 -23.624 -17.661  0.00  0.00    +0.188 HD
ENDBRANCH  28  31
ENDBRANCH  22  23
ENDBRANCH   4  22
TORSDOF 6
ENDMDL
MODEL 5
REMARK VINA RESULT:     -11.2      3.334     10.056
REMARK  Name = 446805
REMARK  6 active torsions:
REMARK  status: ('A' for Active; 'I' for Inactive)
REMARK    1  A    between atoms: C_4  and  C_22
REMARK    2  A    between atoms: C_7  and  N_11
REMARK    3  A    between atoms: N_11  and  S_13
REMARK    4  A    between atoms: S_13  and  C_16
REMARK    5  A    between atoms: C_22  and  C_23
REMARK    6  A    between atoms: C_28  and  C_31
REMARK                            x       y       z     vdW  Elec       q    Type
REMARK                         _______ _______ _______ _____ _____    ______ ____
ROOT
ATOM      1  N   UNL     1      33.601 -13.655 -25.103  0.00  0.00    -0.262 N 
ATOM      2  N   UNL     1      34.127 -12.802 -23.119  0.00  0.00    -0.394 NA
ATOM      3  C   UNL     1      34.014 -14.720 -24.345  0.00  0.00    +0.079 C 
ATOM      4  C   UNL     1      33.687 -12.533 -24.327  0.00  0.00    +0.168 C 
ATOM      5  C   UNL     1      34.336 -14.163 -23.111  0.00  0.00    +0.129 C 
ATOM      6  C   UNL     1      34.803 -14.998 -22.082  0.00  0.00    +0.103 C 
ATOM      7  C   UNL     1      34.927 -16.369 -22.339  0.00  0.00    +0.050 C 
ATOM      8  C   UNL     1      34.128 -16.083 -24.623  0.00  0.00    +0.018 C 
ATOM      9  C   UNL     1      33.157 -13.713 -26.477  0.00  0.00    +0.119 C 
ATOM     10  C   UNL     1      34.595 -16.900 -23.588  0.00  0.00    +0.013 C 
ENDROOT
BRANCH   7  11
ATOM     11  N   UNL     1      35.401 -17.237 -21.308  0.00  0.00    -0.219 N 
ATOM     12  H   UNL     1      35.307 -17.006 -20.355  0.00  0.00    +0.173 HD
BRANCH  11  13
ATOM     13  S   UNL     1      36.148 -18.720 -21.817  0.00  0.00    +0.073 S 
ATOM     14  O   UNL     1      37.489 -18.793 -21.271  0.00  0.00    -0.150 OA
ATOM     15  O   UNL     1      35.920 -18.905 -23.238  0.00  0.00    -0.150 OA
BRANCH  13  16
ATOM     16  C   UNL     1      35.161 -19.925 -20.979  0.00  0.00    +0.125 C 
ATOM     17  C   UNL     1      35.788 -20.900 -20.222  0.00  0.00    +0.020 C 
ATOM     18  C   UNL     1      33.784 -19.869 -21.096  0.00  0.00    +0.020 C 
ATOM     19  C   UNL     1      35.009 -21.851 -19.560  0.00  0.00    +0.001 C 
ATOM     20  C   UNL     1      33.006 -20.820 -20.434  0.00  0.00    +0.001 C 
ATOM     21  C   UNL     1      33.618 -21.810 -19.666  0.00  0.00    +0.000 C 
ENDBRANCH  13  16
ENDBRANCH  11  13
ENDBRANCH   7  11
BRANCH   4  22
ATOM     22  C   UNL     1      33.316 -11.196 -24.836  0.00  0.00    +0.101 C 
BRANCH  22  23
ATOM     23  C   UNL     1      33.171 -10.140 -23.747  0.00  0.00    -0.014 C 
ATOM     24  C   UNL     1      32.143 -10.259 -22.835  0.00  0.00    -0.004 C 
ATOM     25  C   UNL     1      34.074  -9.097 -23.708  0.00  0.00    -0.004 C 
ATOM     26  C   UNL     1      32.012  -9.292 -21.838  0.00  0.00    +0.002 C 
ATOM     27  C   UNL     1      33.942  -8.130 -22.711  0.00  0.00    +0.002 C 
ATOM     28  C   UNL     1      32.911  -8.228 -21.777  0.00  0.00    +0.031 C 
BRANCH  28  31
ATOM     29  N   UNL     1      32.010  -6.071 -20.940  0.00  0.00    -0.343 N 
ATOM     30  N   UNL     1      33.382  -7.383 -19.577  0.00  0.00    -0.285 NA
ATOM     31  C   UNL     1      32.773  -7.219 -20.738  0.00  0.00    +0.117 C 
ATOM     32  H   UNL     1      31.931  -5.400 -20.222  0.00  0.00    +0.144 HD
ATOM     33  H   UNL     1      31.551  -5.929 -21.798  0.00  0.00    +0.144 HD
ATOM     34  H   UNL     1      33.291  -6.701 -18.872  0.00  0.00    +0.188 HD
ENDBRANCH  28  31
ENDBRANCH  22  23
ENDBRANCH   4  22
TORSDOF 6
ENDMDL
MODEL 6
REMARK VINA RESULT:     -11.2      5.152      8.646
REMARK  Name = 446805
REMARK  6 active torsions:
REMARK  status: ('A' for Active; 'I' for Inactive)
REMARK    1  A    between atoms: C_4  and  C_22
REMARK    2  A    between atoms: C_7  and  N_11
REMARK    3  A    between atoms: N_11  and  S_13
REMARK    4  A    between atoms: S_13  and  C_16
REMARK    5  A    between atoms: C_22  and  C_23
REMARK    6  A    between atoms: C_28  and  C_31
REMARK                            x       y       z     vdW  Elec       q    Type
REMARK                         _______ _______ _______ _____ _____    ______ ____
ROOT
ATOM      1  N   UNL     1      32.858 -22.714 -17.671  0.00  0.00    -0.262 N 
ATOM      2  N   UNL     1      35.055 -23.050 -17.657  0.00  0.00    -0.394 NA
ATOM      3  C   UNL     1      33.338 -22.045 -18.768  0.00  0.00    +0.079 C 
ATOM      4  C   UNL     1      33.921 -23.297 -17.041  0.00  0.00    +0.168 C 
ATOM      5  C   UNL     1      34.711 -22.270 -18.738  0.00  0.00    +0.129 C 
ATOM      6  C   UNL     1      35.520 -21.713 -19.743  0.00  0.00    +0.103 C 
ATOM      7  C   UNL     1      34.908 -20.946 -20.743  0.00  0.00    +0.050 C 
ATOM      8  C   UNL     1      32.707 -21.286 -19.755  0.00  0.00    +0.018 C 
ATOM      9  C   UNL     1      31.475 -22.785 -17.259  0.00  0.00    +0.119 C 
ATOM     10  C   UNL     1      33.527 -20.738 -20.748  0.00  0.00    +0.013 C 
ENDROOT
BRANCH   7  11
ATOM     11  N   UNL     1      35.711 -20.369 -21.775  0.00  0.00    -0.219 N 
ATOM     12  H   UNL     1      36.102 -20.918 -22.493  0.00  0.00    +0.173 HD
BRANCH  11  13
ATOM     13  S   UNL     1      35.961 -18.652 -21.701  0.00  0.00    +0.073 S 
ATOM     14  O   UNL     1      37.376 -18.367 -21.839  0.00  0.00    -0.150 OA
ATOM     15  O   UNL     1      35.206 -18.107 -20.588  0.00  0.00    -0.150 OA
BRANCH  13  16
ATOM     16  C   UNL     1      35.158 -18.108 -23.180  0.00  0.00    +0.125 C 
ATOM     17  C   UNL     1      35.155 -16.758 -23.488  0.00  0.00    +0.020 C 
ATOM     18  C   UNL     1      34.550 -19.041 -23.999  0.00  0.00    +0.020 C 
ATOM     19  C   UNL     1      34.523 -16.329 -24.655  0.00  0.00    +0.001 C 
ATOM     20  C   UNL     1      33.917 -18.612 -25.166  0.00  0.00    +0.001 C 
ATOM     21  C   UNL     1      33.903 -17.256 -25.494  0.00  0.00    +0.000 C 
ENDBRANCH  13  16
ENDBRANCH  11  13
ENDBRANCH   7  11
BRANCH   4  22
ATOM     22  C   UNL     1      33.761 -24.102 -15.812  0.00  0.00    +0.101 C 
BRANCH  22  23
ATOM     23  C   UNL     1      35.066 -24.364 -15.072  0.00  0.00    -0.014 C 
ATOM     24  C   UNL     1      35.606 -23.358 -14.297  0.00  0.00    -0.004 C 
ATOM     25  C   UNL     1      35.668 -25.599 -15.199  0.00  0.00    -0.004 C 
ATOM     26  C   UNL     1      36.802 -23.598 -13.619  0.00  0.00    +0.002 C 
ATOM     27  C   UNL     1      36.864 -25.838 -14.522  0.00  0.00    +0.002 C 
ATOM     28  C   UNL     1      37.430 -24.838 -13.732  0.00  0.00    +0.031 C 
BRANCH  28  31
ATOM     29  N   UNL     1      39.494 -26.167 -13.357  0.00  0.00    -0.343 N 
ATOM     30  N   UNL     1      39.051 -24.283 -12.047  0.00  0.00    -0.285 NA
ATOM     31  C   UNL     1      38.677 -25.088 -13.026  0.00  0.00    +0.117 C 
ATOM     32  H   UNL     1      40.334 -26.317 -12.865  0.00  0.00    +0.144 HD
ATOM     33  H   UNL     1      39.232 -26.779 -14.082  0.00  0.00    +0.144 HD
ATOM     34  H   UNL     1      39.895 -24.450 -11.567  0.00  0.00    +0.188 HD
ENDBRANCH  28  31
ENDBRANCH  22  23
ENDBRANCH   4  22
TORSDOF 6
ENDMDL
MODEL 7
REMARK VINA RESULT:     -11.2      5.067     10.774
REMARK  Name = 446805
REMARK  6 active torsions:
REMARK  status: ('A' for Active; 'I' for Inactive)
REMARK    1  A    between atoms: C_4  and  C_22
REMARK    2  A    between atoms: C_7  and  N_11
REMARK    3  A    between atoms: N_11  and  S_13
REMARK    4  A    between atoms: S_13  and  C_16
REMARK    5  A    between atoms: C_22  and  C_23
REMARK    6  A    between atoms: C_28  and  C_31
REMARK                            x       y       z     vdW  Elec       q    Type
REMARK                         _______ _______ _______ _____ _____    ______ ____
ROOT
ATOM      1  N   UNL     1      36.102 -19.184 -22.030  0.00  0.00    -0.262 N 
ATOM      2  N   UNL     1      33.917 -19.116 -22.432  0.00  0.00    -0.394 NA
ATOM      3  C   UNL     1      35.535 -20.034 -21.116  0.00  0.00    +0.079 C 
ATOM      4  C   UNL     1      35.096 -18.660 -22.792  0.00  0.00    +0.168 C 
ATOM      5  C   UNL     1      34.171 -19.976 -21.388  0.00  0.00    +0.129 C 
ATOM      6  C   UNL     1      33.284 -20.746 -20.617  0.00  0.00    +0.103 C 
ATOM      7  C   UNL     1      33.810 -21.549 -19.598  0.00  0.00    +0.050 C 
ATOM      8  C   UNL     1      36.081 -20.828 -20.107  0.00  0.00    +0.018 C 
ATOM      9  C   UNL     1      37.512 -18.894 -22.158  0.00  0.00    +0.119 C 
ATOM     10  C   UNL     1      35.185 -21.589 -19.349  0.00  0.00    +0.013 C 
ENDROOT
BRANCH   7  11
ATOM     11  N   UNL     1      32.927 -22.340 -18.801  0.00  0.00    -0.219 N 
ATOM     12  H   UNL     1      31.949 -22.245 -18.864  0.00  0.00    +0.173 HD
BRANCH  11  13
ATOM     13  S   UNL     1      33.663 -23.479 -17.715  0.00  0.00    +0.073 S 
ATOM     14  O   UNL     1      34.906 -22.928 -17.212  0.00  0.00    -0.150 OA
ATOM     15  O   UNL     1      33.634 -24.799 -18.318  0.00  0.00    -0.150 OA
BRANCH  13  16
ATOM     16  C   UNL     1      32.505 -23.502 -16.378  0.00  0.00    +0.125 C 
ATOM     17  C   UNL     1      31.177 -23.208 -16.633  0.00  0.00    +0.020 C 
ATOM     18  C   UNL     1      32.950 -23.812 -15.106  0.00  0.00    +0.020 C 
ATOM     19  C   UNL     1      30.263 -23.226 -15.578  0.00  0.00    +0.001 C 
ATOM     20  C   UNL     1      32.037 -23.831 -14.052  0.00  0.00    +0.001 C 
ATOM     21  C   UNL     1      30.693 -23.538 -14.287  0.00  0.00    +0.000 C 
ENDBRANCH  13  16
ENDBRANCH  11  13
ENDBRANCH   7  11
BRANCH   4  22
ATOM     22  C   UNL     1      35.356 -17.696 -23.882  0.00  0.00    +0.101 C 
BRANCH  22  23
ATOM     23  C   UNL     1      34.745 -16.321 -23.648  0.00  0.00    -0.014 C 
ATOM     24  C   UNL     1      33.976 -15.755 -24.644  0.00  0.00    -0.004 C 
ATOM     25  C   UNL     1      34.979 -15.684 -22.447  0.00  0.00    -0.004 C 
ATOM     26  C   UNL     1      33.417 -14.495 -24.430  0.00  0.00    +0.002 C 
ATOM     27  C   UNL     1      34.420 -14.424 -22.232  0.00  0.00    +0.002 C 
ATOM     28  C   UNL     1      33.639 -13.830 -23.224  0.00  0.00    +0.031 C 
BRANCH  28  31
ATOM     29  N   UNL     1      33.456 -11.409 -23.746  0.00  0.00    -0.343 N 
ATOM     30  N   UNL     1      32.130 -12.356 -22.071  0.00  0.00    -0.285 NA
ATOM     31  C   UNL     1      33.056 -12.516 -23.000  0.00  0.00    +0.117 C 
ATOM     32  H   UNL     1      33.048 -10.529 -23.578  0.00  0.00    +0.144 HD
ATOM     33  H   UNL     1      34.146 -11.507 -24.441  0.00  0.00    +0.144 HD
ATOM     34  H   UNL     1      31.734 -11.469 -21.918  0.00  0.00    +0.188 HD
ENDBRANCH  28  31
ENDBRANCH  22  23
ENDBRANCH   4  22
TORSDOF 6
ENDMDL
MODEL 8
REMARK VINA RESULT:     -10.9      8.135     13.206
REMARK  Name = 446805
REMARK  6 active torsions:
REMARK  status: ('A' for Active; 'I' for Inactive)
REMARK    1  A    between atoms: C_4  and  C_22
REMARK    2  A    between atoms: C_7  and  N_11
REMARK    3  A    between atoms: N_11  and  S_13
REMARK    4  A    between atoms: S_13  and  C_16
REMARK    5  A    between atoms: C_22  and  C_23
REMARK    6  A    between atoms: C_28  and  C_31
REMARK                            x       y       z     vdW  Elec       q    Type
REMARK                         _______ _______ _______ _____ _____    ______ ____
ROOT
ATOM      1  N   UNL     1      32.286 -23.164 -16.766  0.00  0.00    -0.262 N 
ATOM      2  N   UNL     1      34.373 -23.542 -17.428  0.00  0.00    -0.394 NA
ATOM      3  C   UNL     1      32.932 -23.669 -15.668  0.00  0.00    +0.079 C 
ATOM      4  C   UNL     1      33.188 -23.107 -17.792  0.00  0.00    +0.168 C 
ATOM      5  C   UNL     1      34.233 -23.896 -16.106  0.00  0.00    +0.129 C 
ATOM      6  C   UNL     1      35.177 -24.423 -15.208  0.00  0.00    +0.103 C 
ATOM      7  C   UNL     1      34.769 -24.701 -13.897  0.00  0.00    +0.050 C 
ATOM      8  C   UNL     1      32.504 -23.937 -14.367  0.00  0.00    +0.018 C 
ATOM      9  C   UNL     1      30.898 -22.765 -16.825  0.00  0.00    +0.119 C 
ATOM     10  C   UNL     1      33.455 -24.461 -13.486  0.00  0.00    +0.013 C 
ENDROOT
BRANCH   7  11
ATOM     11  N   UNL     1      35.711 -25.238 -12.967  0.00  0.00    -0.219 N 
ATOM     12  H   UNL     1      35.617 -26.149 -12.604  0.00  0.00    +0.173 HD
BRANCH  11  13
ATOM     13  S   UNL     1      37.032 -24.206 -12.510  0.00  0.00    +0.073 S 
ATOM     14  O   UNL     1      37.412 -24.493 -11.140  0.00  0.00    -0.150 OA
ATOM     15  O   UNL     1      36.741 -22.847 -12.924  0.00  0.00    -0.150 OA
BRANCH  13  16
ATOM     16  C   UNL     1      38.328 -24.795 -13.560  0.00  0.00    +0.125 C 
ATOM     17  C   UNL     1      39.158 -25.805 -13.105  0.00  0.00    +0.020 C 
ATOM     18  C   UNL     1      38.486 -24.235 -14.815  0.00  0.00    +0.020 C 
ATOM     19  C   UNL     1      40.179 -26.269 -13.934  0.00  0.00    +0.001 C 
ATOM     20  C   UNL     1      39.507 -24.700 -15.644  0.00  0.00    +0.001 C 
ATOM     21  C   UNL     1      40.354 -25.717 -15.203  0.00  0.00    +0.000 C 
ENDBRANCH  13  16
ENDBRANCH  11  13
ENDBRANCH   7  11
BRANCH   4  22
ATOM     22  C   UNL     1      32.822 -22.608 -19.133  0.00  0.00    +0.101 C 
BRANCH  22  23
ATOM     23  C   UNL     1      33.859 -21.676 -19.748  0.00  0.00    -0.014 C 
ATOM     24  C   UNL     1      35.196 -21.912 -19.504  0.00  0.00    -0.004 C 
ATOM     25  C   UNL     1      33.428 -20.625 -20.531  0.00  0.00    -0.004 C 
ATOM     26  C   UNL     1      36.145 -21.059 -20.067  0.00  0.00    +0.002 C 
ATOM     27  C   UNL     1      34.377 -19.771 -21.094  0.00  0.00    +0.002 C 
ATOM     28  C   UNL     1      35.735 -19.989 -20.862  0.00  0.00    +0.031 C 
BRANCH  28  31
ATOM     29  N   UNL     1      36.383 -18.199 -22.457  0.00  0.00    -0.343 N 
ATOM     30  N   UNL     1      37.976 -19.136 -21.027  0.00  0.00    -0.285 NA
ATOM     31  C   UNL     1      36.724 -19.098 -21.448  0.00  0.00    +0.117 C 
ATOM     32  H   UNL     1      37.069 -17.606 -22.840  0.00  0.00    +0.144 HD
ATOM     33  H   UNL     1      35.457 -18.157 -22.786  0.00  0.00    +0.144 HD
ATOM     34  H   UNL     1      38.648 -18.535 -21.422  0.00  0.00    +0.188 HD
ENDBRANCH  28  31
ENDBRANCH  22  23
ENDBRANCH   4  22
TORSDOF 6
ENDMDL
MODEL 9
REMARK VINA RESULT:     -10.1      3.852     11.667
REMARK  Name = 446805
REMARK  6 active torsions:
REMARK  status: ('A' for Active; 'I' for Inactive)
REMARK    1  A    between atoms: C_4  and  C_22
REMARK    2  A    between atoms: C_7  and  N_11
REMARK    3  A    between atoms: N_11  and  S_13
REMARK    4  A    between atoms: S_13  and  C_16
REMARK    5  A    between atoms: C_22  and  C_23
REMARK    6  A    between atoms: C_28  and  C_31
REMARK                            x       y       z     vdW  Elec       q    Type
REMARK                         _______ _______ _______ _____ _____    ______ ____
ROOT
ATOM      1  N   UNL     1      32.029  -7.823 -21.092  0.00  0.00    -0.262 N 
ATOM      2  N   UNL     1      32.269  -8.295 -23.250  0.00  0.00    -0.394 NA
ATOM      3  C   UNL     1      32.041  -9.192 -21.168  0.00  0.00    +0.079 C 
ATOM      4  C   UNL     1      32.168  -7.334 -22.360  0.00  0.00    +0.168 C 
ATOM      5  C   UNL     1      32.193  -9.462 -22.524  0.00  0.00    +0.129 C 
ATOM      6  C   UNL     1      32.246 -10.798 -22.956  0.00  0.00    +0.103 C 
ATOM      7  C   UNL     1      32.143 -11.814 -21.998  0.00  0.00    +0.050 C 
ATOM      8  C   UNL     1      31.938 -10.188 -20.195  0.00  0.00    +0.018 C 
ATOM      9  C   UNL     1      31.892  -7.042 -19.883  0.00  0.00    +0.119 C 
ATOM     10  C   UNL     1      31.992 -11.512 -20.642  0.00  0.00    +0.013 C 
ENDROOT
BRANCH   7  11
ATOM     11  N   UNL     1      32.192 -13.180 -22.414  0.00  0.00    -0.219 N 
ATOM     12  H   UNL     1      31.536 -13.842 -22.096  0.00  0.00    +0.173 HD
BRANCH  11  13
ATOM     13  S   UNL     1      33.466 -13.616 -23.511  0.00  0.00    +0.073 S 
ATOM     14  O   UNL     1      34.423 -12.529 -23.592  0.00  0.00    -0.150 OA
ATOM     15  O   UNL     1      32.886 -14.177 -24.717  0.00  0.00    -0.150 OA
BRANCH  13  16
ATOM     16  C   UNL     1      34.243 -14.951 -22.648  0.00  0.00    +0.125 C 
ATOM     17  C   UNL     1      34.766 -16.008 -23.373  0.00  0.00    +0.020 C 
ATOM     18  C   UNL     1      34.312 -14.911 -21.268  0.00  0.00    +0.020 C 
ATOM     19  C   UNL     1      35.379 -17.060 -22.692  0.00  0.00    +0.001 C 
ATOM     20  C   UNL     1      34.925 -15.964 -20.587  0.00  0.00    +0.001 C 
ATOM     21  C   UNL     1      35.459 -17.038 -21.299  0.00  0.00    +0.000 C 
ENDBRANCH  13  16
ENDBRANCH  11  13
ENDBRANCH   7  11
BRANCH   4  22
ATOM     22  C   UNL     1      32.194  -5.884 -22.644  0.00  0.00    +0.101 C 
BRANCH  22  23
ATOM     23  C   UNL     1      32.945  -5.519 -23.918  0.00  0.00    -0.014 C 
ATOM     24  C   UNL     1      32.384  -4.603 -24.784  0.00  0.00    -0.004 C 
ATOM     25  C   UNL     1      34.164  -6.116 -24.167  0.00  0.00    -0.004 C 
ATOM     26  C   UNL     1      33.072  -4.269 -25.951  0.00  0.00    +0.002 C 
ATOM     27  C   UNL     1      34.852  -5.783 -25.334  0.00  0.00    +0.002 C 
ATOM     28  C   UNL     1      34.305  -4.859 -26.225  0.00  0.00    +0.031 C 
BRANCH  28  31
ATOM     29  N   UNL     1      34.351  -4.047 -28.572  0.00  0.00    -0.343 N 
ATOM     30  N   UNL     1      36.337  -4.638 -27.490  0.00  0.00    -0.285 NA
ATOM     31  C   UNL     1      35.023  -4.512 -27.442  0.00  0.00    +0.117 C 
ATOM     32  H   UNL     1      34.857  -3.818 -29.385  0.00  0.00    +0.144 HD
ATOM     33  H   UNL     1      33.372  -3.949 -28.557  0.00  0.00    +0.144 HD
ATOM     34  H   UNL     1      36.825  -4.403 -28.312  0.00  0.00    +0.188 HD
ENDBRANCH  28  31
ENDBRANCH  22  23
ENDBRANCH   4  22
TORSDOF 6
ENDMDL
