MODEL 1
REMARK VINA RESULT:     -12.4      0.000      0.000
REMARK  Name = 10430360
REMARK  6 active torsions:
REMARK  status: ('A' for Active; 'I' for Inactive)
REMARK    1  A    between atoms: C_4  and  C_18
REMARK    2  A    between atoms: C_7  and  C_14
REMARK    3  A    between atoms: C_17  and  O_23
REMARK    4  A    between atoms: O_23  and  C_24
REMARK    5  A    between atoms: C_24  and  C_25
REMARK    6  A    between atoms: C_25  and  N_26
REMARK                            x       y       z     vdW  Elec       q    Type
REMARK                         _______ _______ _______ _____ _____    ______ ____
ROOT
ATOM      1  N   UNL     1      33.773 -25.005 -13.551  0.00  0.00    -0.276 N 
ATOM      2  N   UNL     1      34.735 -24.515 -14.352  0.00  0.00    -0.173 NA
ATOM      3  C   UNL     1      32.651 -24.020 -15.158  0.00  0.00    +0.036 A 
ATOM      4  C   UNL     1      34.051 -23.914 -15.332  0.00  0.00    +0.102 A 
ATOM      5  C   UNL     1      32.499 -24.742 -13.980  0.00  0.00    +0.075 A 
ATOM      6  C   UNL     1      31.508 -23.592 -15.855  0.00  0.00    +0.006 C 
ATOM      7  C   UNL     1      30.249 -23.911 -15.333  0.00  0.00    +0.033 C 
ATOM      8  C   UNL     1      31.253 -25.071 -13.443  0.00  0.00    +0.019 C 
ATOM      9  C   UNL     1      30.125 -24.638 -14.148  0.00  0.00    +0.004 C 
ATOM     10  H   UNL     1      33.967 -25.510 -12.729  0.00  0.00    +0.189 HD
ENDROOT
BRANCH   7  14
ATOM     11  N   UNL     1      28.567 -24.136 -17.117  0.00  0.00    -0.218 N 
ATOM     12  N   UNL     1      28.308 -22.447 -15.756  0.00  0.00    -0.206 NA
ATOM     13  N   UNL     1      27.460 -23.535 -17.580  0.00  0.00    -0.157 NA
ATOM     14  C   UNL     1      29.061 -23.482 -16.034  0.00  0.00    +0.149 C 
ATOM     15  C   UNL     1      27.346 -22.519 -16.723  0.00  0.00    +0.218 C 
ATOM     16  H   UNL     1      28.966 -24.946 -17.510  0.00  0.00    +0.176 HD
ENDBRANCH   7  14
BRANCH   4  18
ATOM     17  C   UNL     1      34.790 -22.418 -18.658  0.00  0.00    +0.138 C 
ATOM     18  C   UNL     1      34.746 -23.256 -16.402  0.00  0.00    +0.022 C 
ATOM     19  C   UNL     1      34.110 -23.056 -17.628  0.00  0.00    +0.038 C 
ATOM     20  C   UNL     1      36.097 -21.977 -18.480  0.00  0.00    +0.037 C 
ATOM     21  C   UNL     1      36.056 -22.817 -16.216  0.00  0.00    +0.002 C 
ATOM     22  C   UNL     1      36.732 -22.177 -17.255  0.00  0.00    +0.003 C 
BRANCH  17  23
ATOM     23  O   UNL     1      34.166 -22.219 -19.862  0.00  0.00    -0.478 OA
BRANCH  23  24
ATOM     24  C   UNL     1      33.931 -20.871 -20.248  0.00  0.00    +0.183 C 
BRANCH  24  25
ATOM     25  C   UNL     1      35.146 -20.362 -21.007  0.00  0.00    -0.029 C 
BRANCH  25  26
ATOM     26  N   UNL     1      34.802 -19.179 -21.796  0.00  0.00    +0.389 N 
ATOM     27  C   UNL     1      35.665 -18.047 -21.430  0.00  0.00    -0.077 C 
ATOM     28  C   UNL     1      34.894 -19.474 -23.233  0.00  0.00    -0.077 C 
ATOM     29  C   UNL     1      35.287 -16.789 -22.211  0.00  0.00    -0.023 C 
ATOM     30  C   UNL     1      34.490 -18.261 -24.073  0.00  0.00    -0.023 C 
ATOM     31  C   UNL     1      35.324 -17.036 -23.715  0.00  0.00    -0.004 C 
ATOM     32  H   UNL     1      33.837 -18.917 -21.591  0.00  0.00    -0.080 HD
ENDBRANCH  25  26
ENDBRANCH  24  25
ENDBRANCH  23  24
ENDBRANCH  17  23
ENDBRANCH   4  18
TORSDOF 6
ENDMDL
MODEL 2
REMARK VINA RESULT:     -11.9      1.923      4.469
REMARK  Name = 10430360
REMARK  6 active torsions:
REMARK  status: ('A' for Active; 'I' for Inactive)
REMARK    1  A    between atoms: C_4  and  C_18
REMARK    2  A    between atoms: C_7  and  C_14
REMARK    3  A    between atoms: C_17  and  O_23
REMARK    4  A    between atoms: O_23  and  C_24
REMARK    5  A    between atoms: C_24  and  C_25
REMARK    6  A    between atoms: C_25  and  N_26
REMARK                            x       y       z     vdW  Elec       q    Type
REMARK                         _______ _______ _______ _____ _____    ______ ____
ROOT
ATOM      1  N   UNL     1      31.200 -23.242 -17.061  0.00  0.00    -0.276 N 
ATOM      2  N   UNL     1      31.952 -22.689 -18.028  0.00  0.00    -0.173 NA
ATOM      3  C   UNL     1      33.237 -23.360 -16.257  0.00  0.00    +0.036 A 
ATOM      4  C   UNL     1      33.195 -22.762 -17.538  0.00  0.00    +0.102 A 
ATOM      5  C   UNL     1      31.911 -23.664 -15.970  0.00  0.00    +0.075 A 
ATOM      6  C   UNL     1      34.234 -23.675 -15.318  0.00  0.00    +0.006 C 
ATOM      7  C   UNL     1      33.853 -24.289 -14.118  0.00  0.00    +0.033 C 
ATOM      8  C   UNL     1      31.510 -24.275 -14.781  0.00  0.00    +0.019 C 
ATOM      9  C   UNL     1      32.514 -24.583 -13.856  0.00  0.00    +0.004 C 
ATOM     10  H   UNL     1      30.223 -23.333 -17.131  0.00  0.00    +0.189 HD
ENDROOT
BRANCH   7  14
ATOM     11  N   UNL     1      35.943 -25.390 -13.425  0.00  0.00    -0.218 N 
ATOM     12  N   UNL     1      34.894 -24.253 -11.882  0.00  0.00    -0.206 NA
ATOM     13  N   UNL     1      36.722 -25.546 -12.344  0.00  0.00    -0.157 NA
ATOM     14  C   UNL     1      34.861 -24.620 -13.139  0.00  0.00    +0.149 C 
ATOM     15  C   UNL     1      36.044 -24.840 -11.438  0.00  0.00    +0.218 C 
ATOM     16  H   UNL     1      36.131 -25.780 -14.309  0.00  0.00    +0.176 HD
ENDBRANCH   7  14
BRANCH   4  18
ATOM     17  C   UNL     1      35.161 -21.125 -20.241  0.00  0.00    +0.138 C 
ATOM     18  C   UNL     1      34.305 -22.263 -18.300  0.00  0.00    +0.022 C 
ATOM     19  C   UNL     1      34.081 -21.605 -19.510  0.00  0.00    +0.038 C 
ATOM     20  C   UNL     1      36.462 -21.294 -19.780  0.00  0.00    +0.037 C 
ATOM     21  C   UNL     1      35.607 -22.437 -17.832  0.00  0.00    +0.002 C 
ATOM     22  C   UNL     1      36.686 -21.953 -18.571  0.00  0.00    +0.003 C 
BRANCH  17  23
ATOM     23  O   UNL     1      34.942 -20.476 -21.429  0.00  0.00    -0.478 OA
BRANCH  23  24
ATOM     24  C   UNL     1      34.973 -19.055 -21.399  0.00  0.00    +0.183 C 
BRANCH  24  25
ATOM     25  C   UNL     1      36.162 -18.576 -22.215  0.00  0.00    -0.029 C 
BRANCH  25  26
ATOM     26  N   UNL     1      35.771 -17.478 -23.101  0.00  0.00    +0.389 N 
ATOM     27  C   UNL     1      34.876 -17.966 -24.160  0.00  0.00    -0.077 C 
ATOM     28  C   UNL     1      35.143 -16.396 -22.331  0.00  0.00    -0.077 C 
ATOM     29  C   UNL     1      34.497 -16.840 -25.123  0.00  0.00    -0.023 C 
ATOM     30  C   UNL     1      34.772 -15.219 -23.235  0.00  0.00    -0.023 C 
ATOM     31  C   UNL     1      33.873 -15.663 -24.383  0.00  0.00    -0.004 C 
ATOM     32  H   UNL     1      36.609 -17.102 -23.545  0.00  0.00    -0.080 HD
ENDBRANCH  25  26
ENDBRANCH  24  25
ENDBRANCH  23  24
ENDBRANCH  17  23
ENDBRANCH   4  18
TORSDOF 6
ENDMDL
MODEL 3
REMARK VINA RESULT:     -11.7      2.169      4.921
REMARK  Name = 10430360
REMARK  6 active torsions:
REMARK  status: ('A' for Active; 'I' for Inactive)
REMARK    1  A    between atoms: C_4  and  C_18
REMARK    2  A    between atoms: C_7  and  C_14
REMARK    3  A    between atoms: C_17  and  O_23
REMARK    4  A    between atoms: O_23  and  C_24
REMARK    5  A    between atoms: C_24  and  C_25
REMARK    6  A    between atoms: C_25  and  N_26
REMARK                            x       y       z     vdW  Elec       q    Type
REMARK                         _______ _______ _______ _____ _____    ______ ____
ROOT
ATOM      1  N   UNL     1      31.445 -22.981 -17.335  0.00  0.00    -0.276 N 
ATOM      2  N   UNL     1      31.985 -22.322 -18.374  0.00  0.00    -0.173 NA
ATOM      3  C   UNL     1      33.603 -23.134 -16.973  0.00  0.00    +0.036 A 
ATOM      4  C   UNL     1      33.302 -22.415 -18.153  0.00  0.00    +0.102 A 
ATOM      5  C   UNL     1      32.362 -23.492 -16.457  0.00  0.00    +0.075 A 
ATOM      6  C   UNL     1      34.769 -23.517 -16.290  0.00  0.00    +0.006 C 
ATOM      7  C   UNL     1      34.639 -24.252 -15.105  0.00  0.00    +0.033 C 
ATOM      8  C   UNL     1      32.211 -24.224 -15.277  0.00  0.00    +0.019 C 
ATOM      9  C   UNL     1      33.381 -24.598 -14.609  0.00  0.00    +0.004 C 
ATOM     10  H   UNL     1      30.474 -23.085 -17.216  0.00  0.00    +0.189 HD
ENDROOT
BRANCH   7  14
ATOM     11  N   UNL     1      35.780 -25.279 -13.181  0.00  0.00    -0.218 N 
ATOM     12  N   UNL     1      37.070 -24.493 -14.759  0.00  0.00    -0.206 NA
ATOM     13  N   UNL     1      37.016 -25.544 -12.729  0.00  0.00    -0.157 NA
ATOM     14  C   UNL     1      35.825 -24.655 -14.386  0.00  0.00    +0.149 C 
ATOM     15  C   UNL     1      37.760 -25.049 -13.720  0.00  0.00    +0.218 C 
ATOM     16  H   UNL     1      34.952 -25.508 -12.701  0.00  0.00    +0.176 HD
ENDBRANCH   7  14
BRANCH   4  18
ATOM     17  C   UNL     1      34.679 -20.470 -21.012  0.00  0.00    +0.138 C 
ATOM     18  C   UNL     1      34.234 -21.821 -19.070  0.00  0.00    +0.022 C 
ATOM     19  C   UNL     1      33.770 -21.041 -20.129  0.00  0.00    +0.038 C 
ATOM     20  C   UNL     1      36.046 -20.669 -20.850  0.00  0.00    +0.037 C 
ATOM     21  C   UNL     1      35.603 -22.025 -18.901  0.00  0.00    +0.002 C 
ATOM     22  C   UNL     1      36.509 -21.449 -19.791  0.00  0.00    +0.003 C 
BRANCH  17  23
ATOM     23  O   UNL     1      34.224 -19.702 -22.052  0.00  0.00    -0.478 OA
BRANCH  23  24
ATOM     24  C   UNL     1      35.143 -19.441 -23.106  0.00  0.00    +0.183 C 
BRANCH  24  25
ATOM     25  C   UNL     1      35.556 -17.980 -23.043  0.00  0.00    -0.029 C 
BRANCH  25  26
ATOM     26  N   UNL     1      34.542 -17.129 -23.666  0.00  0.00    +0.389 N 
ATOM     27  C   UNL     1      34.789 -15.716 -23.347  0.00  0.00    -0.077 C 
ATOM     28  C   UNL     1      34.509 -17.349 -25.118  0.00  0.00    -0.077 C 
ATOM     29  C   UNL     1      33.709 -14.817 -23.951  0.00  0.00    -0.023 C 
ATOM     30  C   UNL     1      33.420 -16.503 -25.780  0.00  0.00    -0.023 C 
ATOM     31  C   UNL     1      33.594 -15.023 -25.457  0.00  0.00    -0.004 C 
ATOM     32  H   UNL     1      33.628 -17.381 -23.290  0.00  0.00    -0.080 HD
ENDBRANCH  25  26
ENDBRANCH  24  25
ENDBRANCH  23  24
ENDBRANCH  17  23
ENDBRANCH   4  18
TORSDOF 6
ENDMDL
MODEL 4
REMARK VINA RESULT:     -11.7      3.277      5.989
REMARK  Name = 10430360
REMARK  6 active torsions:
REMARK  status: ('A' for Active; 'I' for Inactive)
REMARK    1  A    between atoms: C_4  and  C_18
REMARK    2  A    between atoms: C_7  and  C_14
REMARK    3  A    between atoms: C_17  and  O_23
REMARK    4  A    between atoms: O_23  and  C_24
REMARK    5  A    between atoms: C_24  and  C_25
REMARK    6  A    between atoms: C_25  and  N_26
REMARK                            x       y       z     vdW  Elec       q    Type
REMARK                         _______ _______ _______ _____ _____    ______ ____
ROOT
ATOM      1  N   UNL     1      32.524 -25.169 -14.025  0.00  0.00    -0.276 N 
ATOM      2  N   UNL     1      33.550 -24.730 -14.774  0.00  0.00    -0.173 NA
ATOM      3  C   UNL     1      31.546 -23.979 -15.587  0.00  0.00    +0.036 A 
ATOM      4  C   UNL     1      32.953 -24.004 -15.727  0.00  0.00    +0.102 A 
ATOM      5  C   UNL     1      31.294 -24.754 -14.460  0.00  0.00    +0.075 A 
ATOM      6  C   UNL     1      30.469 -23.398 -16.277  0.00  0.00    +0.006 C 
ATOM      7  C   UNL     1      29.171 -23.621 -15.800  0.00  0.00    +0.033 C 
ATOM      8  C   UNL     1      30.008 -24.989 -13.969  0.00  0.00    +0.019 C 
ATOM      9  C   UNL     1      28.947 -24.403 -14.666  0.00  0.00    +0.004 C 
ATOM     10  H   UNL     1      32.647 -25.740 -13.233  0.00  0.00    +0.189 HD
ENDROOT
BRANCH   7  14
ATOM     11  N   UNL     1      26.988 -22.483 -15.850  0.00  0.00    -0.218 N 
ATOM     12  N   UNL     1      27.881 -22.942 -17.791  0.00  0.00    -0.206 NA
ATOM     13  N   UNL     1      26.086 -22.010 -16.723  0.00  0.00    -0.157 NA
ATOM     14  C   UNL     1      28.049 -23.033 -16.495  0.00  0.00    +0.149 C 
ATOM     15  C   UNL     1      26.672 -22.312 -17.883  0.00  0.00    +0.218 C 
ATOM     16  H   UNL     1      26.894 -22.435 -14.871  0.00  0.00    +0.176 HD
ENDBRANCH   7  14
BRANCH   4  18
ATOM     17  C   UNL     1      35.829 -22.429 -17.487  0.00  0.00    +0.138 C 
ATOM     18  C   UNL     1      33.736 -23.355 -16.740  0.00  0.00    +0.022 C 
ATOM     19  C   UNL     1      35.078 -23.057 -16.501  0.00  0.00    +0.038 C 
ATOM     20  C   UNL     1      35.257 -22.093 -18.709  0.00  0.00    +0.037 C 
ATOM     21  C   UNL     1      33.155 -23.021 -17.963  0.00  0.00    +0.002 C 
ATOM     22  C   UNL     1      33.915 -22.391 -18.948  0.00  0.00    +0.003 C 
BRANCH  17  23
ATOM     23  O   UNL     1      37.148 -22.138 -17.254  0.00  0.00    -0.478 OA
BRANCH  23  24
ATOM     24  C   UNL     1      37.611 -22.287 -15.918  0.00  0.00    +0.183 C 
BRANCH  24  25
ATOM     25  C   UNL     1      38.351 -23.610 -15.802  0.00  0.00    -0.029 C 
BRANCH  25  26
ATOM     26  N   UNL     1      37.661 -24.507 -14.875  0.00  0.00    +0.389 N 
ATOM     27  C   UNL     1      38.480 -25.698 -14.607  0.00  0.00    -0.077 C 
ATOM     28  C   UNL     1      37.325 -23.802 -13.631  0.00  0.00    -0.077 C 
ATOM     29  C   UNL     1      37.753 -26.669 -13.677  0.00  0.00    -0.023 C 
ATOM     30  C   UNL     1      36.559 -24.712 -12.670  0.00  0.00    -0.023 C 
ATOM     31  C   UNL     1      37.338 -25.990 -12.377  0.00  0.00    -0.004 C 
ATOM     32  H   UNL     1      36.790 -24.816 -15.306  0.00  0.00    -0.080 HD
ENDBRANCH  25  26
ENDBRANCH  24  25
ENDBRANCH  23  24
ENDBRANCH  17  23
ENDBRANCH   4  18
TORSDOF 6
ENDMDL
MODEL 5
REMARK VINA RESULT:     -11.5      2.991      5.966
REMARK  Name = 10430360
REMARK  6 active torsions:
REMARK  status: ('A' for Active; 'I' for Inactive)
REMARK    1  A    between atoms: C_4  and  C_18
REMARK    2  A    between atoms: C_7  and  C_14
REMARK    3  A    between atoms: C_17  and  O_23
REMARK    4  A    between atoms: O_23  and  C_24
REMARK    5  A    between atoms: C_24  and  C_25
REMARK    6  A    between atoms: C_25  and  N_26
REMARK                            x       y       z     vdW  Elec       q    Type
REMARK                         _______ _______ _______ _____ _____    ______ ____
ROOT
ATOM      1  N   UNL     1      33.827 -23.818 -13.424  0.00  0.00    -0.276 N 
ATOM      2  N   UNL     1      33.451 -23.305 -14.608  0.00  0.00    -0.173 NA
ATOM      3  C   UNL     1      35.568 -24.168 -14.711  0.00  0.00    +0.036 A 
ATOM      4  C   UNL     1      34.513 -23.518 -15.393  0.00  0.00    +0.102 A 
ATOM      5  C   UNL     1      35.088 -24.351 -13.419  0.00  0.00    +0.075 A 
ATOM      6  C   UNL     1      36.860 -24.616 -15.034  0.00  0.00    +0.006 C 
ATOM      7  C   UNL     1      37.622 -25.236 -14.036  0.00  0.00    +0.033 C 
ATOM      8  C   UNL     1      35.831 -24.966 -12.410  0.00  0.00    +0.019 C 
ATOM      9  C   UNL     1      37.115 -25.407 -12.747  0.00  0.00    +0.004 C 
ATOM     10  H   UNL     1      33.246 -23.810 -12.630  0.00  0.00    +0.189 HD
ENDROOT
BRANCH   7  14
ATOM     11  N   UNL     1      39.565 -25.452 -15.533  0.00  0.00    -0.218 N 
ATOM     12  N   UNL     1      39.744 -26.408 -13.577  0.00  0.00    -0.206 NA
ATOM     13  N   UNL     1      40.791 -25.996 -15.568  0.00  0.00    -0.157 NA
ATOM     14  C   UNL     1      38.953 -25.703 -14.347  0.00  0.00    +0.149 C 
ATOM     15  C   UNL     1      40.851 -26.563 -14.362  0.00  0.00    +0.218 C 
ATOM     16  H   UNL     1      39.163 -24.939 -16.271  0.00  0.00    +0.176 HD
ENDBRANCH   7  14
BRANCH   4  18
ATOM     17  C   UNL     1      35.541 -21.983 -18.624  0.00  0.00    +0.138 C 
ATOM     18  C   UNL     1      34.494 -23.102 -16.767  0.00  0.00    +0.022 C 
ATOM     19  C   UNL     1      35.567 -22.382 -17.293  0.00  0.00    +0.038 C 
ATOM     20  C   UNL     1      34.456 -22.293 -19.437  0.00  0.00    +0.037 C 
ATOM     21  C   UNL     1      33.403 -23.417 -17.576  0.00  0.00    +0.002 C 
ATOM     22  C   UNL     1      33.384 -23.013 -18.911  0.00  0.00    +0.003 C 
BRANCH  17  23
ATOM     23  O   UNL     1      36.595 -21.277 -19.142  0.00  0.00    -0.478 OA
BRANCH  23  24
ATOM     24  C   UNL     1      36.494 -20.879 -20.504  0.00  0.00    +0.183 C 
BRANCH  24  25
ATOM     25  C   UNL     1      36.548 -19.362 -20.574  0.00  0.00    -0.029 C 
BRANCH  25  26
ATOM     26  N   UNL     1      36.195 -18.896 -21.915  0.00  0.00    +0.389 N 
ATOM     27  C   UNL     1      35.169 -19.764 -22.509  0.00  0.00    -0.077 C 
ATOM     28  C   UNL     1      35.747 -17.497 -21.872  0.00  0.00    -0.077 C 
ATOM     29  C   UNL     1      34.824 -19.319 -23.931  0.00  0.00    -0.023 C 
ATOM     30  C   UNL     1      35.421 -16.978 -23.273  0.00  0.00    -0.023 C 
ATOM     31  C   UNL     1      34.386 -17.859 -23.965  0.00  0.00    -0.004 C 
ATOM     32  H   UNL     1      37.025 -18.941 -22.507  0.00  0.00    -0.080 HD
ENDBRANCH  25  26
ENDBRANCH  24  25
ENDBRANCH  23  24
ENDBRANCH  17  23
ENDBRANCH   4  18
TORSDOF 6
ENDMDL
MODEL 6
REMARK VINA RESULT:     -11.4      2.390      3.944
REMARK  Name = 10430360
REMARK  6 active torsions:
REMARK  status: ('A' for Active; 'I' for Inactive)
REMARK    1  A    between atoms: C_4  and  C_18
REMARK    2  A    between atoms: C_7  and  C_14
REMARK    3  A    between atoms: C_17  and  O_23
REMARK    4  A    between atoms: O_23  and  C_24
REMARK    5  A    between atoms: C_24  and  C_25
REMARK    6  A    between atoms: C_25  and  N_26
REMARK                            x       y       z     vdW  Elec       q    Type
REMARK                         _______ _______ _______ _____ _____    ______ ____
ROOT
ATOM      1  N   UNL     1      37.630 -22.998 -16.431  0.00  0.00    -0.276 N 
ATOM      2  N   UNL     1      37.284 -22.419 -17.594  0.00  0.00    -0.173 NA
ATOM      3  C   UNL     1      35.437 -23.014 -16.381  0.00  0.00    +0.036 A 
ATOM      4  C   UNL     1      35.947 -22.429 -17.563  0.00  0.00    +0.102 A 
ATOM      5  C   UNL     1      36.567 -23.379 -15.657  0.00  0.00    +0.075 A 
ATOM      6  C   UNL     1      34.164 -23.276 -15.847  0.00  0.00    +0.006 C 
ATOM      7  C   UNL     1      34.079 -23.898 -14.595  0.00  0.00    +0.033 C 
ATOM      8  C   UNL     1      36.504 -24.000 -14.408  0.00  0.00    +0.019 C 
ATOM      9  C   UNL     1      35.230 -24.253 -13.890  0.00  0.00    +0.004 C 
ATOM     10  H   UNL     1      38.566 -23.136 -16.161  0.00  0.00    +0.189 HD
ENDROOT
BRANCH   7  14
ATOM     11  N   UNL     1      32.424 -25.404 -13.568  0.00  0.00    -0.218 N 
ATOM     12  N   UNL     1      31.787 -23.336 -13.874  0.00  0.00    -0.206 NA
ATOM     13  N   UNL     1      31.169 -25.395 -13.094  0.00  0.00    -0.157 NA
ATOM     14  C   UNL     1      32.781 -24.177 -14.028  0.00  0.00    +0.149 C 
ATOM     15  C   UNL     1      30.828 -24.122 -13.302  0.00  0.00    +0.218 C 
ATOM     16  H   UNL     1      33.010 -26.195 -13.579  0.00  0.00    +0.176 HD
ENDBRANCH   7  14
BRANCH   4  18
ATOM     17  C   UNL     1      35.089 -20.561 -20.666  0.00  0.00    +0.138 C 
ATOM     18  C   UNL     1      35.193 -21.881 -18.656  0.00  0.00    +0.022 C 
ATOM     19  C   UNL     1      35.826 -21.087 -19.611  0.00  0.00    +0.038 C 
ATOM     20  C   UNL     1      33.727 -20.818 -20.777  0.00  0.00    +0.037 C 
ATOM     21  C   UNL     1      33.827 -22.144 -18.760  0.00  0.00    +0.002 C 
ATOM     22  C   UNL     1      33.094 -21.612 -19.821  0.00  0.00    +0.003 C 
BRANCH  17  23
ATOM     23  O   UNL     1      35.711 -19.781 -21.606  0.00  0.00    -0.478 OA
BRANCH  23  24
ATOM     24  C   UNL     1      34.918 -19.346 -22.704  0.00  0.00    +0.183 C 
BRANCH  24  25
ATOM     25  C   UNL     1      35.579 -18.129 -23.330  0.00  0.00    -0.029 C 
BRANCH  25  26
ATOM     26  N   UNL     1      34.570 -17.177 -23.795  0.00  0.00    +0.389 N 
ATOM     27  C   UNL     1      34.861 -15.829 -23.284  0.00  0.00    -0.077 C 
ATOM     28  C   UNL     1      34.493 -17.184 -25.262  0.00  0.00    -0.077 C 
ATOM     29  C   UNL     1      33.788 -14.831 -23.721  0.00  0.00    -0.023 C 
ATOM     30  C   UNL     1      33.408 -16.229 -25.763  0.00  0.00    -0.023 C 
ATOM     31  C   UNL     1      33.627 -14.815 -25.237  0.00  0.00    -0.004 C 
ATOM     32  H   UNL     1      33.660 -17.461 -23.431  0.00  0.00    -0.080 HD
ENDBRANCH  25  26
ENDBRANCH  24  25
ENDBRANCH  23  24
ENDBRANCH  17  23
ENDBRANCH   4  18
TORSDOF 6
ENDMDL
MODEL 7
REMARK VINA RESULT:     -11.0      7.812     12.705
REMARK  Name = 10430360
REMARK  6 active torsions:
REMARK  status: ('A' for Active; 'I' for Inactive)
REMARK    1  A    between atoms: C_4  and  C_18
REMARK    2  A    between atoms: C_7  and  C_14
REMARK    3  A    between atoms: C_17  and  O_23
REMARK    4  A    between atoms: O_23  and  C_24
REMARK    5  A    between atoms: C_24  and  C_25
REMARK    6  A    between atoms: C_25  and  N_26
REMARK                            x       y       z     vdW  Elec       q    Type
REMARK                         _______ _______ _______ _____ _____    ______ ____
ROOT
ATOM      1  N   UNL     1      32.336 -13.263 -20.712  0.00  0.00    -0.276 N 
ATOM      2  N   UNL     1      32.707 -13.820 -21.877  0.00  0.00    -0.173 NA
ATOM      3  C   UNL     1      32.388 -11.565 -22.100  0.00  0.00    +0.036 A 
ATOM      4  C   UNL     1      32.739 -12.785 -22.724  0.00  0.00    +0.102 A 
ATOM      5  C   UNL     1      32.128 -11.911 -20.778  0.00  0.00    +0.075 A 
ATOM      6  C   UNL     1      32.261 -10.223 -22.497  0.00  0.00    +0.006 C 
ATOM      7  C   UNL     1      31.876  -9.276 -21.541  0.00  0.00    +0.033 C 
ATOM      8  C   UNL     1      31.742 -10.982 -19.810  0.00  0.00    +0.019 C 
ATOM      9  C   UNL     1      31.621  -9.651 -20.221  0.00  0.00    +0.004 C 
ATOM     10  H   UNL     1      32.223 -13.781 -19.883  0.00  0.00    +0.189 HD
ENDROOT
BRANCH   7  14
ATOM     11  N   UNL     1      32.190  -6.864 -21.165  0.00  0.00    -0.218 N 
ATOM     12  N   UNL     1      31.185  -7.427 -23.021  0.00  0.00    -0.206 NA
ATOM     13  N   UNL     1      31.938  -5.682 -21.749  0.00  0.00    -0.157 NA
ATOM     14  C   UNL     1      31.739  -7.892 -21.929  0.00  0.00    +0.149 C 
ATOM     15  C   UNL     1      31.330  -6.077 -22.869  0.00  0.00    +0.218 C 
ATOM     16  H   UNL     1      32.643  -6.970 -20.297  0.00  0.00    +0.176 HD
ENDBRANCH   7  14
BRANCH   4  18
ATOM     17  C   UNL     1      33.441 -14.451 -25.977  0.00  0.00    +0.138 C 
ATOM     18  C   UNL     1      33.103 -12.984 -24.098  0.00  0.00    +0.022 C 
ATOM     19  C   UNL     1      33.087 -14.267 -24.645  0.00  0.00    +0.038 C 
ATOM     20  C   UNL     1      33.811 -13.370 -26.768  0.00  0.00    +0.037 C 
ATOM     21  C   UNL     1      33.473 -11.895 -24.886  0.00  0.00    +0.002 C 
ATOM     22  C   UNL     1      33.827 -12.087 -26.221  0.00  0.00    +0.003 C 
BRANCH  17  23
ATOM     23  O   UNL     1      33.424 -15.711 -26.515  0.00  0.00    -0.478 OA
BRANCH  23  24
ATOM     24  C   UNL     1      33.203 -16.791 -25.616  0.00  0.00    +0.183 C 
BRANCH  24  25
ATOM     25  C   UNL     1      34.548 -17.374 -25.214  0.00  0.00    -0.029 C 
BRANCH  25  26
ATOM     26  N   UNL     1      34.547 -17.747 -23.800  0.00  0.00    +0.389 N 
ATOM     27  C   UNL     1      34.960 -19.148 -23.636  0.00  0.00    -0.077 C 
ATOM     28  C   UNL     1      35.412 -16.843 -23.029  0.00  0.00    -0.077 C 
ATOM     29  C   UNL     1      34.917 -19.567 -22.166  0.00  0.00    -0.023 C 
ATOM     30  C   UNL     1      35.384 -17.189 -21.539  0.00  0.00    -0.023 C 
ATOM     31  C   UNL     1      35.767 -18.645 -21.300  0.00  0.00    -0.004 C 
ATOM     32  H   UNL     1      33.597 -17.655 -23.438  0.00  0.00    -0.080 HD
ENDBRANCH  25  26
ENDBRANCH  24  25
ENDBRANCH  23  24
ENDBRANCH  17  23
ENDBRANCH   4  18
TORSDOF 6
ENDMDL
MODEL 8
REMARK VINA RESULT:     -10.8      3.185      6.469
REMARK  Name = 10430360
REMARK  6 active torsions:
REMARK  status: ('A' for Active; 'I' for Inactive)
REMARK    1  A    between atoms: C_4  and  C_18
REMARK    2  A    between atoms: C_7  and  C_14
REMARK    3  A    between atoms: C_17  and  O_23
REMARK    4  A    between atoms: O_23  and  C_24
REMARK    5  A    between atoms: C_24  and  C_25
REMARK    6  A    between atoms: C_25  and  N_26
REMARK                            x       y       z     vdW  Elec       q    Type
REMARK                         _______ _______ _______ _____ _____    ______ ____
ROOT
ATOM      1  N   UNL     1      32.273 -21.741 -19.674  0.00  0.00    -0.276 N 
ATOM      2  N   UNL     1      32.871 -20.914 -20.548  0.00  0.00    -0.173 NA
ATOM      3  C   UNL     1      34.370 -21.743 -19.031  0.00  0.00    +0.036 A 
ATOM      4  C   UNL     1      34.150 -20.915 -20.156  0.00  0.00    +0.102 A 
ATOM      5  C   UNL     1      33.118 -22.272 -18.737  0.00  0.00    +0.075 A 
ATOM      6  C   UNL     1      35.472 -22.101 -18.236  0.00  0.00    +0.006 C 
ATOM      7  C   UNL     1      35.268 -22.984 -17.169  0.00  0.00    +0.033 C 
ATOM      8  C   UNL     1      32.894 -23.154 -17.678  0.00  0.00    +0.019 C 
ATOM      9  C   UNL     1      34.001 -23.500 -16.896  0.00  0.00    +0.004 C 
ATOM     10  H   UNL     1      31.311 -21.946 -19.705  0.00  0.00    +0.189 HD
ENDROOT
BRANCH   7  14
ATOM     11  N   UNL     1      37.607 -22.773 -16.428  0.00  0.00    -0.218 N 
ATOM     12  N   UNL     1      36.408 -24.294 -15.416  0.00  0.00    -0.206 NA
ATOM     13  N   UNL     1      38.468 -23.309 -15.550  0.00  0.00    -0.157 NA
ATOM     14  C   UNL     1      36.387 -23.365 -16.339  0.00  0.00    +0.149 C 
ATOM     15  C   UNL     1      37.695 -24.224 -14.963  0.00  0.00    +0.218 C 
ATOM     16  H   UNL     1      37.830 -22.045 -17.053  0.00  0.00    +0.176 HD
ENDBRANCH   7  14
BRANCH   4  18
ATOM     17  C   UNL     1      35.688 -18.603 -22.634  0.00  0.00    +0.138 C 
ATOM     18  C   UNL     1      35.125 -20.132 -20.862  0.00  0.00    +0.022 C 
ATOM     19  C   UNL     1      34.738 -19.358 -21.957  0.00  0.00    +0.038 C 
ATOM     20  C   UNL     1      37.019 -18.611 -22.233  0.00  0.00    +0.037 C 
ATOM     21  C   UNL     1      36.458 -20.145 -20.454  0.00  0.00    +0.002 C 
ATOM     22  C   UNL     1      37.406 -19.385 -21.138  0.00  0.00    +0.003 C 
BRANCH  17  23
ATOM     23  O   UNL     1      35.309 -17.842 -23.709  0.00  0.00    -0.478 OA
BRANCH  23  24
ATOM     24  C   UNL     1      35.077 -16.460 -23.466  0.00  0.00    +0.183 C 
BRANCH  24  25
ATOM     25  C   UNL     1      33.874 -16.016 -24.283  0.00  0.00    -0.029 C 
BRANCH  25  26
ATOM     26  N   UNL     1      34.065 -14.656 -24.785  0.00  0.00    +0.389 N 
ATOM     27  C   UNL     1      33.232 -14.424 -25.973  0.00  0.00    -0.077 C 
ATOM     28  C   UNL     1      33.776 -13.673 -23.732  0.00  0.00    -0.077 C 
ATOM     29  C   UNL     1      33.457 -13.021 -26.540  0.00  0.00    -0.023 C 
ATOM     30  C   UNL     1      34.019 -12.246 -24.226  0.00  0.00    -0.023 C 
ATOM     31  C   UNL     1      33.210 -11.949 -25.484  0.00  0.00    -0.004 C 
ATOM     32  H   UNL     1      35.042 -14.542 -25.060  0.00  0.00    -0.080 HD
ENDBRANCH  25  26
ENDBRANCH  24  25
ENDBRANCH  23  24
ENDBRANCH  17  23
ENDBRANCH   4  18
TORSDOF 6
ENDMDL
MODEL 9
REMARK VINA RESULT:     -10.7      1.446      2.417
REMARK  Name = 10430360
REMARK  6 active torsions:
REMARK  status: ('A' for Active; 'I' for Inactive)
REMARK    1  A    between atoms: C_4  and  C_18
REMARK    2  A    between atoms: C_7  and  C_14
REMARK    3  A    between atoms: C_17  and  O_23
REMARK    4  A    between atoms: O_23  and  C_24
REMARK    5  A    between atoms: C_24  and  C_25
REMARK    6  A    between atoms: C_25  and  N_26
REMARK                            x       y       z     vdW  Elec       q    Type
REMARK                         _______ _______ _______ _____ _____    ______ ____
ROOT
ATOM      1  N   UNL     1      34.202 -24.164 -15.910  0.00  0.00    -0.276 N 
ATOM      2  N   UNL     1      34.744 -23.500 -16.945  0.00  0.00    -0.173 NA
ATOM      3  C   UNL     1      32.483 -23.162 -16.833  0.00  0.00    +0.036 A 
ATOM      4  C   UNL     1      33.695 -22.889 -17.508  0.00  0.00    +0.102 A 
ATOM      5  C   UNL     1      32.848 -24.003 -15.787  0.00  0.00    +0.075 A 
ATOM      6  C   UNL     1      31.134 -22.799 -16.985  0.00  0.00    +0.006 C 
ATOM      7  C   UNL     1      30.200 -23.301 -16.070  0.00  0.00    +0.033 C 
ATOM      8  C   UNL     1      31.933 -24.515 -14.866  0.00  0.00    +0.019 C 
ATOM      9  C   UNL     1      30.594 -24.144 -15.030  0.00  0.00    +0.004 C 
ATOM     10  H   UNL     1      34.734 -24.719 -15.295  0.00  0.00    +0.189 HD
ENDROOT
BRANCH   7  14
ATOM     11  N   UNL     1      27.895 -23.135 -15.223  0.00  0.00    -0.218 N 
ATOM     12  N   UNL     1      28.230 -22.401 -17.253  0.00  0.00    -0.206 NA
ATOM     13  N   UNL     1      26.678 -22.717 -15.604  0.00  0.00    -0.157 NA
ATOM     14  C   UNL     1      28.808 -22.942 -16.209  0.00  0.00    +0.149 C 
ATOM     15  C   UNL     1      26.934 -22.283 -16.839  0.00  0.00    +0.218 C 
ATOM     16  H   UNL     1      28.098 -23.527 -14.343  0.00  0.00    +0.176 HD
ENDBRANCH   7  14
BRANCH   4  18
ATOM     17  C   UNL     1      35.310 -20.780 -20.116  0.00  0.00    +0.138 C 
ATOM     18  C   UNL     1      33.876 -22.062 -18.668  0.00  0.00    +0.022 C 
ATOM     19  C   UNL     1      35.144 -21.580 -18.991  0.00  0.00    +0.038 C 
ATOM     20  C   UNL     1      34.225 -20.457 -20.922  0.00  0.00    +0.037 C 
ATOM     21  C   UNL     1      32.782 -21.742 -19.472  0.00  0.00    +0.002 C 
ATOM     22  C   UNL     1      32.956 -20.939 -20.600  0.00  0.00    +0.003 C 
BRANCH  17  23
ATOM     23  O   UNL     1      36.556 -20.307 -20.434  0.00  0.00    -0.478 OA
BRANCH  23  24
ATOM     24  C   UNL     1      36.673 -19.575 -21.648  0.00  0.00    +0.183 C 
BRANCH  24  25
ATOM     25  C   UNL     1      36.157 -18.164 -21.418  0.00  0.00    -0.029 C 
BRANCH  25  26
ATOM     26  N   UNL     1      35.201 -17.788 -22.461  0.00  0.00    +0.389 N 
ATOM     27  C   UNL     1      35.401 -16.389 -22.862  0.00  0.00    -0.077 C 
ATOM     28  C   UNL     1      35.315 -18.694 -23.613  0.00  0.00    -0.077 C 
ATOM     29  C   UNL     1      34.378 -15.966 -23.917  0.00  0.00    -0.023 C 
ATOM     30  C   UNL     1      34.288 -18.346 -24.692  0.00  0.00    -0.023 C 
ATOM     31  C   UNL     1      34.415 -16.891 -25.129  0.00  0.00    -0.004 C 
ATOM     32  H   UNL     1      34.256 -17.876 -22.085  0.00  0.00    -0.080 HD
ENDBRANCH  25  26
ENDBRANCH  24  25
ENDBRANCH  23  24
ENDBRANCH  17  23
ENDBRANCH   4  18
TORSDOF 6
ENDMDL
