MODEL 1
REMARK VINA RESULT:     -11.1      0.000      0.000
REMARK  Name = 9896504
REMARK  6 active torsions:
REMARK  status: ('A' for Active; 'I' for Inactive)
REMARK    1  A    between atoms: N_4  and  C_22
REMARK    2  A    between atoms: C_11  and  C_13
REMARK    3  A    between atoms: C_13  and  O_14
REMARK    4  A    between atoms: O_14  and  C_15
REMARK    5  A    between atoms: C_15  and  C_16
REMARK    6  A    between atoms: C_22  and  C_23
REMARK                            x       y       z     vdW  Elec       q    Type
REMARK                         _______ _______ _______ _____ _____    ______ ____
ROOT
ATOM      1  S   UNL     1      33.698 -14.988 -24.612  0.00  0.00    -0.064 S 
ATOM      2  O   UNL     1      35.551 -16.810 -20.441  0.00  0.00    -0.251 OA
ATOM      3  O   UNL     1      35.553 -19.677 -24.146  0.00  0.00    -0.269 OA
ATOM      4  N   UNL     1      35.590 -18.290 -22.257  0.00  0.00    -0.206 N 
ATOM      5  N   UNL     1      34.718 -16.114 -22.480  0.00  0.00    -0.214 N 
ATOM      6  C   UNL     1      34.429 -16.349 -23.805  0.00  0.00    +0.094 C 
ATOM      7  C   UNL     1      35.306 -17.046 -21.627  0.00  0.00    +0.321 C 
ATOM      8  C   UNL     1      35.317 -18.599 -23.602  0.00  0.00    +0.258 C 
ATOM      9  C   UNL     1      34.692 -17.514 -24.398  0.00  0.00    +0.080 C 
ATOM     10  C   UNL     1      34.342 -14.837 -22.132  0.00  0.00    +0.087 C 
ATOM     11  C   UNL     1      33.800 -14.131 -23.124  0.00  0.00    +0.122 C 
ENDROOT
BRANCH  11  13
ATOM     12  O   UNL     1      32.323 -12.433 -22.377  0.00  0.00    -0.244 OA
ATOM     13  C   UNL     1      33.325 -12.763 -23.007  0.00  0.00    +0.349 C 
BRANCH  13  14
ATOM     14  O   UNL     1      34.160 -11.939 -23.697  0.00  0.00    -0.440 OA
BRANCH  14  15
ATOM     15  C   UNL     1      33.527 -10.986 -24.557  0.00  0.00    +0.235 C 
BRANCH  15  16
ATOM     16  C   UNL     1      33.534  -9.643 -23.888  0.00  0.00    +0.021 C 
ATOM     17  C   UNL     1      32.371  -9.159 -23.301  0.00  0.00    -0.001 C 
ATOM     18  C   UNL     1      34.705  -8.893 -23.861  0.00  0.00    -0.001 C 
ATOM     19  C   UNL     1      32.378  -7.910 -22.679  0.00  0.00    -0.000 C 
ATOM     20  C   UNL     1      34.713  -7.645 -23.239  0.00  0.00    -0.000 C 
ATOM     21  C   UNL     1      33.549  -7.154 -22.648  0.00  0.00    -0.000 C 
ENDBRANCH  15  16
ENDBRANCH  14  15
ENDBRANCH  13  14
ENDBRANCH  11  13
BRANCH   4  22
ATOM     22  C   UNL     1      36.210 -19.344 -21.462  0.00  0.00    +0.129 C 
BRANCH  22  23
ATOM     23  C   UNL     1      35.188 -20.227 -20.806  0.00  0.00    -0.002 C 
ATOM     24  C   UNL     1      35.604 -21.252 -19.965  0.00  0.00    -0.003 C 
ATOM     25  C   UNL     1      33.836 -20.008 -21.044  0.00  0.00    -0.003 C 
ATOM     26  C   UNL     1      34.654 -22.073 -19.355  0.00  0.00    -0.000 C 
ATOM     27  C   UNL     1      32.887 -20.828 -20.433  0.00  0.00    -0.000 C 
ATOM     28  C   UNL     1      33.296 -21.860 -19.589  0.00  0.00    -0.000 C 
ENDBRANCH  22  23
ENDBRANCH   4  22
TORSDOF 6
ENDMDL
MODEL 2
REMARK VINA RESULT:     -10.9      1.328      1.780
REMARK  Name = 9896504
REMARK  6 active torsions:
REMARK  status: ('A' for Active; 'I' for Inactive)
REMARK    1  A    between atoms: N_4  and  C_22
REMARK    2  A    between atoms: C_11  and  C_13
REMARK    3  A    between atoms: C_13  and  O_14
REMARK    4  A    between atoms: O_14  and  C_15
REMARK    5  A    between atoms: C_15  and  C_16
REMARK    6  A    between atoms: C_22  and  C_23
REMARK                            x       y       z     vdW  Elec       q    Type
REMARK                         _______ _______ _______ _____ _____    ______ ____
ROOT
ATOM      1  S   UNL     1      33.808 -15.369 -24.760  0.00  0.00    -0.064 S 
ATOM      2  O   UNL     1      35.752 -17.123 -20.601  0.00  0.00    -0.251 OA
ATOM      3  O   UNL     1      35.339 -20.157 -24.146  0.00  0.00    -0.269 OA
ATOM      4  N   UNL     1      35.582 -18.688 -22.337  0.00  0.00    -0.206 N 
ATOM      5  N   UNL     1      34.860 -16.465 -22.627  0.00  0.00    -0.214 N 
ATOM      6  C   UNL     1      34.482 -16.741 -23.922  0.00  0.00    +0.094 C 
ATOM      7  C   UNL     1      35.425 -17.397 -21.758  0.00  0.00    +0.321 C 
ATOM      8  C   UNL     1      35.212 -19.039 -23.648  0.00  0.00    +0.258 C 
ATOM      9  C   UNL     1      34.625 -17.949 -24.466  0.00  0.00    +0.080 C 
ATOM     10  C   UNL     1      34.599 -15.148 -22.328  0.00  0.00    +0.087 C 
ATOM     11  C   UNL     1      34.055 -14.451 -23.326  0.00  0.00    +0.122 C 
ENDROOT
BRANCH  11  13
ATOM     12  O   UNL     1      33.901 -12.235 -24.152  0.00  0.00    -0.244 OA
ATOM     13  C   UNL     1      33.689 -13.047 -23.256  0.00  0.00    +0.349 C 
BRANCH  13  14
ATOM     14  O   UNL     1      33.088 -12.801 -22.059  0.00  0.00    -0.440 OA
BRANCH  14  15
ATOM     15  C   UNL     1      31.801 -12.178 -22.123  0.00  0.00    +0.235 C 
BRANCH  15  16
ATOM     16  C   UNL     1      31.876 -10.831 -21.466  0.00  0.00    +0.021 C 
ATOM     17  C   UNL     1      31.673 -10.722 -20.095  0.00  0.00    -0.001 C 
ATOM     18  C   UNL     1      32.146  -9.704 -22.234  0.00  0.00    -0.001 C 
ATOM     19  C   UNL     1      31.743  -9.469 -19.484  0.00  0.00    -0.000 C 
ATOM     20  C   UNL     1      32.216  -8.452 -21.623  0.00  0.00    -0.000 C 
ATOM     21  C   UNL     1      32.014  -8.336 -20.248  0.00  0.00    -0.000 C 
ENDBRANCH  15  16
ENDBRANCH  14  15
ENDBRANCH  13  14
ENDBRANCH  11  13
BRANCH   4  22
ATOM     22  C   UNL     1      36.165 -19.746 -21.521  0.00  0.00    +0.129 C 
BRANCH  22  23
ATOM     23  C   UNL     1      35.122 -20.498 -20.746  0.00  0.00    -0.002 C 
ATOM     24  C   UNL     1      35.512 -21.465 -19.827  0.00  0.00    -0.003 C 
ATOM     25  C   UNL     1      33.777 -20.218 -20.954  0.00  0.00    -0.003 C 
ATOM     26  C   UNL     1      34.543 -22.164 -19.107  0.00  0.00    -0.000 C 
ATOM     27  C   UNL     1      32.808 -20.916 -20.233  0.00  0.00    -0.000 C 
ATOM     28  C   UNL     1      33.191 -21.889 -19.310  0.00  0.00    -0.000 C 
ENDBRANCH  22  23
ENDBRANCH   4  22
TORSDOF 6
ENDMDL
MODEL 3
REMARK VINA RESULT:     -10.8      4.286     10.956
REMARK  Name = 9896504
REMARK  6 active torsions:
REMARK  status: ('A' for Active; 'I' for Inactive)
REMARK    1  A    between atoms: N_4  and  C_22
REMARK    2  A    between atoms: C_11  and  C_13
REMARK    3  A    between atoms: C_13  and  O_14
REMARK    4  A    between atoms: O_14  and  C_15
REMARK    5  A    between atoms: C_15  and  C_16
REMARK    6  A    between atoms: C_22  and  C_23
REMARK                            x       y       z     vdW  Elec       q    Type
REMARK                         _______ _______ _______ _____ _____    ______ ____
ROOT
ATOM      1  S   UNL     1      35.956 -22.035 -18.503  0.00  0.00    -0.064 S 
ATOM      2  O   UNL     1      33.564 -19.603 -22.040  0.00  0.00    -0.251 OA
ATOM      3  O   UNL     1      38.165 -18.789 -21.702  0.00  0.00    -0.269 OA
ATOM      4  N   UNL     1      35.862 -19.159 -21.931  0.00  0.00    -0.206 N 
ATOM      5  N   UNL     1      34.841 -20.663 -20.434  0.00  0.00    -0.214 N 
ATOM      6  C   UNL     1      36.051 -20.897 -19.820  0.00  0.00    +0.094 C 
ATOM      7  C   UNL     1      34.661 -19.796 -21.511  0.00  0.00    +0.321 C 
ATOM      8  C   UNL     1      37.127 -19.347 -21.345  0.00  0.00    +0.258 C 
ATOM      9  C   UNL     1      37.177 -20.300 -20.209  0.00  0.00    +0.080 C 
ATOM     10  C   UNL     1      33.852 -21.406 -19.832  0.00  0.00    +0.087 C 
ATOM     11  C   UNL     1      34.270 -22.165 -18.818  0.00  0.00    +0.122 C 
ENDROOT
BRANCH  11  13
ATOM     12  O   UNL     1      32.192 -22.973 -18.012  0.00  0.00    -0.244 OA
ATOM     13  C   UNL     1      33.418 -23.036 -18.026  0.00  0.00    +0.349 C 
BRANCH  13  14
ATOM     14  O   UNL     1      34.197 -23.904 -17.324  0.00  0.00    -0.440 OA
BRANCH  14  15
ATOM     15  C   UNL     1      33.986 -23.928 -15.909  0.00  0.00    +0.235 C 
BRANCH  15  16
ATOM     16  C   UNL     1      35.297 -24.183 -15.223  0.00  0.00    +0.021 C 
ATOM     17  C   UNL     1      36.064 -23.111 -14.784  0.00  0.00    -0.001 C 
ATOM     18  C   UNL     1      35.732 -25.490 -15.033  0.00  0.00    -0.001 C 
ATOM     19  C   UNL     1      37.282 -23.348 -14.146  0.00  0.00    -0.000 C 
ATOM     20  C   UNL     1      36.950 -25.727 -14.395  0.00  0.00    -0.000 C 
ATOM     21  C   UNL     1      37.724 -24.655 -13.952  0.00  0.00    -0.000 C 
ENDBRANCH  15  16
ENDBRANCH  14  15
ENDBRANCH  13  14
ENDBRANCH  11  13
BRANCH   4  22
ATOM     22  C   UNL     1      35.797 -18.229 -23.053  0.00  0.00    +0.129 C 
BRANCH  22  23
ATOM     23  C   UNL     1      35.273 -16.885 -22.638  0.00  0.00    -0.002 C 
ATOM     24  C   UNL     1      34.834 -15.990 -23.606  0.00  0.00    -0.003 C 
ATOM     25  C   UNL     1      35.231 -16.549 -21.290  0.00  0.00    -0.003 C 
ATOM     26  C   UNL     1      34.347 -14.740 -23.222  0.00  0.00    -0.000 C 
ATOM     27  C   UNL     1      34.743 -15.300 -20.905  0.00  0.00    -0.000 C 
ATOM     28  C   UNL     1      34.302 -14.396 -21.871  0.00  0.00    -0.000 C 
ENDBRANCH  22  23
ENDBRANCH   4  22
TORSDOF 6
ENDMDL
MODEL 4
REMARK VINA RESULT:     -10.7      1.217      2.202
REMARK  Name = 9896504
REMARK  6 active torsions:
REMARK  status: ('A' for Active; 'I' for Inactive)
REMARK    1  A    between atoms: N_4  and  C_22
REMARK    2  A    between atoms: C_11  and  C_13
REMARK    3  A    between atoms: C_13  and  O_14
REMARK    4  A    between atoms: O_14  and  C_15
REMARK    5  A    between atoms: C_15  and  C_16
REMARK    6  A    between atoms: C_22  and  C_23
REMARK                            x       y       z     vdW  Elec       q    Type
REMARK                         _______ _______ _______ _____ _____    ______ ____
ROOT
ATOM      1  S   UNL     1      34.183 -13.805 -22.763  0.00  0.00    -0.064 S 
ATOM      2  O   UNL     1      34.666 -18.281 -24.733  0.00  0.00    -0.251 OA
ATOM      3  O   UNL     1      35.961 -17.828 -20.254  0.00  0.00    -0.269 OA
ATOM      4  N   UNL     1      35.321 -18.124 -22.489  0.00  0.00    -0.206 N 
ATOM      5  N   UNL     1      34.503 -16.247 -23.652  0.00  0.00    -0.214 N 
ATOM      6  C   UNL     1      34.662 -15.464 -22.530  0.00  0.00    +0.094 C 
ATOM      7  C   UNL     1      34.815 -17.604 -23.713  0.00  0.00    +0.321 C 
ATOM      8  C   UNL     1      35.514 -17.382 -21.310  0.00  0.00    +0.258 C 
ATOM      9  C   UNL     1      35.139 -15.948 -21.383  0.00  0.00    +0.080 C 
ATOM     10  C   UNL     1      33.998 -15.494 -24.686  0.00  0.00    +0.087 C 
ATOM     11  C   UNL     1      33.779 -14.214 -24.385  0.00  0.00    +0.122 C 
ENDROOT
BRANCH  11  13
ATOM     12  O   UNL     1      32.998 -13.444 -26.486  0.00  0.00    -0.244 OA
ATOM     13  C   UNL     1      33.251 -13.221 -25.305  0.00  0.00    +0.349 C 
BRANCH  13  14
ATOM     14  O   UNL     1      33.092 -12.041 -24.645  0.00  0.00    -0.440 OA
BRANCH  14  15
ATOM     15  C   UNL     1      34.118 -11.066 -24.857  0.00  0.00    +0.235 C 
BRANCH  15  16
ATOM     16  C   UNL     1      33.884  -9.903 -23.937  0.00  0.00    +0.021 C 
ATOM     17  C   UNL     1      32.795  -9.916 -23.073  0.00  0.00    -0.001 C 
ATOM     18  C   UNL     1      34.759  -8.823 -23.957  0.00  0.00    -0.001 C 
ATOM     19  C   UNL     1      32.579  -8.836 -22.217  0.00  0.00    -0.000 C 
ATOM     20  C   UNL     1      34.543  -7.742 -23.101  0.00  0.00    -0.000 C 
ATOM     21  C   UNL     1      33.453  -7.750 -22.232  0.00  0.00    -0.000 C 
ENDBRANCH  15  16
ENDBRANCH  14  15
ENDBRANCH  13  14
ENDBRANCH  11  13
BRANCH   4  22
ATOM     22  C   UNL     1      35.681 -19.537 -22.433  0.00  0.00    +0.129 C 
BRANCH  22  23
ATOM     23  C   UNL     1      34.893 -20.276 -21.391  0.00  0.00    -0.002 C 
ATOM     24  C   UNL     1      33.510 -20.142 -21.352  0.00  0.00    -0.003 C 
ATOM     25  C   UNL     1      35.554 -21.088 -20.477  0.00  0.00    -0.003 C 
ATOM     26  C   UNL     1      32.777 -20.829 -20.383  0.00  0.00    -0.000 C 
ATOM     27  C   UNL     1      34.821 -21.775 -19.509  0.00  0.00    -0.000 C 
ATOM     28  C   UNL     1      33.433 -21.646 -19.462  0.00  0.00    -0.000 C 
ENDBRANCH  22  23
ENDBRANCH   4  22
TORSDOF 6
ENDMDL
MODEL 5
REMARK VINA RESULT:     -10.7      4.361     10.738
REMARK  Name = 9896504
REMARK  6 active torsions:
REMARK  status: ('A' for Active; 'I' for Inactive)
REMARK    1  A    between atoms: N_4  and  C_22
REMARK    2  A    between atoms: C_11  and  C_13
REMARK    3  A    between atoms: C_13  and  O_14
REMARK    4  A    between atoms: O_14  and  C_15
REMARK    5  A    between atoms: C_15  and  C_16
REMARK    6  A    between atoms: C_22  and  C_23
REMARK                            x       y       z     vdW  Elec       q    Type
REMARK                         _______ _______ _______ _____ _____    ______ ____
ROOT
ATOM      1  S   UNL     1      36.106 -22.165 -18.493  0.00  0.00    -0.064 S 
ATOM      2  O   UNL     1      33.605 -19.845 -22.031  0.00  0.00    -0.251 OA
ATOM      3  O   UNL     1      38.123 -18.695 -21.580  0.00  0.00    -0.269 OA
ATOM      4  N   UNL     1      35.860 -19.232 -21.864  0.00  0.00    -0.206 N 
ATOM      5  N   UNL     1      34.927 -20.840 -20.419  0.00  0.00    -0.214 N 
ATOM      6  C   UNL     1      36.139 -20.995 -19.785  0.00  0.00    +0.094 C 
ATOM      7  C   UNL     1      34.703 -19.966 -21.482  0.00  0.00    +0.321 C 
ATOM      8  C   UNL     1      37.125 -19.336 -21.257  0.00  0.00    +0.258 C 
ATOM      9  C   UNL     1      37.224 -20.307 -20.138  0.00  0.00    +0.080 C 
ATOM     10  C   UNL     1      33.986 -21.668 -19.852  0.00  0.00    +0.087 C 
ATOM     11  C   UNL     1      34.440 -22.414 -18.845  0.00  0.00    +0.122 C 
ENDROOT
BRANCH  11  13
ATOM     12  O   UNL     1      33.608 -24.569 -18.315  0.00  0.00    -0.244 OA
ATOM     13  C   UNL     1      33.642 -23.363 -18.088  0.00  0.00    +0.349 C 
BRANCH  13  14
ATOM     14  O   UNL     1      32.962 -22.698 -17.114  0.00  0.00    -0.440 OA
BRANCH  14  15
ATOM     15  C   UNL     1      32.734 -23.426 -15.904  0.00  0.00    +0.235 C 
BRANCH  15  16
ATOM     16  C   UNL     1      31.275 -23.766 -15.805  0.00  0.00    +0.021 C 
ATOM     17  C   UNL     1      30.347 -23.041 -16.543  0.00  0.00    -0.001 C 
ATOM     18  C   UNL     1      30.865 -24.803 -14.975  0.00  0.00    -0.001 C 
ATOM     19  C   UNL     1      28.992 -23.357 -16.451  0.00  0.00    -0.000 C 
ATOM     20  C   UNL     1      29.509 -25.119 -14.883  0.00  0.00    -0.000 C 
ATOM     21  C   UNL     1      28.573 -24.396 -15.622  0.00  0.00    -0.000 C 
ENDBRANCH  15  16
ENDBRANCH  14  15
ENDBRANCH  13  14
ENDBRANCH  11  13
BRANCH   4  22
ATOM     22  C   UNL     1      35.746 -18.286 -22.969  0.00  0.00    +0.129 C 
BRANCH  22  23
ATOM     23  C   UNL     1      35.267 -16.940 -22.508  0.00  0.00    -0.002 C 
ATOM     24  C   UNL     1      34.902 -15.983 -23.447  0.00  0.00    -0.003 C 
ATOM     25  C   UNL     1      35.192 -16.665 -21.148  0.00  0.00    -0.003 C 
ATOM     26  C   UNL     1      34.456 -14.731 -23.020  0.00  0.00    -0.000 C 
ATOM     27  C   UNL     1      34.746 -15.415 -20.720  0.00  0.00    -0.000 C 
ATOM     28  C   UNL     1      34.378 -14.448 -21.656  0.00  0.00    -0.000 C 
ENDBRANCH  22  23
ENDBRANCH   4  22
TORSDOF 6
ENDMDL
MODEL 6
REMARK VINA RESULT:     -10.6      2.852     10.453
REMARK  Name = 9896504
REMARK  6 active torsions:
REMARK  status: ('A' for Active; 'I' for Inactive)
REMARK    1  A    between atoms: N_4  and  C_22
REMARK    2  A    between atoms: C_11  and  C_13
REMARK    3  A    between atoms: C_13  and  O_14
REMARK    4  A    between atoms: O_14  and  C_15
REMARK    5  A    between atoms: C_15  and  C_16
REMARK    6  A    between atoms: C_22  and  C_23
REMARK                            x       y       z     vdW  Elec       q    Type
REMARK                         _______ _______ _______ _____ _____    ______ ____
ROOT
ATOM      1  S   UNL     1      32.050 -12.892 -22.843  0.00  0.00    -0.064 S 
ATOM      2  O   UNL     1      35.139  -9.389 -24.371  0.00  0.00    -0.251 OA
ATOM      3  O   UNL     1      32.085  -8.160 -21.039  0.00  0.00    -0.269 OA
ATOM      4  N   UNL     1      33.645  -8.713 -22.698  0.00  0.00    -0.206 N 
ATOM      5  N   UNL     1      33.617 -10.913 -23.538  0.00  0.00    -0.214 N 
ATOM      6  C   UNL     1      32.580 -11.238 -22.693  0.00  0.00    +0.094 C 
ATOM      7  C   UNL     1      34.213  -9.654 -23.602  0.00  0.00    +0.321 C 
ATOM      8  C   UNL     1      32.583  -8.976 -21.814  0.00  0.00    +0.258 C 
ATOM      9  C   UNL     1      32.044 -10.359 -21.847  0.00  0.00    +0.080 C 
ATOM     10  C   UNL     1      33.969 -12.004 -24.298  0.00  0.00    +0.087 C 
ATOM     11  C   UNL     1      33.253 -13.102 -24.055  0.00  0.00    +0.122 C 
ENDROOT
BRANCH  11  13
ATOM     12  O   UNL     1      32.998 -14.634 -25.846  0.00  0.00    -0.244 OA
ATOM     13  C   UNL     1      33.433 -14.378 -24.727  0.00  0.00    +0.349 C 
BRANCH  13  14
ATOM     14  O   UNL     1      34.148 -15.210 -23.920  0.00  0.00    -0.440 OA
BRANCH  14  15
ATOM     15  C   UNL     1      34.608 -16.422 -24.526  0.00  0.00    +0.235 C 
BRANCH  15  16
ATOM     16  C   UNL     1      34.892 -17.429 -23.450  0.00  0.00    +0.021 C 
ATOM     17  C   UNL     1      35.427 -17.010 -22.238  0.00  0.00    -0.001 C 
ATOM     18  C   UNL     1      34.618 -18.774 -23.676  0.00  0.00    -0.001 C 
ATOM     19  C   UNL     1      35.691 -17.946 -21.238  0.00  0.00    -0.000 C 
ATOM     20  C   UNL     1      34.882 -19.710 -22.676  0.00  0.00    -0.000 C 
ATOM     21  C   UNL     1      35.418 -19.295 -21.457  0.00  0.00    -0.000 C 
ENDBRANCH  15  16
ENDBRANCH  14  15
ENDBRANCH  13  14
ENDBRANCH  11  13
BRANCH   4  22
ATOM     22  C   UNL     1      34.190  -7.360 -22.674  0.00  0.00    +0.129 C 
BRANCH  22  23
ATOM     23  C   UNL     1      33.743  -6.554 -23.859  0.00  0.00    -0.002 C 
ATOM     24  C   UNL     1      32.389  -6.306 -24.050  0.00  0.00    -0.003 C 
ATOM     25  C   UNL     1      34.688  -6.062 -24.751  0.00  0.00    -0.003 C 
ATOM     26  C   UNL     1      31.973  -5.557 -25.151  0.00  0.00    -0.000 C 
ATOM     27  C   UNL     1      34.272  -5.311 -25.852  0.00  0.00    -0.000 C 
ATOM     28  C   UNL     1      32.914  -5.059 -26.051  0.00  0.00    -0.000 C 
ENDBRANCH  22  23
ENDBRANCH   4  22
TORSDOF 6
ENDMDL
MODEL 7
REMARK VINA RESULT:     -10.3      4.341     10.991
REMARK  Name = 9896504
REMARK  6 active torsions:
REMARK  status: ('A' for Active; 'I' for Inactive)
REMARK    1  A    between atoms: N_4  and  C_22
REMARK    2  A    between atoms: C_11  and  C_13
REMARK    3  A    between atoms: C_13  and  O_14
REMARK    4  A    between atoms: O_14  and  C_15
REMARK    5  A    between atoms: C_15  and  C_16
REMARK    6  A    between atoms: C_22  and  C_23
REMARK                            x       y       z     vdW  Elec       q    Type
REMARK                         _______ _______ _______ _____ _____    ______ ____
ROOT
ATOM      1  S   UNL     1      33.783 -22.478 -18.734  0.00  0.00    -0.064 S 
ATOM      2  O   UNL     1      37.460 -19.649 -20.355  0.00  0.00    -0.251 OA
ATOM      3  O   UNL     1      33.438 -19.405 -22.745  0.00  0.00    -0.269 OA
ATOM      4  N   UNL     1      35.475 -19.473 -21.587  0.00  0.00    -0.206 N 
ATOM      5  N   UNL     1      35.630 -20.911 -19.729  0.00  0.00    -0.214 N 
ATOM      6  C   UNL     1      34.324 -21.308 -19.908  0.00  0.00    +0.094 C 
ATOM      7  C   UNL     1      36.287 -19.985 -20.537  0.00  0.00    +0.321 C 
ATOM      8  C   UNL     1      34.139 -19.840 -21.831  0.00  0.00    +0.258 C 
ATOM      9  C   UNL     1      33.561 -20.833 -20.893  0.00  0.00    +0.080 C 
ATOM     10  C   UNL     1      36.178 -21.558 -18.646  0.00  0.00    +0.087 C 
ATOM     11  C   UNL     1      35.349 -22.400 -18.027  0.00  0.00    +0.122 C 
ENDROOT
BRANCH  11  13
ATOM     12  O   UNL     1      36.818 -23.256 -16.375  0.00  0.00    -0.244 OA
ATOM     13  C   UNL     1      35.692 -23.198 -16.863  0.00  0.00    +0.349 C 
BRANCH  13  14
ATOM     14  O   UNL     1      34.580 -23.848 -16.423  0.00  0.00    -0.440 OA
BRANCH  14  15
ATOM     15  C   UNL     1      34.228 -23.626 -15.054  0.00  0.00    +0.235 C 
BRANCH  15  16
ATOM     16  C   UNL     1      32.791 -24.006 -14.850  0.00  0.00    +0.021 C 
ATOM     17  C   UNL     1      31.821 -23.527 -15.722  0.00  0.00    -0.001 C 
ATOM     18  C   UNL     1      32.441 -24.835 -13.789  0.00  0.00    -0.001 C 
ATOM     19  C   UNL     1      30.485 -23.881 -15.533  0.00  0.00    -0.000 C 
ATOM     20  C   UNL     1      31.105 -25.189 -13.599  0.00  0.00    -0.000 C 
ATOM     21  C   UNL     1      30.128 -24.711 -14.472  0.00  0.00    -0.000 C 
ENDBRANCH  15  16
ENDBRANCH  14  15
ENDBRANCH  13  14
ENDBRANCH  11  13
BRANCH   4  22
ATOM     22  C   UNL     1      36.056 -18.494 -22.498  0.00  0.00    +0.129 C 
BRANCH  22  23
ATOM     23  C   UNL     1      35.466 -17.127 -22.305  0.00  0.00    -0.002 C 
ATOM     24  C   UNL     1      35.264 -16.642 -21.018  0.00  0.00    -0.003 C 
ATOM     25  C   UNL     1      35.131 -16.359 -23.413  0.00  0.00    -0.003 C 
ATOM     26  C   UNL     1      34.716 -15.372 -20.837  0.00  0.00    -0.000 C 
ATOM     27  C   UNL     1      34.584 -15.089 -23.233  0.00  0.00    -0.000 C 
ATOM     28  C   UNL     1      34.376 -14.596 -21.945  0.00  0.00    -0.000 C 
ENDBRANCH  22  23
ENDBRANCH   4  22
TORSDOF 6
ENDMDL
MODEL 8
REMARK VINA RESULT:     -10.3      4.353     10.808
REMARK  Name = 9896504
REMARK  6 active torsions:
REMARK  status: ('A' for Active; 'I' for Inactive)
REMARK    1  A    between atoms: N_4  and  C_22
REMARK    2  A    between atoms: C_11  and  C_13
REMARK    3  A    between atoms: C_13  and  O_14
REMARK    4  A    between atoms: O_14  and  C_15
REMARK    5  A    between atoms: C_15  and  C_16
REMARK    6  A    between atoms: C_22  and  C_23
REMARK                            x       y       z     vdW  Elec       q    Type
REMARK                         _______ _______ _______ _____ _____    ______ ____
ROOT
ATOM      1  S   UNL     1      32.272 -10.782 -19.893  0.00  0.00    -0.064 S 
ATOM      2  O   UNL     1      31.386  -8.507 -24.158  0.00  0.00    -0.251 OA
ATOM      3  O   UNL     1      31.942  -5.755 -20.409  0.00  0.00    -0.269 OA
ATOM      4  N   UNL     1      31.664  -7.075 -22.326  0.00  0.00    -0.206 N 
ATOM      5  N   UNL     1      31.810  -9.412 -22.076  0.00  0.00    -0.214 N 
ATOM      6  C   UNL     1      32.051  -9.268 -20.728  0.00  0.00    +0.094 C 
ATOM      7  C   UNL     1      31.603  -8.349 -22.955  0.00  0.00    +0.321 C 
ATOM      8  C   UNL     1      31.899  -6.857 -20.956  0.00  0.00    +0.258 C 
ATOM      9  C   UNL     1      32.106  -8.076 -20.135  0.00  0.00    +0.080 C 
ATOM     10  C   UNL     1      31.806 -10.744 -22.417  0.00  0.00    +0.087 C 
ATOM     11  C   UNL     1      32.030 -11.577 -21.400  0.00  0.00    +0.122 C 
ENDROOT
BRANCH  11  13
ATOM     12  O   UNL     1      31.729 -13.791 -20.609  0.00  0.00    -0.244 OA
ATOM     13  C   UNL     1      32.073 -13.025 -21.505  0.00  0.00    +0.349 C 
BRANCH  13  14
ATOM     14  O   UNL     1      32.547 -13.370 -22.734  0.00  0.00    -0.440 OA
BRANCH  14  15
ATOM     15  C   UNL     1      33.919 -13.774 -22.782  0.00  0.00    +0.235 C 
BRANCH  15  16
ATOM     16  C   UNL     1      34.053 -14.942 -23.714  0.00  0.00    +0.021 C 
ATOM     17  C   UNL     1      34.873 -16.010 -23.368  0.00  0.00    -0.001 C 
ATOM     18  C   UNL     1      33.356 -14.946 -24.918  0.00  0.00    -0.001 C 
ATOM     19  C   UNL     1      34.996 -17.096 -24.234  0.00  0.00    -0.000 C 
ATOM     20  C   UNL     1      33.479 -16.033 -25.784  0.00  0.00    -0.000 C 
ATOM     21  C   UNL     1      34.300 -17.107 -25.441  0.00  0.00    -0.000 C 
ENDBRANCH  15  16
ENDBRANCH  14  15
ENDBRANCH  13  14
ENDBRANCH  11  13
BRANCH   4  22
ATOM     22  C   UNL     1      31.463  -5.886 -23.147  0.00  0.00    +0.129 C 
BRANCH  22  23
ATOM     23  C   UNL     1      32.599  -5.667 -24.104  0.00  0.00    -0.002 C 
ATOM     24  C   UNL     1      33.826  -6.273 -23.864  0.00  0.00    -0.003 C 
ATOM     25  C   UNL     1      32.412  -4.860 -25.220  0.00  0.00    -0.003 C 
ATOM     26  C   UNL     1      34.883  -6.070 -24.752  0.00  0.00    -0.000 C 
ATOM     27  C   UNL     1      33.468  -4.658 -26.109  0.00  0.00    -0.000 C 
ATOM     28  C   UNL     1      34.703  -5.262 -25.875  0.00  0.00    -0.000 C 
ENDBRANCH  22  23
ENDBRANCH   4  22
TORSDOF 6
ENDMDL
MODEL 9
REMARK VINA RESULT:     -10.2      1.001      1.681
REMARK  Name = 9896504
REMARK  6 active torsions:
REMARK  status: ('A' for Active; 'I' for Inactive)
REMARK    1  A    between atoms: N_4  and  C_22
REMARK    2  A    between atoms: C_11  and  C_13
REMARK    3  A    between atoms: C_13  and  O_14
REMARK    4  A    between atoms: O_14  and  C_15
REMARK    5  A    between atoms: C_15  and  C_16
REMARK    6  A    between atoms: C_22  and  C_23
REMARK                            x       y       z     vdW  Elec       q    Type
REMARK                         _______ _______ _______ _____ _____    ______ ____
ROOT
ATOM      1  S   UNL     1      33.023 -14.172 -24.906  0.00  0.00    -0.064 S 
ATOM      2  O   UNL     1      35.497 -16.536 -21.379  0.00  0.00    -0.251 OA
ATOM      3  O   UNL     1      34.738 -18.917 -25.340  0.00  0.00    -0.269 OA
ATOM      4  N   UNL     1      35.159 -17.778 -23.337  0.00  0.00    -0.206 N 
ATOM      5  N   UNL     1      34.352 -15.575 -23.139  0.00  0.00    -0.214 N 
ATOM      6  C   UNL     1      33.827 -15.637 -24.411  0.00  0.00    +0.094 C 
ATOM      7  C   UNL     1      35.041 -16.618 -22.522  0.00  0.00    +0.321 C 
ATOM      8  C   UNL     1      34.643 -17.911 -24.639  0.00  0.00    +0.258 C 
ATOM      9  C   UNL     1      33.934 -16.723 -25.176  0.00  0.00    +0.080 C 
ATOM     10  C   UNL     1      34.095 -14.344 -22.580  0.00  0.00    +0.087 C 
ATOM     11  C   UNL     1      33.417 -13.509 -23.368  0.00  0.00    +0.122 C 
ENDROOT
BRANCH  11  13
ATOM     12  O   UNL     1      32.495 -11.857 -21.941  0.00  0.00    -0.244 OA
ATOM     13  C   UNL     1      33.026 -12.157 -23.006  0.00  0.00    +0.349 C 
BRANCH  13  14
ATOM     14  O   UNL     1      33.345 -11.312 -24.025  0.00  0.00    -0.440 OA
BRANCH  14  15
ATOM     15  C   UNL     1      34.352 -10.338 -23.735  0.00  0.00    +0.235 C 
BRANCH  15  16
ATOM     16  C   UNL     1      33.724  -8.975 -23.718  0.00  0.00    +0.021 C 
ATOM     17  C   UNL     1      34.528  -7.845 -23.798  0.00  0.00    -0.001 C 
ATOM     18  C   UNL     1      32.342  -8.855 -23.621  0.00  0.00    -0.001 C 
ATOM     19  C   UNL     1      33.944  -6.578 -23.782  0.00  0.00    -0.000 C 
ATOM     20  C   UNL     1      31.757  -7.588 -23.606  0.00  0.00    -0.000 C 
ATOM     21  C   UNL     1      32.559  -6.450 -23.686  0.00  0.00    -0.000 C 
ENDBRANCH  15  16
ENDBRANCH  14  15
ENDBRANCH  13  14
ENDBRANCH  11  13
BRANCH   4  22
ATOM     22  C   UNL     1      35.864 -18.935 -22.796  0.00  0.00    +0.129 C 
BRANCH  22  23
ATOM     23  C   UNL     1      35.018 -19.702 -21.822  0.00  0.00    -0.002 C 
ATOM     24  C   UNL     1      33.633 -19.653 -21.926  0.00  0.00    -0.003 C 
ATOM     25  C   UNL     1      35.628 -20.456 -20.826  0.00  0.00    -0.003 C 
ATOM     26  C   UNL     1      32.846 -20.367 -21.021  0.00  0.00    -0.000 C 
ATOM     27  C   UNL     1      34.842 -21.170 -19.922  0.00  0.00    -0.000 C 
ATOM     28  C   UNL     1      33.451 -21.125 -20.019  0.00  0.00    -0.000 C 
ENDBRANCH  22  23
ENDBRANCH   4  22
TORSDOF 6
ENDMDL
