MODEL 1
REMARK VINA RESULT:     -12.4      0.000      0.000
REMARK  Name = 23629645
REMARK  6 active torsions:
REMARK  status: ('A' for Active; 'I' for Inactive)
REMARK    1  A    between atoms: N_1  and  C_6
REMARK    2  A    between atoms: N_1  and  C_21
REMARK    3  A    between atoms: C_3  and  C_16
REMARK    4  A    between atoms: C_11  and  C_18
REMARK    5  A    between atoms: C_18  and  O_19
REMARK    6  A    between atoms: C_21  and  C_28
REMARK                            x       y       z     vdW  Elec       q    Type
REMARK                         _______ _______ _______ _____ _____    ______ ____
ROOT
ATOM      1  N   UNL     1      35.433 -19.291 -22.368  0.00  0.00    -0.300 N 
ATOM      2  C   UNL     1      36.482 -18.325 -22.112  0.00  0.00    +0.113 C 
ENDROOT
BRANCH   1   6
ATOM      3  C   UNL     1      34.003 -21.743 -19.278  0.00  0.00    +0.054 C 
ATOM      4  C   UNL     1      33.107 -21.018 -20.058  0.00  0.00    +0.006 C 
ATOM      5  C   UNL     1      35.372 -21.658 -19.517  0.00  0.00    +0.006 C 
ATOM      6  C   UNL     1      34.952 -20.116 -21.329  0.00  0.00    +0.048 C 
ATOM      7  C   UNL     1      33.582 -20.203 -21.086  0.00  0.00    +0.015 C 
ATOM      8  C   UNL     1      35.848 -20.843 -20.545  0.00  0.00    +0.015 C 
BRANCH   3  16
ATOM      9  O   UNL     1      32.290 -22.801 -18.179  0.00  0.00    -0.270 OA
ATOM     10  N   UNL     1      34.424 -23.106 -17.276  0.00  0.00    -0.276 N 
ATOM     11  C   UNL     1      35.851 -23.064 -14.750  0.00  0.00    +0.102 C 
ATOM     12  C   UNL     1      34.360 -23.411 -14.839  0.00  0.00    +0.033 C 
ATOM     13  C   UNL     1      36.335 -22.267 -15.967  0.00  0.00    +0.033 C 
ATOM     14  C   UNL     1      33.968 -23.983 -16.201  0.00  0.00    +0.094 C 
ATOM     15  C   UNL     1      35.872 -22.868 -17.294  0.00  0.00    +0.094 C 
ATOM     16  C   UNL     1      33.503 -22.600 -18.195  0.00  0.00    +0.249 C 
BRANCH  11  18
ATOM     17  O   UNL     1      36.182 -25.412 -14.322  0.00  0.00    -0.250 OA
ATOM     18  C   UNL     1      36.662 -24.313 -14.564  0.00  0.00    +0.317 C 
BRANCH  18  19
ATOM     19  O   UNL     1      37.987 -24.022 -14.707  0.00  0.00    -0.444 OA
ATOM     20  C   UNL     1      38.870 -25.148 -14.687  0.00  0.00    +0.256 C 
ENDBRANCH  18  19
ENDBRANCH  11  18
ENDBRANCH   3  16
ENDBRANCH   1   6
BRANCH   1  21
ATOM     21  C   UNL     1      34.893 -19.409 -23.708  0.00  0.00    +0.148 C 
BRANCH  21  28
ATOM     22  N   UNL     1      34.594 -17.016 -23.463  0.00  0.00    -0.392 NA
ATOM     23  N   UNL     1      33.654 -16.786 -26.056  0.00  0.00    -0.200 NA
ATOM     24  N   UNL     1      33.387 -14.503 -25.772  0.00  0.00    -0.271 NA
ATOM     25  N   UNL     1      33.942 -13.446 -23.693  0.00  0.00    -0.310 NA
ATOM     26  N   UNL     1      34.774 -14.748 -21.905  0.00  0.00    -0.329 N 
ATOM     27  N   UNL     1      33.115 -12.189 -25.487  0.00  0.00    -0.283 N 
ATOM     28  C   UNL     1      34.484 -18.073 -24.268  0.00  0.00    +0.133 C 
ATOM     29  C   UNL     1      34.023 -17.975 -25.542  0.00  0.00    +0.193 C 
ATOM     30  C   UNL     1      34.225 -15.827 -23.978  0.00  0.00    +0.248 C 
ATOM     31  C   UNL     1      33.748 -15.696 -25.284  0.00  0.00    +0.131 C 
ATOM     32  C   UNL     1      34.296 -14.662 -23.239  0.00  0.00    +0.231 C 
ATOM     33  C   UNL     1      33.501 -13.439 -24.956  0.00  0.00    +0.207 C 
ATOM     34  H   UNL     1      34.837 -13.936 -21.352  0.00  0.00    +0.145 HD
ATOM     35  H   UNL     1      35.044 -15.619 -21.535  0.00  0.00    +0.145 HD
ATOM     36  H   UNL     1      32.783 -12.130 -26.413  0.00  0.00    +0.156 HD
ATOM     37  H   UNL     1      33.177 -11.378 -24.933  0.00  0.00    +0.156 HD
ENDBRANCH  21  28
ENDBRANCH   1  21
TORSDOF 6
ENDMDL
MODEL 2
REMARK VINA RESULT:     -12.3      1.268      2.447
REMARK  Name = 23629645
REMARK  6 active torsions:
REMARK  status: ('A' for Active; 'I' for Inactive)
REMARK    1  A    between atoms: N_1  and  C_6
REMARK    2  A    between atoms: N_1  and  C_21
REMARK    3  A    between atoms: C_3  and  C_16
REMARK    4  A    between atoms: C_11  and  C_18
REMARK    5  A    between atoms: C_18  and  O_19
REMARK    6  A    between atoms: C_21  and  C_28
REMARK                            x       y       z     vdW  Elec       q    Type
REMARK                         _______ _______ _______ _____ _____    ______ ____
ROOT
ATOM      1  N   UNL     1      35.169 -19.090 -22.739  0.00  0.00    -0.300 N 
ATOM      2  C   UNL     1      34.648 -19.348 -24.066  0.00  0.00    +0.113 C 
ENDROOT
BRANCH   1   6
ATOM      3  C   UNL     1      34.129 -21.581 -19.527  0.00  0.00    +0.054 C 
ATOM      4  C   UNL     1      35.470 -21.385 -19.847  0.00  0.00    +0.006 C 
ATOM      5  C   UNL     1      33.131 -20.955 -20.269  0.00  0.00    +0.006 C 
ATOM      6  C   UNL     1      34.819 -19.928 -21.659  0.00  0.00    +0.048 C 
ATOM      7  C   UNL     1      35.816 -20.557 -20.914  0.00  0.00    +0.015 C 
ATOM      8  C   UNL     1      33.477 -20.127 -21.337  0.00  0.00    +0.015 C 
BRANCH   3  16
ATOM      9  O   UNL     1      32.575 -22.746 -18.307  0.00  0.00    -0.270 OA
ATOM     10  N   UNL     1      34.779 -22.872 -17.539  0.00  0.00    -0.276 N 
ATOM     11  C   UNL     1      36.354 -22.676 -15.111  0.00  0.00    +0.102 C 
ATOM     12  C   UNL     1      34.892 -23.136 -15.099  0.00  0.00    +0.033 C 
ATOM     13  C   UNL     1      36.698 -21.866 -16.367  0.00  0.00    +0.033 C 
ATOM     14  C   UNL     1      34.460 -23.762 -16.425  0.00  0.00    +0.094 C 
ATOM     15  C   UNL     1      36.200 -22.525 -17.653  0.00  0.00    +0.094 C 
ATOM     16  C   UNL     1      33.765 -22.454 -18.404  0.00  0.00    +0.249 C 
BRANCH  11  18
ATOM     17  O   UNL     1      38.446 -23.858 -15.295  0.00  0.00    -0.250 OA
ATOM     18  C   UNL     1      37.270 -23.856 -14.961  0.00  0.00    +0.317 C 
BRANCH  18  19
ATOM     19  O   UNL     1      36.585 -24.896 -14.405  0.00  0.00    -0.444 OA
ATOM     20  C   UNL     1      37.019 -26.201 -14.802  0.00  0.00    +0.256 C 
ENDBRANCH  18  19
ENDBRANCH  11  18
ENDBRANCH   3  16
ENDBRANCH   1   6
BRANCH   1  21
ATOM     21  C   UNL     1      36.044 -17.953 -22.532  0.00  0.00    +0.148 C 
BRANCH  21  28
ATOM     22  N   UNL     1      34.737 -16.035 -23.233  0.00  0.00    -0.392 NA
ATOM     23  N   UNL     1      34.450 -15.172 -20.619  0.00  0.00    -0.200 NA
ATOM     24  N   UNL     1      33.207 -13.356 -21.339  0.00  0.00    -0.271 NA
ATOM     25  N   UNL     1      32.751 -13.020 -23.669  0.00  0.00    -0.310 NA
ATOM     26  N   UNL     1      33.579 -14.562 -25.256  0.00  0.00    -0.329 N 
ATOM     27  N   UNL     1      31.946 -11.514 -22.066  0.00  0.00    -0.283 N 
ATOM     28  C   UNL     1      35.271 -16.701 -22.209  0.00  0.00    +0.133 C 
ATOM     29  C   UNL     1      35.139 -16.289 -20.921  0.00  0.00    +0.193 C 
ATOM     30  C   UNL     1      34.048 -14.917 -22.929  0.00  0.00    +0.248 C 
ATOM     31  C   UNL     1      33.896 -14.470 -21.615  0.00  0.00    +0.131 C 
ATOM     32  C   UNL     1      33.449 -14.145 -23.906  0.00  0.00    +0.231 C 
ATOM     33  C   UNL     1      32.669 -12.687 -22.376  0.00  0.00    +0.207 C 
ATOM     34  H   UNL     1      33.165 -14.034 -25.976  0.00  0.00    +0.145 HD
ATOM     35  H   UNL     1      34.083 -15.380 -25.472  0.00  0.00    +0.145 HD
ATOM     36  H   UNL     1      31.857 -11.225 -21.129  0.00  0.00    +0.156 HD
ATOM     37  H   UNL     1      31.533 -10.986 -22.786  0.00  0.00    +0.156 HD
ENDBRANCH  21  28
ENDBRANCH   1  21
TORSDOF 6
ENDMDL
MODEL 3
REMARK VINA RESULT:     -11.9      1.803      3.397
REMARK  Name = 23629645
REMARK  6 active torsions:
REMARK  status: ('A' for Active; 'I' for Inactive)
REMARK    1  A    between atoms: N_1  and  C_6
REMARK    2  A    between atoms: N_1  and  C_21
REMARK    3  A    between atoms: C_3  and  C_16
REMARK    4  A    between atoms: C_11  and  C_18
REMARK    5  A    between atoms: C_18  and  O_19
REMARK    6  A    between atoms: C_21  and  C_28
REMARK                            x       y       z     vdW  Elec       q    Type
REMARK                         _______ _______ _______ _____ _____    ______ ____
ROOT
ATOM      1  N   UNL     1      34.205 -21.066 -20.178  0.00  0.00    -0.300 N 
ATOM      2  C   UNL     1      32.944 -20.687 -20.781  0.00  0.00    +0.113 C 
ENDROOT
BRANCH   1   6
ATOM      3  C   UNL     1      34.277 -23.357 -16.663  0.00  0.00    +0.054 C 
ATOM      4  C   UNL     1      33.074 -23.155 -17.335  0.00  0.00    +0.006 C 
ATOM      5  C   UNL     1      35.456 -22.801 -17.152  0.00  0.00    +0.006 C 
ATOM      6  C   UNL     1      34.229 -21.837 -18.996  0.00  0.00    +0.048 C 
ATOM      7  C   UNL     1      33.049 -22.394 -18.503  0.00  0.00    +0.015 C 
ATOM      8  C   UNL     1      35.433 -22.039 -18.320  0.00  0.00    +0.015 C 
BRANCH   3  16
ATOM      9  O   UNL     1      33.208 -24.441 -14.948  0.00  0.00    -0.270 OA
ATOM     10  N   UNL     1      35.544 -24.522 -14.908  0.00  0.00    -0.276 N 
ATOM     11  C   UNL     1      37.801 -24.178 -13.119  0.00  0.00    +0.102 C 
ATOM     12  C   UNL     1      36.425 -24.635 -12.619  0.00  0.00    +0.033 C 
ATOM     13  C   UNL     1      37.716 -23.449 -14.465  0.00  0.00    +0.033 C 
ATOM     14  C   UNL     1      35.609 -25.341 -13.701  0.00  0.00    +0.094 C 
ATOM     15  C   UNL     1      36.850 -24.185 -15.486  0.00  0.00    +0.094 C 
ATOM     16  C   UNL     1      34.302 -24.158 -15.433  0.00  0.00    +0.249 C 
BRANCH  11  18
ATOM     17  O   UNL     1      38.502 -26.448 -12.713  0.00  0.00    -0.250 OA
ATOM     18  C   UNL     1      38.738 -25.348 -13.196  0.00  0.00    +0.317 C 
BRANCH  18  19
ATOM     19  O   UNL     1      39.864 -24.987 -13.874  0.00  0.00    -0.444 OA
ATOM     20  C   UNL     1      40.404 -25.986 -14.745  0.00  0.00    +0.256 C 
ENDBRANCH  18  19
ENDBRANCH  11  18
ENDBRANCH   3  16
ENDBRANCH   1   6
BRANCH   1  21
ATOM     21  C   UNL     1      35.443 -20.632 -20.795  0.00  0.00    +0.148 C 
BRANCH  21  28
ATOM     22  N   UNL     1      34.826 -19.692 -22.943  0.00  0.00    -0.392 NA
ATOM     23  N   UNL     1      35.277 -17.116 -22.036  0.00  0.00    -0.200 NA
ATOM     24  N   UNL     1      34.679 -16.267 -24.106  0.00  0.00    -0.271 NA
ATOM     25  N   UNL     1      34.022 -17.724 -25.893  0.00  0.00    -0.310 NA
ATOM     26  N   UNL     1      33.981 -20.060 -25.542  0.00  0.00    -0.329 N 
ATOM     27  N   UNL     1      34.073 -15.403 -26.203  0.00  0.00    -0.283 N 
ATOM     28  C   UNL     1      35.234 -19.445 -21.698  0.00  0.00    +0.133 C 
ATOM     29  C   UNL     1      35.460 -18.186 -21.240  0.00  0.00    +0.193 C 
ATOM     30  C   UNL     1      34.643 -18.620 -23.739  0.00  0.00    +0.248 C 
ATOM     31  C   UNL     1      34.868 -17.315 -23.296  0.00  0.00    +0.131 C 
ATOM     32  C   UNL     1      34.221 -18.751 -25.048  0.00  0.00    +0.231 C 
ATOM     33  C   UNL     1      34.267 -16.521 -25.362  0.00  0.00    +0.207 C 
ATOM     34  H   UNL     1      33.680 -20.188 -26.470  0.00  0.00    +0.145 HD
ATOM     35  H   UNL     1      34.116 -20.839 -24.955  0.00  0.00    +0.145 HD
ATOM     36  H   UNL     1      34.240 -14.495 -25.860  0.00  0.00    +0.156 HD
ATOM     37  H   UNL     1      33.773 -15.532 -27.131  0.00  0.00    +0.156 HD
ENDBRANCH  21  28
ENDBRANCH   1  21
TORSDOF 6
ENDMDL
MODEL 4
REMARK VINA RESULT:     -11.7      1.194      2.375
REMARK  Name = 23629645
REMARK  6 active torsions:
REMARK  status: ('A' for Active; 'I' for Inactive)
REMARK    1  A    between atoms: N_1  and  C_6
REMARK    2  A    between atoms: N_1  and  C_21
REMARK    3  A    between atoms: C_3  and  C_16
REMARK    4  A    between atoms: C_11  and  C_18
REMARK    5  A    between atoms: C_18  and  O_19
REMARK    6  A    between atoms: C_21  and  C_28
REMARK                            x       y       z     vdW  Elec       q    Type
REMARK                         _______ _______ _______ _____ _____    ______ ____
ROOT
ATOM      1  N   UNL     1      34.991 -19.576 -21.820  0.00  0.00    -0.300 N 
ATOM      2  C   UNL     1      34.288 -19.671 -23.083  0.00  0.00    +0.113 C 
ENDROOT
BRANCH   1   6
ATOM      3  C   UNL     1      34.136 -22.255 -18.706  0.00  0.00    +0.054 C 
ATOM      4  C   UNL     1      35.457 -22.042 -19.094  0.00  0.00    +0.006 C 
ATOM      5  C   UNL     1      33.098 -21.585 -19.347  0.00  0.00    +0.006 C 
ATOM      6  C   UNL     1      34.704 -20.477 -20.772  0.00  0.00    +0.048 C 
ATOM      7  C   UNL     1      35.741 -21.151 -20.128  0.00  0.00    +0.015 C 
ATOM      8  C   UNL     1      33.382 -20.694 -20.382  0.00  0.00    +0.015 C 
BRANCH   3  16
ATOM      9  O   UNL     1      32.694 -23.647 -17.590  0.00  0.00    -0.270 OA
ATOM     10  N   UNL     1      34.851 -23.489 -16.704  0.00  0.00    -0.276 N 
ATOM     11  C   UNL     1      36.256 -23.134 -14.190  0.00  0.00    +0.102 C 
ATOM     12  C   UNL     1      34.872 -23.789 -14.266  0.00  0.00    +0.033 C 
ATOM     13  C   UNL     1      36.551 -22.258 -15.414  0.00  0.00    +0.033 C 
ATOM     14  C   UNL     1      34.600 -24.438 -15.623  0.00  0.00    +0.094 C 
ATOM     15  C   UNL     1      36.216 -22.950 -16.734  0.00  0.00    +0.094 C 
ATOM     16  C   UNL     1      33.837 -23.194 -17.617  0.00  0.00    +0.249 C 
BRANCH  11  18
ATOM     17  O   UNL     1      38.447 -24.100 -14.466  0.00  0.00    -0.250 OA
ATOM     18  C   UNL     1      37.315 -24.182 -14.008  0.00  0.00    +0.317 C 
BRANCH  18  19
ATOM     19  O   UNL     1      36.815 -25.211 -13.266  0.00  0.00    -0.444 OA
ATOM     20  C   UNL     1      37.682 -26.340 -13.117  0.00  0.00    +0.256 C 
ENDBRANCH  18  19
ENDBRANCH  11  18
ENDBRANCH   3  16
ENDBRANCH   1   6
BRANCH   1  21
ATOM     21  C   UNL     1      35.985 -18.535 -21.640  0.00  0.00    +0.148 C 
BRANCH  21  28
ATOM     22  N   UNL     1      35.005 -16.746 -22.951  0.00  0.00    -0.392 NA
ATOM     23  N   UNL     1      34.699 -15.159 -20.704  0.00  0.00    -0.200 NA
ATOM     24  N   UNL     1      33.769 -13.480 -22.000  0.00  0.00    -0.271 NA
ATOM     25  N   UNL     1      33.496 -13.756 -24.366  0.00  0.00    -0.310 NA
ATOM     26  N   UNL     1      34.184 -15.769 -25.394  0.00  0.00    -0.329 N 
ATOM     27  N   UNL     1      32.825 -11.776 -23.311  0.00  0.00    -0.283 N 
ATOM     28  C   UNL     1      35.381 -17.160 -21.740  0.00  0.00    +0.133 C 
ATOM     29  C   UNL     1      35.237 -16.391 -20.629  0.00  0.00    +0.193 C 
ATOM     30  C   UNL     1      34.467 -15.513 -23.025  0.00  0.00    +0.248 C 
ATOM     31  C   UNL     1      34.306 -14.701 -21.900  0.00  0.00    +0.131 C 
ATOM     32  C   UNL     1      34.040 -14.978 -24.225  0.00  0.00    +0.231 C 
ATOM     33  C   UNL     1      33.391 -13.067 -23.224  0.00  0.00    +0.207 C 
ATOM     34  H   UNL     1      33.890 -15.417 -26.266  0.00  0.00    +0.145 HD
ATOM     35  H   UNL     1      34.578 -16.669 -25.334  0.00  0.00    +0.145 HD
ATOM     36  H   UNL     1      32.726 -11.228 -22.499  0.00  0.00    +0.156 HD
ATOM     37  H   UNL     1      32.533 -11.425 -24.182  0.00  0.00    +0.156 HD
ENDBRANCH  21  28
ENDBRANCH   1  21
TORSDOF 6
ENDMDL
MODEL 5
REMARK VINA RESULT:     -10.8      4.499      8.174
REMARK  Name = 23629645
REMARK  6 active torsions:
REMARK  status: ('A' for Active; 'I' for Inactive)
REMARK    1  A    between atoms: N_1  and  C_6
REMARK    2  A    between atoms: N_1  and  C_21
REMARK    3  A    between atoms: C_3  and  C_16
REMARK    4  A    between atoms: C_11  and  C_18
REMARK    5  A    between atoms: C_18  and  O_19
REMARK    6  A    between atoms: C_21  and  C_28
REMARK                            x       y       z     vdW  Elec       q    Type
REMARK                         _______ _______ _______ _____ _____    ______ ____
ROOT
ATOM      1  N   UNL     1      33.693 -11.843 -24.739  0.00  0.00    -0.300 N 
ATOM      2  C   UNL     1      33.073 -11.192 -25.874  0.00  0.00    +0.113 C 
ENDROOT
BRANCH   1   6
ATOM      3  C   UNL     1      33.975 -16.027 -24.583  0.00  0.00    +0.054 C 
ATOM      4  C   UNL     1      34.326 -15.266 -23.470  0.00  0.00    +0.006 C 
ATOM      5  C   UNL     1      33.532 -15.406 -25.747  0.00  0.00    +0.006 C 
ATOM      6  C   UNL     1      33.788 -13.250 -24.686  0.00  0.00    +0.048 C 
ATOM      7  C   UNL     1      34.232 -13.876 -23.521  0.00  0.00    +0.015 C 
ATOM      8  C   UNL     1      33.438 -14.015 -25.799  0.00  0.00    +0.015 C 
BRANCH   3  16
ATOM      9  O   UNL     1      33.414 -18.111 -25.359  0.00  0.00    -0.270 OA
ATOM     10  N   UNL     1      34.891 -18.060 -23.548  0.00  0.00    -0.276 N 
ATOM     11  C   UNL     1      35.359 -19.287 -20.961  0.00  0.00    +0.102 C 
ATOM     12  C   UNL     1      34.638 -20.025 -22.095  0.00  0.00    +0.033 C 
ATOM     13  C   UNL     1      35.315 -17.764 -21.139  0.00  0.00    +0.033 C 
ATOM     14  C   UNL     1      35.036 -19.511 -23.479  0.00  0.00    +0.094 C 
ATOM     15  C   UNL     1      35.680 -17.322 -22.556  0.00  0.00    +0.094 C 
ATOM     16  C   UNL     1      34.075 -17.491 -24.528  0.00  0.00    +0.249 C 
BRANCH  11  18
ATOM     17  O   UNL     1      37.758 -19.063 -20.960  0.00  0.00    -0.250 OA
ATOM     18  C   UNL     1      36.772 -19.777 -20.840  0.00  0.00    +0.317 C 
BRANCH  18  19
ATOM     19  O   UNL     1      36.770 -21.116 -20.582  0.00  0.00    -0.444 OA
ATOM     20  C   UNL     1      36.460 -21.481 -19.233  0.00  0.00    +0.256 C 
ENDBRANCH  18  19
ENDBRANCH  11  18
ENDBRANCH   3  16
ENDBRANCH   1   6
BRANCH   1  21
ATOM     21  C   UNL     1      34.203 -11.033 -23.651  0.00  0.00    +0.148 C 
BRANCH  21  28
ATOM     22  N   UNL     1      33.764  -8.651 -23.760  0.00  0.00    -0.392 NA
ATOM     23  N   UNL     1      31.324  -8.961 -22.491  0.00  0.00    -0.200 NA
ATOM     24  N   UNL     1      30.951  -6.679 -22.620  0.00  0.00    -0.271 NA
ATOM     25  N   UNL     1      32.564  -5.221 -23.632  0.00  0.00    -0.310 NA
ATOM     26  N   UNL     1      34.563  -6.122 -24.512  0.00  0.00    -0.329 N 
ATOM     27  N   UNL     1      30.570  -4.366 -22.750  0.00  0.00    -0.283 N 
ATOM     28  C   UNL     1      33.319  -9.847 -23.371  0.00  0.00    +0.133 C 
ATOM     29  C   UNL     1      32.124 -10.013 -22.747  0.00  0.00    +0.193 C 
ATOM     30  C   UNL     1      32.962  -7.599 -23.503  0.00  0.00    +0.248 C 
ATOM     31  C   UNL     1      31.729  -7.740 -22.864  0.00  0.00    +0.131 C 
ATOM     32  C   UNL     1      33.316  -6.312 -23.860  0.00  0.00    +0.231 C 
ATOM     33  C   UNL     1      31.404  -5.474 -23.015  0.00  0.00    +0.207 C 
ATOM     34  H   UNL     1      34.845  -5.217 -24.779  0.00  0.00    +0.145 HD
ATOM     35  H   UNL     1      35.144  -6.894 -24.698  0.00  0.00    +0.145 HD
ATOM     36  H   UNL     1      29.706  -4.499 -22.297  0.00  0.00    +0.156 HD
ATOM     37  H   UNL     1      30.853  -3.462 -23.016  0.00  0.00    +0.156 HD
ENDBRANCH  21  28
ENDBRANCH   1  21
TORSDOF 6
ENDMDL
MODEL 6
REMARK VINA RESULT:     -10.5      3.750     11.024
REMARK  Name = 23629645
REMARK  6 active torsions:
REMARK  status: ('A' for Active; 'I' for Inactive)
REMARK    1  A    between atoms: N_1  and  C_6
REMARK    2  A    between atoms: N_1  and  C_21
REMARK    3  A    between atoms: C_3  and  C_16
REMARK    4  A    between atoms: C_11  and  C_18
REMARK    5  A    between atoms: C_18  and  O_19
REMARK    6  A    between atoms: C_21  and  C_28
REMARK                            x       y       z     vdW  Elec       q    Type
REMARK                         _______ _______ _______ _____ _____    ______ ____
ROOT
ATOM      1  N   UNL     1      34.405 -22.903 -17.731  0.00  0.00    -0.300 N 
ATOM      2  C   UNL     1      33.811 -24.220 -17.833  0.00  0.00    +0.113 C 
ENDROOT
BRANCH   1   6
ATOM      3  C   UNL     1      34.810 -20.485 -21.136  0.00  0.00    +0.054 C 
ATOM      4  C   UNL     1      33.541 -20.798 -20.655  0.00  0.00    +0.006 C 
ATOM      5  C   UNL     1      35.945 -20.971 -20.493  0.00  0.00    +0.006 C 
ATOM      6  C   UNL     1      34.541 -22.089 -18.876  0.00  0.00    +0.048 C 
ATOM      7  C   UNL     1      33.406 -21.602 -19.523  0.00  0.00    +0.015 C 
ATOM      8  C   UNL     1      35.811 -21.775 -19.360  0.00  0.00    +0.015 C 
BRANCH   3  16
ATOM      9  O   UNL     1      35.378 -20.196 -23.340  0.00  0.00    -0.270 OA
ATOM     10  N   UNL     1      34.608 -18.290 -22.225  0.00  0.00    -0.276 N 
ATOM     11  C   UNL     1      35.228 -15.485 -21.826  0.00  0.00    +0.102 C 
ATOM     12  C   UNL     1      35.624 -16.234 -23.103  0.00  0.00    +0.033 C 
ATOM     13  C   UNL     1      34.983 -16.435 -20.648  0.00  0.00    +0.033 C 
ATOM     14  C   UNL     1      34.711 -17.424 -23.396  0.00  0.00    +0.094 C 
ATOM     15  C   UNL     1      34.100 -17.626 -21.019  0.00  0.00    +0.094 C 
ATOM     16  C   UNL     1      34.952 -19.640 -22.329  0.00  0.00    +0.249 C 
BRANCH  11  18
ATOM     17  O   UNL     1      33.648 -14.290 -23.198  0.00  0.00    -0.250 OA
ATOM     18  C   UNL     1      34.027 -14.622 -22.083  0.00  0.00    +0.317 C 
BRANCH  18  19
ATOM     19  O   UNL     1      33.449 -14.280 -20.897  0.00  0.00    -0.444 OA
ATOM     20  C   UNL     1      32.257 -13.493 -20.997  0.00  0.00    +0.256 C 
ENDBRANCH  18  19
ENDBRANCH  11  18
ENDBRANCH   3  16
ENDBRANCH   1   6
BRANCH   1  21
ATOM     21  C   UNL     1      34.870 -22.435 -16.440  0.00  0.00    +0.148 C 
BRANCH  21  28
ATOM     22  N   UNL     1      36.073 -24.395 -15.671  0.00  0.00    -0.392 NA
ATOM     23  N   UNL     1      38.472 -23.015 -15.652  0.00  0.00    -0.200 NA
ATOM     24  N   UNL     1      39.574 -24.915 -14.917  0.00  0.00    -0.271 NA
ATOM     25  N   UNL     1      38.385 -26.962 -14.537  0.00  0.00    -0.310 NA
ATOM     26  N   UNL     1      36.054 -27.046 -14.916  0.00  0.00    -0.329 N 
ATOM     27  N   UNL     1      40.695 -26.839 -14.173  0.00  0.00    -0.283 N 
ATOM     28  C   UNL     1      36.150 -23.112 -16.025  0.00  0.00    +0.133 C 
ATOM     29  C   UNL     1      37.320 -22.422 -16.020  0.00  0.00    +0.193 C 
ATOM     30  C   UNL     1      37.225 -24.987 -15.303  0.00  0.00    +0.248 C 
ATOM     31  C   UNL     1      38.443 -24.304 -15.287  0.00  0.00    +0.131 C 
ATOM     32  C   UNL     1      37.270 -26.313 -14.916  0.00  0.00    +0.231 C 
ATOM     33  C   UNL     1      39.491 -26.210 -14.561  0.00  0.00    +0.207 C 
ATOM     34  H   UNL     1      36.051 -27.993 -14.645  0.00  0.00    +0.145 HD
ATOM     35  H   UNL     1      35.215 -26.609 -15.187  0.00  0.00    +0.145 HD
ATOM     36  H   UNL     1      41.538 -26.329 -14.173  0.00  0.00    +0.156 HD
ATOM     37  H   UNL     1      40.691 -27.785 -13.902  0.00  0.00    +0.156 HD
ENDBRANCH  21  28
ENDBRANCH   1  21
TORSDOF 6
ENDMDL
MODEL 7
REMARK VINA RESULT:     -10.5      7.647     13.953
REMARK  Name = 23629645
REMARK  6 active torsions:
REMARK  status: ('A' for Active; 'I' for Inactive)
REMARK    1  A    between atoms: N_1  and  C_6
REMARK    2  A    between atoms: N_1  and  C_21
REMARK    3  A    between atoms: C_3  and  C_16
REMARK    4  A    between atoms: C_11  and  C_18
REMARK    5  A    between atoms: C_18  and  O_19
REMARK    6  A    between atoms: C_21  and  C_28
REMARK                            x       y       z     vdW  Elec       q    Type
REMARK                         _______ _______ _______ _____ _____    ______ ____
ROOT
ATOM      1  N   UNL     1      33.889 -12.113 -25.280  0.00  0.00    -0.300 N 
ATOM      2  C   UNL     1      34.904 -12.019 -26.310  0.00  0.00    +0.113 C 
ENDROOT
BRANCH   1   6
ATOM      3  C   UNL     1      33.161  -8.876 -22.713  0.00  0.00    +0.054 C 
ATOM      4  C   UNL     1      34.324  -8.906 -23.477  0.00  0.00    +0.006 C 
ATOM      5  C   UNL     1      32.238  -9.915 -22.796  0.00  0.00    +0.006 C 
ATOM      6  C   UNL     1      33.644 -11.024 -24.417  0.00  0.00    +0.048 C 
ATOM      7  C   UNL     1      34.567  -9.982 -24.331  0.00  0.00    +0.015 C 
ATOM      8  C   UNL     1      32.479 -10.991 -23.650  0.00  0.00    +0.015 C 
BRANCH   3  16
ATOM      9  O   UNL     1      32.976  -7.981 -20.609  0.00  0.00    -0.270 OA
ATOM     10  N   UNL     1      32.599  -6.505 -22.382  0.00  0.00    -0.276 N 
ATOM     11  C   UNL     1      30.753  -4.455 -23.281  0.00  0.00    +0.102 C 
ATOM     12  C   UNL     1      30.987  -4.748 -21.794  0.00  0.00    +0.033 C 
ATOM     13  C   UNL     1      31.147  -5.638 -24.174  0.00  0.00    +0.033 C 
ATOM     14  C   UNL     1      32.365  -5.350 -21.521  0.00  0.00    +0.094 C 
ATOM     15  C   UNL     1      32.515  -6.220 -23.819  0.00  0.00    +0.094 C 
ATOM     16  C   UNL     1      32.906  -7.743 -21.813  0.00  0.00    +0.249 C 
BRANCH  11  18
ATOM     17  O   UNL     1      31.682  -2.259 -22.937  0.00  0.00    -0.250 OA
ATOM     18  C   UNL     1      31.483  -3.207 -23.684  0.00  0.00    +0.317 C 
BRANCH  18  19
ATOM     19  O   UNL     1      31.873  -3.307 -24.986  0.00  0.00    -0.444 OA
ATOM     20  C   UNL     1      31.471  -2.226 -25.834  0.00  0.00    +0.256 C 
ENDBRANCH  18  19
ENDBRANCH  11  18
ENDBRANCH   3  16
ENDBRANCH   1   6
BRANCH   1  21
ATOM     21  C   UNL     1      33.138 -13.345 -25.139  0.00  0.00    +0.148 C 
BRANCH  21  28
ATOM     22  N   UNL     1      33.979 -15.553 -24.592  0.00  0.00    -0.392 NA
ATOM     23  N   UNL     1      34.774 -14.716 -22.077  0.00  0.00    -0.200 NA
ATOM     24  N   UNL     1      35.562 -16.841 -21.603  0.00  0.00    -0.271 NA
ATOM     25  N   UNL     1      35.395 -18.606 -23.218  0.00  0.00    -0.310 NA
ATOM     26  N   UNL     1      34.414 -18.175 -25.323  0.00  0.00    -0.329 N 
ATOM     27  N   UNL     1      36.363 -18.994 -21.121  0.00  0.00    -0.283 N 
ATOM     28  C   UNL     1      33.798 -14.298 -24.178  0.00  0.00    +0.133 C 
ATOM     29  C   UNL     1      34.183 -13.874 -22.946  0.00  0.00    +0.193 C 
ATOM     30  C   UNL     1      34.571 -16.394 -23.722  0.00  0.00    +0.248 C 
ATOM     31  C   UNL     1      34.977 -15.986 -22.450  0.00  0.00    +0.131 C 
ATOM     32  C   UNL     1      34.811 -17.717 -24.040  0.00  0.00    +0.231 C 
ATOM     33  C   UNL     1      35.743 -18.106 -22.027  0.00  0.00    +0.207 C 
ATOM     34  H   UNL     1      34.571 -19.112 -25.581  0.00  0.00    +0.145 HD
ATOM     35  H   UNL     1      33.983 -17.556 -25.955  0.00  0.00    +0.145 HD
ATOM     36  H   UNL     1      36.638 -18.676 -20.230  0.00  0.00    +0.156 HD
ATOM     37  H   UNL     1      36.518 -19.931 -21.379  0.00  0.00    +0.156 HD
ENDBRANCH  21  28
ENDBRANCH   1  21
TORSDOF 6
ENDMDL
MODEL 8
REMARK VINA RESULT:     -10.5      4.889      8.297
REMARK  Name = 23629645
REMARK  6 active torsions:
REMARK  status: ('A' for Active; 'I' for Inactive)
REMARK    1  A    between atoms: N_1  and  C_6
REMARK    2  A    between atoms: N_1  and  C_21
REMARK    3  A    between atoms: C_3  and  C_16
REMARK    4  A    between atoms: C_11  and  C_18
REMARK    5  A    between atoms: C_18  and  O_19
REMARK    6  A    between atoms: C_21  and  C_28
REMARK                            x       y       z     vdW  Elec       q    Type
REMARK                         _______ _______ _______ _____ _____    ______ ____
ROOT
ATOM      1  N   UNL     1      33.029 -11.725 -23.041  0.00  0.00    -0.300 N 
ATOM      2  C   UNL     1      31.914 -11.516 -22.140  0.00  0.00    +0.113 C 
ENDROOT
BRANCH   1   6
ATOM      3  C   UNL     1      34.308 -15.612 -23.971  0.00  0.00    +0.054 C 
ATOM      4  C   UNL     1      34.656 -15.041 -22.749  0.00  0.00    +0.006 C 
ATOM      5  C   UNL     1      33.538 -14.899 -24.886  0.00  0.00    +0.006 C 
ATOM      6  C   UNL     1      33.459 -13.033 -23.354  0.00  0.00    +0.048 C 
ATOM      7  C   UNL     1      34.230 -13.750 -22.440  0.00  0.00    +0.015 C 
ATOM      8  C   UNL     1      33.112 -13.607 -24.577  0.00  0.00    +0.015 C 
BRANCH   3  16
ATOM      9  O   UNL     1      34.629 -17.318 -25.470  0.00  0.00    -0.270 OA
ATOM     10  N   UNL     1      35.274 -17.760 -23.266  0.00  0.00    -0.276 N 
ATOM     11  C   UNL     1      35.064 -19.783 -21.198  0.00  0.00    +0.102 C 
ATOM     12  C   UNL     1      35.026 -20.134 -22.690  0.00  0.00    +0.033 C 
ATOM     13  C   UNL     1      34.696 -18.317 -20.938  0.00  0.00    +0.033 C 
ATOM     14  C   UNL     1      35.755 -19.108 -23.557  0.00  0.00    +0.094 C 
ATOM     15  C   UNL     1      35.426 -17.348 -21.866  0.00  0.00    +0.094 C 
ATOM     16  C   UNL     1      34.756 -16.972 -24.297  0.00  0.00    +0.249 C 
BRANCH  11  18
ATOM     17  O   UNL     1      37.321 -19.306 -20.504  0.00  0.00    -0.250 OA
ATOM     18  C   UNL     1      36.410 -20.113 -20.623  0.00  0.00    +0.317 C 
BRANCH  18  19
ATOM     19  O   UNL     1      36.443 -21.429 -20.267  0.00  0.00    -0.444 OA
ATOM     20  C   UNL     1      35.361 -21.871 -19.441  0.00  0.00    +0.256 C 
ENDBRANCH  18  19
ENDBRANCH  11  18
ENDBRANCH   3  16
ENDBRANCH   1   6
BRANCH   1  21
ATOM     21  C   UNL     1      33.706 -10.576 -23.608  0.00  0.00    +0.148 C 
BRANCH  21  28
ATOM     22  N   UNL     1      33.004  -8.709 -22.228  0.00  0.00    -0.392 NA
ATOM     23  N   UNL     1      31.441  -7.684 -24.270  0.00  0.00    -0.200 NA
ATOM     24  N   UNL     1      30.800  -5.921 -22.912  0.00  0.00    -0.271 NA
ATOM     25  N   UNL     1      31.617  -5.734 -20.665  0.00  0.00    -0.310 NA
ATOM     26  N   UNL     1      33.097  -7.370 -19.821  0.00  0.00    -0.329 N 
ATOM     27  N   UNL     1      30.149  -4.131 -21.539  0.00  0.00    -0.283 N 
ATOM     28  C   UNL     1      32.916  -9.308 -23.417  0.00  0.00    +0.133 C 
ATOM     29  C   UNL     1      32.152  -8.817 -24.427  0.00  0.00    +0.193 C 
ATOM     30  C   UNL     1      32.292  -7.576 -22.072  0.00  0.00    +0.248 C 
ATOM     31  C   UNL     1      31.499  -7.048 -23.093  0.00  0.00    +0.131 C 
ATOM     32  C   UNL     1      32.305  -6.868 -20.886  0.00  0.00    +0.231 C 
ATOM     33  C   UNL     1      30.893  -5.319 -21.711  0.00  0.00    +0.207 C 
ATOM     34  H   UNL     1      33.129  -6.889 -18.962  0.00  0.00    +0.145 HD
ATOM     35  H   UNL     1      33.616  -8.197 -19.941  0.00  0.00    +0.145 HD
ATOM     36  H   UNL     1      29.600  -3.784 -22.278  0.00  0.00    +0.156 HD
ATOM     37  H   UNL     1      30.180  -3.652 -20.680  0.00  0.00    +0.156 HD
ENDBRANCH  21  28
ENDBRANCH   1  21
TORSDOF 6
ENDMDL
MODEL 9
REMARK VINA RESULT:     -10.5      5.661      9.586
REMARK  Name = 23629645
REMARK  6 active torsions:
REMARK  status: ('A' for Active; 'I' for Inactive)
REMARK    1  A    between atoms: N_1  and  C_6
REMARK    2  A    between atoms: N_1  and  C_21
REMARK    3  A    between atoms: C_3  and  C_16
REMARK    4  A    between atoms: C_11  and  C_18
REMARK    5  A    between atoms: C_18  and  O_19
REMARK    6  A    between atoms: C_21  and  C_28
REMARK                            x       y       z     vdW  Elec       q    Type
REMARK                         _______ _______ _______ _____ _____    ______ ____
ROOT
ATOM      1  N   UNL     1      32.795 -10.396 -22.978  0.00  0.00    -0.300 N 
ATOM      2  C   UNL     1      31.557 -10.069 -22.301  0.00  0.00    +0.113 C 
ENDROOT
BRANCH   1   6
ATOM      3  C   UNL     1      33.618 -14.354 -24.104  0.00  0.00    +0.054 C 
ATOM      4  C   UNL     1      33.885 -13.312 -24.988  0.00  0.00    +0.006 C 
ATOM      5  C   UNL     1      33.078 -14.089 -22.848  0.00  0.00    +0.006 C 
ATOM      6  C   UNL     1      33.072 -11.727 -23.356  0.00  0.00    +0.048 C 
ATOM      7  C   UNL     1      33.612 -11.996 -24.614  0.00  0.00    +0.015 C 
ATOM      8  C   UNL     1      32.804 -12.774 -22.473  0.00  0.00    +0.015 C 
BRANCH   3  16
ATOM      9  O   UNL     1      33.373 -16.128 -25.537  0.00  0.00    -0.270 OA
ATOM     10  N   UNL     1      34.735 -16.501 -23.674  0.00  0.00    -0.276 N 
ATOM     11  C   UNL     1      35.224 -18.432 -21.565  0.00  0.00    +0.102 C 
ATOM     12  C   UNL     1      34.665 -18.842 -22.933  0.00  0.00    +0.033 C 
ATOM     13  C   UNL     1      34.992 -16.946 -21.265  0.00  0.00    +0.033 C 
ATOM     14  C   UNL     1      35.064 -17.874 -24.047  0.00  0.00    +0.094 C 
ATOM     15  C   UNL     1      35.369 -16.038 -22.434  0.00  0.00    +0.094 C 
ATOM     16  C   UNL     1      33.904 -15.739 -24.498  0.00  0.00    +0.249 C 
BRANCH  11  18
ATOM     17  O   UNL     1      37.494 -18.559 -22.362  0.00  0.00    -0.250 OA
ATOM     18  C   UNL     1      36.681 -18.781 -21.475  0.00  0.00    +0.317 C 
BRANCH  18  19
ATOM     19  O   UNL     1      36.935 -19.371 -20.273  0.00  0.00    -0.444 OA
ATOM     20  C   UNL     1      36.408 -20.692 -20.112  0.00  0.00    +0.256 C 
ENDBRANCH  18  19
ENDBRANCH  11  18
ENDBRANCH   3  16
ENDBRANCH   1   6
BRANCH   1  21
ATOM     21  C   UNL     1      33.753  -9.343 -23.249  0.00  0.00    +0.148 C 
BRANCH  21  28
ATOM     22  N   UNL     1      33.069  -7.130 -23.967  0.00  0.00    -0.392 NA
ATOM     23  N   UNL     1      32.322  -6.438 -21.393  0.00  0.00    -0.200 NA
ATOM     24  N   UNL     1      31.683  -4.337 -22.128  0.00  0.00    -0.271 NA
ATOM     25  N   UNL     1      31.894  -3.721 -24.436  0.00  0.00    -0.310 NA
ATOM     26  N   UNL     1      32.766  -5.277 -25.985  0.00  0.00    -0.329 N 
ATOM     27  N   UNL     1      31.034  -2.207 -22.871  0.00  0.00    -0.283 N 
ATOM     28  C   UNL     1      33.189  -7.980 -22.946  0.00  0.00    +0.133 C 
ATOM     29  C   UNL     1      32.827  -7.653 -21.678  0.00  0.00    +0.193 C 
ATOM     30  C   UNL     1      32.563  -5.914 -23.680  0.00  0.00    +0.248 C 
ATOM     31  C   UNL     1      32.182  -5.551 -22.387  0.00  0.00    +0.131 C 
ATOM     32  C   UNL     1      32.391  -4.951 -24.656  0.00  0.00    +0.231 C 
ATOM     33  C   UNL     1      31.563  -3.483 -23.162  0.00  0.00    +0.207 C 
ATOM     34  H   UNL     1      32.657  -4.613 -26.704  0.00  0.00    +0.145 HD
ATOM     35  H   UNL     1      33.134  -6.167 -26.189  0.00  0.00    +0.145 HD
ATOM     36  H   UNL     1      30.774  -1.981 -21.948  0.00  0.00    +0.156 HD
ATOM     37  H   UNL     1      30.926  -1.543 -23.589  0.00  0.00    +0.156 HD
ENDBRANCH  21  28
ENDBRANCH   1  21
TORSDOF 6
ENDMDL
