MODEL 1
REMARK VINA RESULT:     -11.3      0.000      0.000
REMARK  Name = 656913
REMARK  7 active torsions:
REMARK  status: ('A' for Active; 'I' for Inactive)
REMARK    1  A    between atoms: N_3  and  C_22
REMARK    2  A    between atoms: N_4  and  C_11
REMARK    3  A    between atoms: C_11  and  C_14
REMARK    4  A    between atoms: C_14  and  C_17
REMARK    5  A    between atoms: C_22  and  C_25
REMARK    6  A    between atoms: N_24  and  C_27
REMARK    7  A    between atoms: C_27  and  C_29
REMARK                            x       y       z     vdW  Elec       q    Type
REMARK                         _______ _______ _______ _____ _____    ______ ____
ROOT
ATOM      1 CL   UNL     1      32.786 -13.080 -26.604  0.00  0.00    -0.064 Cl
ATOM      2  O   UNL     1      34.941 -14.132 -22.188  0.00  0.00    -0.266 OA
ATOM      3  N   UNL     1      33.935 -13.604 -24.240  0.00  0.00    -0.233 N 
ATOM      4  N   UNL     1      34.968 -16.783 -22.661  0.00  0.00    -0.310 N 
ATOM      5  N   UNL     1      33.961 -16.374 -24.738  0.00  0.00    -0.223 NA
ATOM      6  C   UNL     1      34.447 -15.940 -23.609  0.00  0.00    +0.183 C 
ATOM      7  C   UNL     1      34.467 -14.455 -23.270  0.00  0.00    +0.285 C 
ATOM      8  C   UNL     1      33.439 -14.138 -25.413  0.00  0.00    +0.133 C 
ATOM      9  C   UNL     1      33.465 -15.458 -25.620  0.00  0.00    +0.127 C 
ATOM     10  H   UNL     1      35.322 -16.400 -21.825  0.00  0.00    +0.149 HD
ENDROOT
BRANCH   4  11
ATOM     11  C   UNL     1      35.014 -18.200 -22.843  0.00  0.00    +0.162 C 
BRANCH  11  14
ATOM     12  F   UNL     1      36.226 -17.865 -20.860  0.00  0.00    -0.196 F 
ATOM     13  F   UNL     1      36.944 -19.387 -22.229  0.00  0.00    -0.196 F 
ATOM     14  C   UNL     1      35.802 -18.851 -21.707  0.00  0.00    +0.317 C 
BRANCH  14  17
ATOM     15  O   UNL     1      36.871 -20.694 -19.959  0.00  0.00    -0.163 OA
ATOM     16  N   UNL     1      35.611 -20.751 -20.149  0.00  0.00    -0.128 N 
ATOM     17  C   UNL     1      34.965 -19.886 -20.996  0.00  0.00    +0.142 C 
ATOM     18  C   UNL     1      33.600 -19.936 -21.208  0.00  0.00    +0.022 C 
ATOM     19  C   UNL     1      34.860 -21.705 -19.490  0.00  0.00    +0.121 C 
ATOM     20  C   UNL     1      32.854 -20.901 -20.540  0.00  0.00    +0.003 C 
ATOM     21  C   UNL     1      33.484 -21.790 -19.676  0.00  0.00    +0.022 C 
ENDBRANCH  14  17
ENDBRANCH  11  14
ENDBRANCH   4  11
BRANCH   3  22
ATOM     22  C   UNL     1      33.917 -12.168 -23.986  0.00  0.00    +0.184 C 
BRANCH  22  25
ATOM     23  O   UNL     1      32.078 -12.684 -22.506  0.00  0.00    -0.273 OA
ATOM     24  N   UNL     1      32.578 -10.461 -22.961  0.00  0.00    -0.299 N 
ATOM     25  C   UNL     1      32.769 -11.831 -23.058  0.00  0.00    +0.243 C 
ATOM     26  H   UNL     1      33.195  -9.867 -23.448  0.00  0.00    +0.150 HD
BRANCH  24  27
ATOM     27  C   UNL     1      31.519  -9.861 -22.180  0.00  0.00    +0.119 C 
BRANCH  27  29
ATOM     28  F   UNL     1      32.658  -8.356 -20.075  0.00  0.00    -0.204 F 
ATOM     29  C   UNL     1      31.590  -8.361 -22.196  0.00  0.00    +0.025 C 
ATOM     30  C   UNL     1      32.165  -7.685 -21.126  0.00  0.00    +0.138 C 
ATOM     31  C   UNL     1      31.079  -7.663 -23.284  0.00  0.00    -0.000 C 
ATOM     32  C   UNL     1      32.229  -6.292 -21.144  0.00  0.00    +0.029 C 
ATOM     33  C   UNL     1      31.144  -6.270 -23.302  0.00  0.00    -0.000 C 
ATOM     34  C   UNL     1      31.719  -5.585 -22.233  0.00  0.00    +0.002 C 
ENDBRANCH  27  29
ENDBRANCH  24  27
ENDBRANCH  22  25
ENDBRANCH   3  22
TORSDOF 7
ENDMDL
MODEL 2
REMARK VINA RESULT:     -11.1      2.391      2.839
REMARK  Name = 656913
REMARK  7 active torsions:
REMARK  status: ('A' for Active; 'I' for Inactive)
REMARK    1  A    between atoms: N_3  and  C_22
REMARK    2  A    between atoms: N_4  and  C_11
REMARK    3  A    between atoms: C_11  and  C_14
REMARK    4  A    between atoms: C_14  and  C_17
REMARK    5  A    between atoms: C_22  and  C_25
REMARK    6  A    between atoms: N_24  and  C_27
REMARK    7  A    between atoms: C_27  and  C_29
REMARK                            x       y       z     vdW  Elec       q    Type
REMARK                         _______ _______ _______ _____ _____    ______ ____
ROOT
ATOM      1 CL   UNL     1      31.193 -11.289 -21.252  0.00  0.00    -0.064 Cl
ATOM      2  O   UNL     1      34.462 -13.641 -24.259  0.00  0.00    -0.266 OA
ATOM      3  N   UNL     1      32.933 -12.516 -22.881  0.00  0.00    -0.233 N 
ATOM      4  N   UNL     1      34.916 -15.609 -22.478  0.00  0.00    -0.310 N 
ATOM      5  N   UNL     1      33.405 -14.571 -21.017  0.00  0.00    -0.223 NA
ATOM      6  C   UNL     1      34.034 -14.608 -22.157  0.00  0.00    +0.183 C 
ATOM      7  C   UNL     1      33.830 -13.531 -23.214  0.00  0.00    +0.285 C 
ATOM      8  C   UNL     1      32.301 -12.545 -21.654  0.00  0.00    +0.133 C 
ATOM      9  C   UNL     1      32.546 -13.535 -20.790  0.00  0.00    +0.127 C 
ATOM     10  H   UNL     1      35.365 -15.587 -23.354  0.00  0.00    +0.149 HD
ENDROOT
BRANCH   4  11
ATOM     11  C   UNL     1      35.206 -16.685 -21.582  0.00  0.00    +0.162 C 
BRANCH  11  14
ATOM     12  F   UNL     1      36.635 -17.899 -22.995  0.00  0.00    -0.196 F 
ATOM     13  F   UNL     1      34.503 -18.029 -23.374  0.00  0.00    -0.196 F 
ATOM     14  C   UNL     1      35.424 -17.978 -22.367  0.00  0.00    +0.317 C 
BRANCH  14  17
ATOM     15  O   UNL     1      37.617 -19.049 -21.088  0.00  0.00    -0.163 OA
ATOM     16  N   UNL     1      36.497 -19.622 -20.878  0.00  0.00    -0.128 N 
ATOM     17  C   UNL     1      35.335 -19.180 -21.459  0.00  0.00    +0.142 C 
ATOM     18  C   UNL     1      34.116 -19.791 -21.237  0.00  0.00    +0.022 C 
ATOM     19  C   UNL     1      36.435 -20.721 -20.043  0.00  0.00    +0.121 C 
ATOM     20  C   UNL     1      34.064 -20.897 -20.395  0.00  0.00    +0.003 C 
ATOM     21  C   UNL     1      35.228 -21.366 -19.794  0.00  0.00    +0.022 C 
ENDBRANCH  14  17
ENDBRANCH  11  14
ENDBRANCH   4  11
BRANCH   3  22
ATOM     22  C   UNL     1      32.686 -11.447 -23.843  0.00  0.00    +0.184 C 
BRANCH  22  25
ATOM     23  O   UNL     1      34.825 -10.327 -23.922  0.00  0.00    -0.273 OA
ATOM     24  N   UNL     1      33.031  -9.272 -22.889  0.00  0.00    -0.299 N 
ATOM     25  C   UNL     1      33.644 -10.303 -23.586  0.00  0.00    +0.243 C 
ATOM     26  H   UNL     1      32.074  -9.360 -22.671  0.00  0.00    +0.150 HD
BRANCH  24  27
ATOM     27  C   UNL     1      33.725  -8.076 -22.467  0.00  0.00    +0.119 C 
BRANCH  27  29
ATOM     28  F   UNL     1      31.328  -6.588 -22.636  0.00  0.00    -0.204 F 
ATOM     29  C   UNL     1      33.535  -6.945 -23.436  0.00  0.00    +0.025 C 
ATOM     30  C   UNL     1      32.328  -6.255 -23.464  0.00  0.00    +0.138 C 
ATOM     31  C   UNL     1      34.570  -6.600 -24.297  0.00  0.00    -0.000 C 
ATOM     32  C   UNL     1      32.155  -5.205 -24.365  0.00  0.00    +0.029 C 
ATOM     33  C   UNL     1      34.396  -5.549 -25.197  0.00  0.00    -0.000 C 
ATOM     34  C   UNL     1      33.189  -4.852 -25.232  0.00  0.00    +0.002 C 
ENDBRANCH  27  29
ENDBRANCH  24  27
ENDBRANCH  22  25
ENDBRANCH   3  22
TORSDOF 7
ENDMDL
MODEL 3
REMARK VINA RESULT:     -11.0      7.654     13.512
REMARK  Name = 656913
REMARK  7 active torsions:
REMARK  status: ('A' for Active; 'I' for Inactive)
REMARK    1  A    between atoms: N_3  and  C_22
REMARK    2  A    between atoms: N_4  and  C_11
REMARK    3  A    between atoms: C_11  and  C_14
REMARK    4  A    between atoms: C_14  and  C_17
REMARK    5  A    between atoms: C_22  and  C_25
REMARK    6  A    between atoms: N_24  and  C_27
REMARK    7  A    between atoms: C_27  and  C_29
REMARK                            x       y       z     vdW  Elec       q    Type
REMARK                         _______ _______ _______ _____ _____    ______ ____
ROOT
ATOM      1 CL   UNL     1      29.691 -23.984 -14.993  0.00  0.00    -0.064 Cl
ATOM      2  O   UNL     1      34.532 -24.319 -16.301  0.00  0.00    -0.266 OA
ATOM      3  N   UNL     1      32.279 -24.187 -15.662  0.00  0.00    -0.233 N 
ATOM      4  N   UNL     1      34.234 -22.665 -18.405  0.00  0.00    -0.310 N 
ATOM      5  N   UNL     1      31.964 -22.458 -17.861  0.00  0.00    -0.223 NA
ATOM      6  C   UNL     1      33.145 -22.955 -17.623  0.00  0.00    +0.183 C 
ATOM      7  C   UNL     1      33.391 -23.897 -16.452  0.00  0.00    +0.285 C 
ATOM      8  C   UNL     1      31.058 -23.622 -15.975  0.00  0.00    +0.133 C 
ATOM      9  C   UNL     1      30.941 -22.804 -17.026  0.00  0.00    +0.127 C 
ATOM     10  H   UNL     1      35.104 -23.069 -18.179  0.00  0.00    +0.149 HD
ENDROOT
BRANCH   4  11
ATOM     11  C   UNL     1      34.151 -21.797 -19.537  0.00  0.00    +0.162 C 
BRANCH  11  14
ATOM     12  F   UNL     1      36.181 -22.472 -20.505  0.00  0.00    -0.196 F 
ATOM     13  F   UNL     1      36.274 -21.047 -18.871  0.00  0.00    -0.196 F 
ATOM     14  C   UNL     1      35.552 -21.377 -19.982  0.00  0.00    +0.317 C 
BRANCH  14  17
ATOM     15  O   UNL     1      37.548 -19.495 -20.233  0.00  0.00    -0.163 OA
ATOM     16  N   UNL     1      36.540 -19.363 -21.003  0.00  0.00    -0.128 N 
ATOM     17  C   UNL     1      35.483 -20.239 -20.971  0.00  0.00    +0.142 C 
ATOM     18  C   UNL     1      34.386 -20.109 -21.801  0.00  0.00    +0.022 C 
ATOM     19  C   UNL     1      36.494 -18.315 -21.902  0.00  0.00    +0.121 C 
ATOM     20  C   UNL     1      34.350 -19.050 -22.702  0.00  0.00    +0.003 C 
ATOM     21  C   UNL     1      35.408 -18.148 -22.755  0.00  0.00    +0.022 C 
ENDBRANCH  14  17
ENDBRANCH  11  14
ENDBRANCH   4  11
BRANCH   3  22
ATOM     22  C   UNL     1      32.436 -25.084 -14.522  0.00  0.00    +0.184 C 
BRANCH  22  25
ATOM     23  O   UNL     1      33.055 -23.532 -12.777  0.00  0.00    -0.273 OA
ATOM     24  N   UNL     1      34.639 -25.035 -13.572  0.00  0.00    -0.299 N 
ATOM     25  C   UNL     1      33.377 -24.461 -13.513  0.00  0.00    +0.243 C 
ATOM     26  H   UNL     1      34.785 -25.777 -14.202  0.00  0.00    +0.150 HD
BRANCH  24  27
ATOM     27  C   UNL     1      35.748 -24.599 -12.753  0.00  0.00    +0.119 C 
BRANCH  27  29
ATOM     28  F   UNL     1      37.492 -26.655 -11.905  0.00  0.00    -0.204 F 
ATOM     29  C   UNL     1      37.071 -24.868 -13.410  0.00  0.00    +0.025 C 
ATOM     30  C   UNL     1      37.879 -25.897 -12.941  0.00  0.00    +0.138 C 
ATOM     31  C   UNL     1      37.474 -24.082 -14.483  0.00  0.00    -0.000 C 
ATOM     32  C   UNL     1      39.107 -26.144 -13.553  0.00  0.00    +0.029 C 
ATOM     33  C   UNL     1      38.702 -24.330 -15.096  0.00  0.00    -0.000 C 
ATOM     34  C   UNL     1      39.518 -25.360 -14.631  0.00  0.00    +0.002 C 
ENDBRANCH  27  29
ENDBRANCH  24  27
ENDBRANCH  22  25
ENDBRANCH   3  22
TORSDOF 7
ENDMDL
MODEL 4
REMARK VINA RESULT:     -10.9      8.720     12.455
REMARK  Name = 656913
REMARK  7 active torsions:
REMARK  status: ('A' for Active; 'I' for Inactive)
REMARK    1  A    between atoms: N_3  and  C_22
REMARK    2  A    between atoms: N_4  and  C_11
REMARK    3  A    between atoms: C_11  and  C_14
REMARK    4  A    between atoms: C_14  and  C_17
REMARK    5  A    between atoms: C_22  and  C_25
REMARK    6  A    between atoms: N_24  and  C_27
REMARK    7  A    between atoms: C_27  and  C_29
REMARK                            x       y       z     vdW  Elec       q    Type
REMARK                         _______ _______ _______ _____ _____    ______ ____
ROOT
ATOM      1 CL   UNL     1      29.742 -24.387 -16.147  0.00  0.00    -0.064 Cl
ATOM      2  O   UNL     1      34.487 -22.817 -15.622  0.00  0.00    -0.266 OA
ATOM      3  N   UNL     1      32.271 -23.532 -15.901  0.00  0.00    -0.233 N 
ATOM      4  N   UNL     1      34.750 -23.944 -13.191  0.00  0.00    -0.310 N 
ATOM      5  N   UNL     1      32.542 -24.711 -13.360  0.00  0.00    -0.223 NA
ATOM      6  C   UNL     1      33.559 -24.067 -13.859  0.00  0.00    +0.183 C 
ATOM      7  C   UNL     1      33.486 -23.403 -15.227  0.00  0.00    +0.285 C 
ATOM      8  C   UNL     1      31.238 -24.231 -15.308  0.00  0.00    +0.133 C 
ATOM      9  C   UNL     1      31.398 -24.780 -14.100  0.00  0.00    +0.127 C 
ATOM     10  H   UNL     1      35.486 -23.445 -13.616  0.00  0.00    +0.149 HD
ENDROOT
BRANCH   4  11
ATOM     11  C   UNL     1      34.962 -24.515 -11.898  0.00  0.00    +0.162 C 
BRANCH  11  14
ATOM     12  F   UNL     1      36.526 -24.705 -10.157  0.00  0.00    -0.196 F 
ATOM     13  F   UNL     1      36.640 -22.945 -11.419  0.00  0.00    -0.196 F 
ATOM     14  C   UNL     1      36.407 -24.290 -11.453  0.00  0.00    +0.317 C 
BRANCH  14  17
ATOM     15  O   UNL     1      39.058 -23.577 -11.687  0.00  0.00    -0.163 OA
ATOM     16  N   UNL     1      38.666 -24.560 -12.399  0.00  0.00    -0.128 N 
ATOM     17  C   UNL     1      37.369 -25.007 -12.368  0.00  0.00    +0.142 C 
ATOM     18  C   UNL     1      36.933 -26.072 -13.133  0.00  0.00    +0.022 C 
ATOM     19  C   UNL     1      39.561 -25.206 -13.231  0.00  0.00    +0.121 C 
ATOM     20  C   UNL     1      37.842 -26.715 -13.967  0.00  0.00    +0.003 C 
ATOM     21  C   UNL     1      39.163 -26.281 -14.017  0.00  0.00    +0.022 C 
ENDBRANCH  14  17
ENDBRANCH  11  14
ENDBRANCH   4  11
BRANCH   3  22
ATOM     22  C   UNL     1      32.124 -22.921 -17.218  0.00  0.00    +0.184 C 
BRANCH  22  25
ATOM     23  O   UNL     1      33.564 -24.525 -18.310  0.00  0.00    -0.273 OA
ATOM     24  N   UNL     1      33.968 -22.255 -18.601  0.00  0.00    -0.299 N 
ATOM     25  C   UNL     1      33.273 -23.349 -18.106  0.00  0.00    +0.243 C 
ATOM     26  H   UNL     1      33.645 -21.353 -18.372  0.00  0.00    +0.150 HD
BRANCH  24  27
ATOM     27  C   UNL     1      35.142 -22.373 -19.437  0.00  0.00    +0.119 C 
BRANCH  27  29
ATOM     28  F   UNL     1      33.188 -20.898 -20.851  0.00  0.00    -0.204 F 
ATOM     29  C   UNL     1      35.451 -21.091 -20.156  0.00  0.00    +0.025 C 
ATOM     30  C   UNL     1      34.440 -20.417 -20.831  0.00  0.00    +0.138 C 
ATOM     31  C   UNL     1      36.747 -20.592 -20.138  0.00  0.00    -0.000 C 
ATOM     32  C   UNL     1      34.730 -19.227 -21.497  0.00  0.00    +0.029 C 
ATOM     33  C   UNL     1      37.037 -19.401 -20.803  0.00  0.00    -0.000 C 
ATOM     34  C   UNL     1      36.029 -18.719 -21.483  0.00  0.00    +0.002 C 
ENDBRANCH  27  29
ENDBRANCH  24  27
ENDBRANCH  22  25
ENDBRANCH   3  22
TORSDOF 7
ENDMDL
MODEL 5
REMARK VINA RESULT:     -10.7      4.833      8.254
REMARK  Name = 656913
REMARK  7 active torsions:
REMARK  status: ('A' for Active; 'I' for Inactive)
REMARK    1  A    between atoms: N_3  and  C_22
REMARK    2  A    between atoms: N_4  and  C_11
REMARK    3  A    between atoms: C_11  and  C_14
REMARK    4  A    between atoms: C_14  and  C_17
REMARK    5  A    between atoms: C_22  and  C_25
REMARK    6  A    between atoms: N_24  and  C_27
REMARK    7  A    between atoms: C_27  and  C_29
REMARK                            x       y       z     vdW  Elec       q    Type
REMARK                         _______ _______ _______ _____ _____    ______ ____
ROOT
ATOM      1 CL   UNL     1      32.425 -20.200 -21.589  0.00  0.00    -0.064 Cl
ATOM      2  O   UNL     1      36.935 -21.505 -19.796  0.00  0.00    -0.266 OA
ATOM      3  N   UNL     1      34.848 -20.878 -20.662  0.00  0.00    -0.233 N 
ATOM      4  N   UNL     1      35.891 -22.721 -17.632  0.00  0.00    -0.310 N 
ATOM      5  N   UNL     1      33.752 -22.148 -18.402  0.00  0.00    -0.223 NA
ATOM      6  C   UNL     1      35.048 -22.138 -18.543  0.00  0.00    +0.183 C 
ATOM      7  C   UNL     1      35.712 -21.470 -19.740  0.00  0.00    +0.285 C 
ATOM      8  C   UNL     1      33.485 -20.931 -20.445  0.00  0.00    +0.133 C 
ATOM      9  C   UNL     1      32.995 -21.542 -19.361  0.00  0.00    +0.127 C 
ATOM     10  H   UNL     1      36.863 -22.682 -17.790  0.00  0.00    +0.149 HD
ENDROOT
BRANCH   4  11
ATOM     11  C   UNL     1      35.408 -23.383 -16.461  0.00  0.00    +0.162 C 
BRANCH  11  14
ATOM     12  F   UNL     1      35.682 -22.366 -14.363  0.00  0.00    -0.196 F 
ATOM     13  F   UNL     1      37.374 -22.335 -15.721  0.00  0.00    -0.196 F 
ATOM     14  C   UNL     1      36.349 -23.124 -15.285  0.00  0.00    +0.317 C 
BRANCH  14  17
ATOM     15  O   UNL     1      38.042 -23.230 -13.113  0.00  0.00    -0.163 OA
ATOM     16  N   UNL     1      37.686 -24.348 -13.615  0.00  0.00    -0.128 N 
ATOM     17  C   UNL     1      36.845 -24.422 -14.697  0.00  0.00    +0.142 C 
ATOM     18  C   UNL     1      36.451 -25.627 -15.248  0.00  0.00    +0.022 C 
ATOM     19  C   UNL     1      38.150 -25.526 -13.064  0.00  0.00    +0.121 C 
ATOM     20  C   UNL     1      36.924 -26.807 -14.686  0.00  0.00    +0.003 C 
ATOM     21  C   UNL     1      37.778 -26.760 -13.588  0.00  0.00    +0.022 C 
ENDBRANCH  14  17
ENDBRANCH  11  14
ENDBRANCH   4  11
BRANCH   3  22
ATOM     22  C   UNL     1      35.410 -20.217 -21.835  0.00  0.00    +0.184 C 
BRANCH  22  25
ATOM     23  O   UNL     1      36.091 -18.355 -20.453  0.00  0.00    -0.273 OA
ATOM     24  N   UNL     1      35.249 -17.941 -22.579  0.00  0.00    -0.299 N 
ATOM     25  C   UNL     1      35.645 -18.753 -21.526  0.00  0.00    +0.243 C 
ATOM     26  H   UNL     1      34.905 -18.370 -23.396  0.00  0.00    +0.150 HD
BRANCH  24  27
ATOM     27  C   UNL     1      35.316 -16.497 -22.536  0.00  0.00    +0.119 C 
BRANCH  27  29
ATOM     28  F   UNL     1      34.282 -13.871 -22.386  0.00  0.00    -0.204 F 
ATOM     29  C   UNL     1      34.532 -15.865 -23.650  0.00  0.00    +0.025 C 
ATOM     30  C   UNL     1      34.053 -14.568 -23.508  0.00  0.00    +0.138 C 
ATOM     31  C   UNL     1      34.293 -16.587 -24.813  0.00  0.00    -0.000 C 
ATOM     32  C   UNL     1      33.326 -13.984 -24.544  0.00  0.00    +0.029 C 
ATOM     33  C   UNL     1      33.566 -16.002 -25.850  0.00  0.00    -0.000 C 
ATOM     34  C   UNL     1      33.082 -14.702 -25.716  0.00  0.00    +0.002 C 
ENDBRANCH  27  29
ENDBRANCH  24  27
ENDBRANCH  22  25
ENDBRANCH   3  22
TORSDOF 7
ENDMDL
MODEL 6
REMARK VINA RESULT:     -10.7      4.021     11.451
REMARK  Name = 656913
REMARK  7 active torsions:
REMARK  status: ('A' for Active; 'I' for Inactive)
REMARK    1  A    between atoms: N_3  and  C_22
REMARK    2  A    between atoms: N_4  and  C_11
REMARK    3  A    between atoms: C_11  and  C_14
REMARK    4  A    between atoms: C_14  and  C_17
REMARK    5  A    between atoms: C_22  and  C_25
REMARK    6  A    between atoms: N_24  and  C_27
REMARK    7  A    between atoms: C_27  and  C_29
REMARK                            x       y       z     vdW  Elec       q    Type
REMARK                         _______ _______ _______ _____ _____    ______ ____
ROOT
ATOM      1 CL   UNL     1      31.140 -10.356 -19.192  0.00  0.00    -0.064 Cl
ATOM      2  O   UNL     1      32.612 -10.455 -23.996  0.00  0.00    -0.266 OA
ATOM      3  N   UNL     1      31.909 -10.443 -21.759  0.00  0.00    -0.233 N 
ATOM      4  N   UNL     1      33.705  -7.996 -23.870  0.00  0.00    -0.310 N 
ATOM      5  N   UNL     1      33.050  -7.874 -21.622  0.00  0.00    -0.223 NA
ATOM      6  C   UNL     1      33.109  -8.522 -22.751  0.00  0.00    +0.183 C 
ATOM      7  C   UNL     1      32.514  -9.915 -22.900  0.00  0.00    +0.285 C 
ATOM      8  C   UNL     1      31.886  -9.696 -20.597  0.00  0.00    +0.133 C 
ATOM      9  C   UNL     1      32.437  -8.479 -20.564  0.00  0.00    +0.127 C 
ATOM     10  H   UNL     1      33.720  -8.531 -24.697  0.00  0.00    +0.149 HD
ENDROOT
BRANCH   4  11
ATOM     11  C   UNL     1      34.304  -6.699 -23.876  0.00  0.00    +0.162 C 
BRANCH  11  14
ATOM     12  F   UNL     1      32.912  -4.866 -23.415  0.00  0.00    -0.196 F 
ATOM     13  F   UNL     1      32.202  -6.328 -24.853  0.00  0.00    -0.196 F 
ATOM     14  C   UNL     1      33.325  -5.670 -24.440  0.00  0.00    +0.317 C 
BRANCH  14  17
ATOM     15  O   UNL     1      32.177  -3.403 -25.506  0.00  0.00    -0.163 OA
ATOM     16  N   UNL     1      33.293  -3.767 -26.006  0.00  0.00    -0.128 N 
ATOM     17  C   UNL     1      33.960  -4.879 -25.557  0.00  0.00    +0.142 C 
ATOM     18  C   UNL     1      35.171  -5.282 -26.089  0.00  0.00    +0.022 C 
ATOM     19  C   UNL     1      33.860  -3.031 -27.028  0.00  0.00    +0.121 C 
ATOM     20  C   UNL     1      35.733  -4.534 -27.118  0.00  0.00    +0.003 C 
ATOM     21  C   UNL     1      35.076  -3.403 -27.591  0.00  0.00    +0.022 C 
ENDBRANCH  14  17
ENDBRANCH  11  14
ENDBRANCH   4  11
BRANCH   3  22
ATOM     22  C   UNL     1      31.314 -11.773 -21.824  0.00  0.00    +0.184 C 
BRANCH  22  25
ATOM     23  O   UNL     1      32.492 -13.288 -20.354  0.00  0.00    -0.273 OA
ATOM     24  N   UNL     1      33.164 -13.108 -22.572  0.00  0.00    -0.299 N 
ATOM     25  C   UNL     1      32.361 -12.813 -21.480  0.00  0.00    +0.243 C 
ATOM     26  H   UNL     1      32.966 -12.667 -23.430  0.00  0.00    +0.150 HD
BRANCH  24  27
ATOM     27  C   UNL     1      34.275 -14.031 -22.513  0.00  0.00    +0.119 C 
BRANCH  27  29
ATOM     28  F   UNL     1      35.633 -16.505 -22.362  0.00  0.00    -0.204 F 
ATOM     29  C   UNL     1      34.201 -15.069 -23.596  0.00  0.00    +0.025 C 
ATOM     30  C   UNL     1      34.895 -16.265 -23.456  0.00  0.00    +0.138 C 
ATOM     31  C   UNL     1      33.437 -14.820 -24.731  0.00  0.00    -0.000 C 
ATOM     32  C   UNL     1      34.823 -17.226 -24.463  0.00  0.00    +0.029 C 
ATOM     33  C   UNL     1      33.366 -15.782 -25.738  0.00  0.00    -0.000 C 
ATOM     34  C   UNL     1      34.059 -16.985 -25.605  0.00  0.00    +0.002 C 
ENDBRANCH  27  29
ENDBRANCH  24  27
ENDBRANCH  22  25
ENDBRANCH   3  22
TORSDOF 7
ENDMDL
MODEL 7
REMARK VINA RESULT:     -10.6      2.965     11.186
REMARK  Name = 656913
REMARK  7 active torsions:
REMARK  status: ('A' for Active; 'I' for Inactive)
REMARK    1  A    between atoms: N_3  and  C_22
REMARK    2  A    between atoms: N_4  and  C_11
REMARK    3  A    between atoms: C_11  and  C_14
REMARK    4  A    between atoms: C_14  and  C_17
REMARK    5  A    between atoms: C_22  and  C_25
REMARK    6  A    between atoms: N_24  and  C_27
REMARK    7  A    between atoms: C_27  and  C_29
REMARK                            x       y       z     vdW  Elec       q    Type
REMARK                         _______ _______ _______ _____ _____    ______ ____
ROOT
ATOM      1 CL   UNL     1      33.928 -12.334 -24.885  0.00  0.00    -0.064 Cl
ATOM      2  O   UNL     1      31.122 -10.615 -21.086  0.00  0.00    -0.266 OA
ATOM      3  N   UNL     1      32.418 -11.452 -22.853  0.00  0.00    -0.233 N 
ATOM      4  N   UNL     1      32.051  -8.100 -21.339  0.00  0.00    -0.310 N 
ATOM      5  N   UNL     1      33.391  -8.825 -23.120  0.00  0.00    -0.223 NA
ATOM      6  C   UNL     1      32.513  -9.073 -22.189  0.00  0.00    +0.183 C 
ATOM      7  C   UNL     1      31.942 -10.469 -21.985  0.00  0.00    +0.285 C 
ATOM      8  C   UNL     1      33.347 -11.114 -23.817  0.00  0.00    +0.133 C 
ATOM      9  C   UNL     1      33.790  -9.857 -23.918  0.00  0.00    +0.127 C 
ATOM     10  H   UNL     1      31.387  -8.344 -20.653  0.00  0.00    +0.149 HD
ENDROOT
BRANCH   4  11
ATOM     11  C   UNL     1      32.499  -6.745 -21.414  0.00  0.00    +0.162 C 
BRANCH  11  14
ATOM     12  F   UNL     1      31.013  -4.929 -21.485  0.00  0.00    -0.196 F 
ATOM     13  F   UNL     1      30.474  -6.710 -22.601  0.00  0.00    -0.196 F 
ATOM     14  C   UNL     1      31.537  -5.920 -22.267  0.00  0.00    +0.317 C 
BRANCH  14  17
ATOM     15  O   UNL     1      30.559  -3.789 -23.715  0.00  0.00    -0.163 OA
ATOM     16  N   UNL     1      31.651  -4.304 -24.125  0.00  0.00    -0.128 N 
ATOM     17  C   UNL     1      32.236  -5.369 -23.486  0.00  0.00    +0.142 C 
ATOM     18  C   UNL     1      33.421  -5.934 -23.918  0.00  0.00    +0.022 C 
ATOM     19  C   UNL     1      32.278  -3.787 -25.242  0.00  0.00    +0.121 C 
ATOM     20  C   UNL     1      34.043  -5.405 -25.044  0.00  0.00    +0.003 C 
ATOM     21  C   UNL     1      33.471  -4.326 -25.711  0.00  0.00    +0.022 C 
ENDBRANCH  14  17
ENDBRANCH  11  14
ENDBRANCH   4  11
BRANCH   3  22
ATOM     22  C   UNL     1      31.918 -12.817 -22.718  0.00  0.00    +0.184 C 
BRANCH  22  25
ATOM     23  O   UNL     1      32.607 -13.577 -20.530  0.00  0.00    -0.273 OA
ATOM     24  N   UNL     1      33.832 -14.228 -22.395  0.00  0.00    -0.299 N 
ATOM     25  C   UNL     1      32.791 -13.581 -21.745  0.00  0.00    +0.243 C 
ATOM     26  H   UNL     1      33.882 -14.164 -23.376  0.00  0.00    +0.150 HD
BRANCH  24  27
ATOM     27  C   UNL     1      34.846 -14.993 -21.703  0.00  0.00    +0.119 C 
BRANCH  27  29
ATOM     28  F   UNL     1      35.660 -17.246 -20.204  0.00  0.00    -0.204 F 
ATOM     29  C   UNL     1      35.038 -16.352 -22.313  0.00  0.00    +0.025 C 
ATOM     30  C   UNL     1      35.440 -17.416 -21.515  0.00  0.00    +0.138 C 
ATOM     31  C   UNL     1      34.812 -16.530 -23.673  0.00  0.00    -0.000 C 
ATOM     32  C   UNL     1      35.617 -18.676 -22.085  0.00  0.00    +0.029 C 
ATOM     33  C   UNL     1      34.989 -17.790 -24.242  0.00  0.00    -0.000 C 
ATOM     34  C   UNL     1      35.392 -18.864 -23.448  0.00  0.00    +0.002 C 
ENDBRANCH  27  29
ENDBRANCH  24  27
ENDBRANCH  22  25
ENDBRANCH   3  22
TORSDOF 7
ENDMDL
MODEL 8
REMARK VINA RESULT:     -10.4      8.011     12.987
REMARK  Name = 656913
REMARK  7 active torsions:
REMARK  status: ('A' for Active; 'I' for Inactive)
REMARK    1  A    between atoms: N_3  and  C_22
REMARK    2  A    between atoms: N_4  and  C_11
REMARK    3  A    between atoms: C_11  and  C_14
REMARK    4  A    between atoms: C_14  and  C_17
REMARK    5  A    between atoms: C_22  and  C_25
REMARK    6  A    between atoms: N_24  and  C_27
REMARK    7  A    between atoms: C_27  and  C_29
REMARK                            x       y       z     vdW  Elec       q    Type
REMARK                         _______ _______ _______ _____ _____    ______ ____
ROOT
ATOM      1 CL   UNL     1      37.696 -24.129 -12.585  0.00  0.00    -0.064 Cl
ATOM      2  O   UNL     1      33.996 -24.323 -15.981  0.00  0.00    -0.266 OA
ATOM      3  N   UNL     1      35.702 -24.254 -14.373  0.00  0.00    -0.233 N 
ATOM      4  N   UNL     1      35.285 -22.701 -17.702  0.00  0.00    -0.310 N 
ATOM      5  N   UNL     1      37.052 -22.559 -16.168  0.00  0.00    -0.223 NA
ATOM      6  C   UNL     1      35.880 -23.017 -16.506  0.00  0.00    +0.183 C 
ATOM      7  C   UNL     1      35.091 -23.938 -15.587  0.00  0.00    +0.285 C 
ATOM      8  C   UNL     1      36.948 -23.732 -14.085  0.00  0.00    +0.133 C 
ATOM      9  C   UNL     1      37.564 -22.930 -14.959  0.00  0.00    +0.127 C 
ATOM     10  H   UNL     1      34.397 -23.076 -17.905  0.00  0.00    +0.149 HD
ENDROOT
BRANCH   4  11
ATOM     11  C   UNL     1      35.910 -21.847 -18.662  0.00  0.00    +0.162 C 
BRANCH  11  14
ATOM     12  F   UNL     1      33.724 -21.231 -19.257  0.00  0.00    -0.196 F 
ATOM     13  F   UNL     1      34.732 -22.686 -20.511  0.00  0.00    -0.196 F 
ATOM     14  C   UNL     1      34.939 -21.538 -19.801  0.00  0.00    +0.317 C 
BRANCH  14  17
ATOM     15  O   UNL     1      33.361 -20.169 -21.598  0.00  0.00    -0.163 OA
ATOM     16  N   UNL     1      34.584 -19.816 -21.528  0.00  0.00    -0.128 N 
ATOM     17  C   UNL     1      35.467 -20.423 -20.671  0.00  0.00    +0.142 C 
ATOM     18  C   UNL     1      36.795 -20.049 -20.585  0.00  0.00    +0.022 C 
ATOM     19  C   UNL     1      35.051 -18.793 -22.332  0.00  0.00    +0.121 C 
ATOM     20  C   UNL     1      37.254 -19.018 -21.398  0.00  0.00    +0.003 C 
ATOM     21  C   UNL     1      36.380 -18.386 -22.276  0.00  0.00    +0.022 C 
ENDBRANCH  14  17
ENDBRANCH  11  14
ENDBRANCH   4  11
BRANCH   3  22
ATOM     22  C   UNL     1      35.006 -25.132 -13.438  0.00  0.00    +0.184 C 
BRANCH  22  25
ATOM     23  O   UNL     1      33.613 -23.473 -12.366  0.00  0.00    -0.273 OA
ATOM     24  N   UNL     1      32.610 -25.253 -13.474  0.00  0.00    -0.299 N 
ATOM     25  C   UNL     1      33.689 -24.500 -13.036  0.00  0.00    +0.243 C 
ATOM     26  H   UNL     1      32.789 -26.061 -14.007  0.00  0.00    +0.150 HD
BRANCH  24  27
ATOM     27  C   UNL     1      31.235 -24.909 -13.188  0.00  0.00    +0.119 C 
BRANCH  27  29
ATOM     28  F   UNL     1      31.640 -22.387 -14.399  0.00  0.00    -0.204 F 
ATOM     29  C   UNL     1      30.498 -24.469 -14.421  0.00  0.00    +0.025 C 
ATOM     30  C   UNL     1      30.748 -23.214 -14.963  0.00  0.00    +0.138 C 
ATOM     31  C   UNL     1      29.572 -25.324 -15.006  0.00  0.00    -0.000 C 
ATOM     32  C   UNL     1      30.062 -22.808 -16.107  0.00  0.00    +0.029 C 
ATOM     33  C   UNL     1      28.887 -24.918 -16.151  0.00  0.00    -0.000 C 
ATOM     34  C   UNL     1      29.131 -23.661 -16.702  0.00  0.00    +0.002 C 
ENDBRANCH  27  29
ENDBRANCH  24  27
ENDBRANCH  22  25
ENDBRANCH   3  22
TORSDOF 7
ENDMDL
MODEL 9
REMARK VINA RESULT:     -10.3      2.955     11.234
REMARK  Name = 656913
REMARK  7 active torsions:
REMARK  status: ('A' for Active; 'I' for Inactive)
REMARK    1  A    between atoms: N_3  and  C_22
REMARK    2  A    between atoms: N_4  and  C_11
REMARK    3  A    between atoms: C_11  and  C_14
REMARK    4  A    between atoms: C_14  and  C_17
REMARK    5  A    between atoms: C_22  and  C_25
REMARK    6  A    between atoms: N_24  and  C_27
REMARK    7  A    between atoms: C_27  and  C_29
REMARK                            x       y       z     vdW  Elec       q    Type
REMARK                         _______ _______ _______ _____ _____    ______ ____
ROOT
ATOM      1 CL   UNL     1      31.922 -14.142 -20.461  0.00  0.00    -0.064 Cl
ATOM      2  O   UNL     1      32.873 -10.808 -24.099  0.00  0.00    -0.266 OA
ATOM      3  N   UNL     1      32.432 -12.392 -22.426  0.00  0.00    -0.233 N 
ATOM      4  N   UNL     1      32.642  -8.702 -22.437  0.00  0.00    -0.310 N 
ATOM      5  N   UNL     1      32.189 -10.194 -20.687  0.00  0.00    -0.223 NA
ATOM      6  C   UNL     1      32.466  -9.968 -21.940  0.00  0.00    +0.183 C 
ATOM      7  C   UNL     1      32.612 -11.108 -22.939  0.00  0.00    +0.285 C 
ATOM      8  C   UNL     1      32.141 -12.553 -21.086  0.00  0.00    +0.133 C 
ATOM      9  C   UNL     1      32.033 -11.488 -20.285  0.00  0.00    +0.127 C 
ATOM     10  H   UNL     1      32.850  -8.590 -23.393  0.00  0.00    +0.149 HD
ENDROOT
BRANCH   4  11
ATOM     11  C   UNL     1      32.534  -7.538 -21.615  0.00  0.00    +0.162 C 
BRANCH  11  14
ATOM     12  F   UNL     1      31.367  -5.511 -21.413  0.00  0.00    -0.196 F 
ATOM     13  F   UNL     1      30.536  -7.019 -22.732  0.00  0.00    -0.196 F 
ATOM     14  C   UNL     1      31.716  -6.463 -22.329  0.00  0.00    +0.317 C 
BRANCH  14  17
ATOM     15  O   UNL     1      30.711  -4.469 -23.943  0.00  0.00    -0.163 OA
ATOM     16  N   UNL     1      31.883  -4.889 -24.218  0.00  0.00    -0.128 N 
ATOM     17  C   UNL     1      32.490  -5.879 -23.486  0.00  0.00    +0.142 C 
ATOM     18  C   UNL     1      33.760  -6.341 -23.772  0.00  0.00    +0.022 C 
ATOM     19  C   UNL     1      32.577  -4.343 -25.281  0.00  0.00    +0.121 C 
ATOM     20  C   UNL     1      34.450  -5.784 -24.844  0.00  0.00    +0.003 C 
ATOM     21  C   UNL     1      33.857  -4.780 -25.603  0.00  0.00    +0.022 C 
ENDBRANCH  14  17
ENDBRANCH  11  14
ENDBRANCH   4  11
BRANCH   3  22
ATOM     22  C   UNL     1      32.554 -13.536 -23.324  0.00  0.00    +0.184 C 
BRANCH  22  25
ATOM     23  O   UNL     1      34.757 -13.757 -22.356  0.00  0.00    -0.273 OA
ATOM     24  N   UNL     1      34.067 -15.285 -23.966  0.00  0.00    -0.299 N 
ATOM     25  C   UNL     1      33.907 -14.189 -23.130  0.00  0.00    +0.243 C 
ATOM     26  H   UNL     1      33.316 -15.543 -24.547  0.00  0.00    +0.150 HD
BRANCH  24  27
ATOM     27  C   UNL     1      35.282 -16.067 -24.024  0.00  0.00    +0.119 C 
BRANCH  27  29
ATOM     28  F   UNL     1      34.300 -18.499 -25.077  0.00  0.00    -0.204 F 
ATOM     29  C   UNL     1      35.180 -17.325 -23.211  0.00  0.00    +0.025 C 
ATOM     30  C   UNL     1      34.688 -18.486 -23.794  0.00  0.00    +0.138 C 
ATOM     31  C   UNL     1      35.581 -17.313 -21.880  0.00  0.00    -0.000 C 
ATOM     32  C   UNL     1      34.595 -19.653 -23.036  0.00  0.00    +0.029 C 
ATOM     33  C   UNL     1      35.488 -18.480 -21.122  0.00  0.00    -0.000 C 
ATOM     34  C   UNL     1      34.995 -19.650 -21.700  0.00  0.00    +0.002 C 
ENDBRANCH  27  29
ENDBRANCH  24  27
ENDBRANCH  22  25
ENDBRANCH   3  22
TORSDOF 7
ENDMDL
