MODEL 1
REMARK VINA RESULT:     -11.2      0.000      0.000
REMARK  Name = 11992146
REMARK  2 active torsions:
REMARK  status: ('A' for Active; 'I' for Inactive)
REMARK    1  A    between atoms: C_2  and  C_14
REMARK    2  A    between atoms: C_5  and  C_20
REMARK                            x       y       z     vdW  Elec       q    Type
REMARK                         _______ _______ _______ _____ _____    ______ ____
ROOT
ATOM      1  N   UNL     1      31.732  -9.541 -21.654  0.00  0.00    -0.244 NA
ATOM      2  C   UNL     1      32.710 -11.953 -22.670  0.00  0.00    +0.016 C 
ATOM      3  C   UNL     1      33.065 -10.750 -23.269  0.00  0.00    +0.020 C 
ATOM      4  C   UNL     1      31.867 -11.954 -21.566  0.00  0.00    +0.022 C 
ATOM      5  C   UNL     1      32.553  -9.582 -22.727  0.00  0.00    +0.084 C 
ATOM      6  C   UNL     1      31.409 -10.731 -21.100  0.00  0.00    +0.099 C 
ENDROOT
BRANCH   2  14
ATOM      7  O   UNL     1      35.781 -16.646 -22.571  0.00  0.00    -0.270 OA
ATOM      8  N   UNL     1      32.900 -13.636 -24.458  0.00  0.00    -0.316 N 
ATOM      9  N   UNL     1      34.807 -17.255 -24.576  0.00  0.00    -0.300 N 
ATOM     10  C   UNL     1      33.518 -14.833 -24.679  0.00  0.00    +0.031 C 
ATOM     11  C   UNL     1      33.462 -15.629 -25.927  0.00  0.00    +0.063 C 
ATOM     12  C   UNL     1      34.231 -15.177 -23.549  0.00  0.00    +0.064 C 
ATOM     13  C   UNL     1      33.731 -17.094 -25.561  0.00  0.00    +0.096 C 
ATOM     14  C   UNL     1      33.214 -13.199 -23.195  0.00  0.00    +0.048 C 
ATOM     15  C   UNL     1      34.045 -14.135 -22.609  0.00  0.00    +0.020 C 
ATOM     16  C   UNL     1      35.005 -16.401 -23.491  0.00  0.00    +0.247 C 
ATOM     17  H   UNL     1      32.322 -13.164 -25.101  0.00  0.00    +0.152 HD
ATOM     18  H   UNL     1      35.427 -18.012 -24.688  0.00  0.00    +0.150 HD
ENDBRANCH   2  14
BRANCH   5  20
ATOM     19  F   UNL     1      30.575  -7.794 -23.616  0.00  0.00    -0.204 F 
ATOM     20  C   UNL     1      32.878  -8.294 -23.294  0.00  0.00    +0.045 C 
ATOM     21  C   UNL     1      31.863  -7.438 -23.725  0.00  0.00    +0.142 C 
ATOM     22  C   UNL     1      34.213  -7.904 -23.415  0.00  0.00    +0.004 C 
ATOM     23  C   UNL     1      32.182  -6.196 -24.276  0.00  0.00    +0.030 C 
ATOM     24  C   UNL     1      34.533  -6.663 -23.966  0.00  0.00    +0.000 C 
ATOM     25  C   UNL     1      33.517  -5.809 -24.396  0.00  0.00    +0.002 C 
ENDBRANCH   5  20
TORSDOF 2
ENDMDL
MODEL 2
REMARK VINA RESULT:     -11.0     10.936     14.318
REMARK  Name = 11992146
REMARK  2 active torsions:
REMARK  status: ('A' for Active; 'I' for Inactive)
REMARK    1  A    between atoms: C_2  and  C_14
REMARK    2  A    between atoms: C_5  and  C_20
REMARK                            x       y       z     vdW  Elec       q    Type
REMARK                         _______ _______ _______ _____ _____    ______ ____
ROOT
ATOM      1  N   UNL     1      32.389 -22.616 -18.239  0.00  0.00    -0.244 NA
ATOM      2  C   UNL     1      34.135 -23.543 -16.265  0.00  0.00    +0.016 C 
ATOM      3  C   UNL     1      34.622 -22.792 -17.329  0.00  0.00    +0.020 C 
ATOM      4  C   UNL     1      32.778 -23.831 -16.186  0.00  0.00    +0.022 C 
ATOM      5  C   UNL     1      33.715 -22.357 -18.282  0.00  0.00    +0.084 C 
ATOM      6  C   UNL     1      31.954 -23.349 -17.191  0.00  0.00    +0.099 C 
ENDROOT
BRANCH   2  14
ATOM      7  O   UNL     1      37.428 -27.323 -13.749  0.00  0.00    -0.270 OA
ATOM      8  N   UNL     1      35.362 -23.263 -14.148  0.00  0.00    -0.316 N 
ATOM      9  N   UNL     1      38.032 -25.695 -12.225  0.00  0.00    -0.300 N 
ATOM     10  C   UNL     1      36.222 -23.970 -13.359  0.00  0.00    +0.031 C 
ATOM     11  C   UNL     1      36.793 -23.523 -12.068  0.00  0.00    +0.063 C 
ATOM     12  C   UNL     1      36.461 -25.193 -13.952  0.00  0.00    +0.064 C 
ATOM     13  C   UNL     1      38.110 -24.278 -11.851  0.00  0.00    +0.096 C 
ATOM     14  C   UNL     1      35.036 -24.022 -15.245  0.00  0.00    +0.048 C 
ATOM     15  C   UNL     1      35.700 -25.229 -15.146  0.00  0.00    +0.020 C 
ATOM     16  C   UNL     1      37.334 -26.171 -13.335  0.00  0.00    +0.247 C 
ATOM     17  H   UNL     1      35.029 -22.354 -13.961  0.00  0.00    +0.152 HD
ATOM     18  H   UNL     1      38.501 -26.349 -11.657  0.00  0.00    +0.150 HD
ENDBRANCH   2  14
BRANCH   5  20
ATOM     19  F   UNL     1      36.427 -22.074 -18.962  0.00  0.00    -0.204 F 
ATOM     20  C   UNL     1      34.147 -21.572 -19.415  0.00  0.00    +0.045 C 
ATOM     21  C   UNL     1      35.505 -21.457 -19.715  0.00  0.00    +0.142 C 
ATOM     22  C   UNL     1      33.202 -20.924 -20.213  0.00  0.00    +0.004 C 
ATOM     23  C   UNL     1      35.918 -20.695 -20.810  0.00  0.00    +0.030 C 
ATOM     24  C   UNL     1      33.614 -20.162 -21.306  0.00  0.00    +0.000 C 
ATOM     25  C   UNL     1      34.971 -20.047 -21.604  0.00  0.00    +0.002 C 
ENDBRANCH   5  20
TORSDOF 2
ENDMDL
MODEL 3
REMARK VINA RESULT:     -10.9     10.929     14.312
REMARK  Name = 11992146
REMARK  2 active torsions:
REMARK  status: ('A' for Active; 'I' for Inactive)
REMARK    1  A    between atoms: C_2  and  C_14
REMARK    2  A    between atoms: C_5  and  C_20
REMARK                            x       y       z     vdW  Elec       q    Type
REMARK                         _______ _______ _______ _____ _____    ______ ____
ROOT
ATOM      1  N   UNL     1      32.443 -22.602 -18.104  0.00  0.00    -0.244 NA
ATOM      2  C   UNL     1      34.326 -23.612 -16.305  0.00  0.00    +0.016 C 
ATOM      3  C   UNL     1      34.740 -22.849 -17.390  0.00  0.00    +0.020 C 
ATOM      4  C   UNL     1      32.974 -23.871 -16.116  0.00  0.00    +0.022 C 
ATOM      5  C   UNL     1      33.767 -22.371 -18.254  0.00  0.00    +0.084 C 
ATOM      6  C   UNL     1      32.080 -23.347 -17.038  0.00  0.00    +0.099 C 
ENDROOT
BRANCH   2  14
ATOM      7  O   UNL     1      36.077 -25.645 -11.379  0.00  0.00    -0.270 OA
ATOM      8  N   UNL     1      36.632 -24.219 -15.689  0.00  0.00    -0.316 N 
ATOM      9  N   UNL     1      38.162 -25.968 -12.320  0.00  0.00    -0.300 N 
ATOM     10  C   UNL     1      37.305 -24.744 -14.623  0.00  0.00    +0.031 C 
ATOM     11  C   UNL     1      38.766 -24.974 -14.539  0.00  0.00    +0.063 C 
ATOM     12  C   UNL     1      36.401 -25.006 -13.615  0.00  0.00    +0.064 C 
ATOM     13  C   UNL     1      39.007 -26.089 -13.515  0.00  0.00    +0.096 C 
ATOM     14  C   UNL     1      35.298 -24.134 -15.374  0.00  0.00    +0.048 C 
ATOM     15  C   UNL     1      35.126 -24.611 -14.089  0.00  0.00    +0.020 C 
ATOM     16  C   UNL     1      36.828 -25.563 -12.346  0.00  0.00    +0.247 C 
ATOM     17  H   UNL     1      37.038 -23.947 -16.544  0.00  0.00    +0.152 HD
ATOM     18  H   UNL     1      38.562 -26.187 -11.447  0.00  0.00    +0.150 HD
ENDBRANCH   2  14
BRANCH   5  20
ATOM     19  F   UNL     1      36.434 -22.001 -19.057  0.00  0.00    -0.204 F 
ATOM     20  C   UNL     1      34.120 -21.572 -19.403  0.00  0.00    +0.045 C 
ATOM     21  C   UNL     1      35.459 -21.413 -19.766  0.00  0.00    +0.142 C 
ATOM     22  C   UNL     1      33.120 -20.954 -20.155  0.00  0.00    +0.004 C 
ATOM     23  C   UNL     1      35.796 -20.637 -20.876  0.00  0.00    +0.030 C 
ATOM     24  C   UNL     1      33.456 -20.178 -21.264  0.00  0.00    +0.000 C 
ATOM     25  C   UNL     1      34.794 -20.019 -21.624  0.00  0.00    +0.002 C 
ENDBRANCH   5  20
TORSDOF 2
ENDMDL
MODEL 4
REMARK VINA RESULT:     -10.9      5.395     10.301
REMARK  Name = 11992146
REMARK  2 active torsions:
REMARK  status: ('A' for Active; 'I' for Inactive)
REMARK    1  A    between atoms: C_2  and  C_14
REMARK    2  A    between atoms: C_5  and  C_20
REMARK                            x       y       z     vdW  Elec       q    Type
REMARK                         _______ _______ _______ _____ _____    ______ ____
ROOT
ATOM      1  N   UNL     1      36.918 -20.463 -20.353  0.00  0.00    -0.244 NA
ATOM      2  C   UNL     1      35.758 -18.520 -21.992  0.00  0.00    +0.016 C 
ATOM      3  C   UNL     1      34.953 -19.375 -21.248  0.00  0.00    +0.020 C 
ATOM      4  C   UNL     1      37.141 -18.634 -21.918  0.00  0.00    +0.022 C 
ATOM      5  C   UNL     1      35.577 -20.321 -20.451  0.00  0.00    +0.084 C 
ATOM      6  C   UNL     1      37.667 -19.614 -21.091  0.00  0.00    +0.099 C 
ENDROOT
BRANCH   2  14
ATOM      7  O   UNL     1      33.380 -16.581 -26.687  0.00  0.00    -0.270 OA
ATOM      8  N   UNL     1      35.073 -16.201 -22.456  0.00  0.00    -0.316 N 
ATOM      9  N   UNL     1      33.083 -14.549 -25.627  0.00  0.00    -0.300 N 
ATOM     10  C   UNL     1      34.469 -15.489 -23.452  0.00  0.00    +0.031 C 
ATOM     11  C   UNL     1      34.209 -14.030 -23.450  0.00  0.00    +0.063 C 
ATOM     12  C   UNL     1      34.156 -16.350 -24.483  0.00  0.00    +0.064 C 
ATOM     13  C   UNL     1      33.025 -13.764 -24.389  0.00  0.00    +0.096 C 
ATOM     14  C   UNL     1      35.160 -17.516 -22.839  0.00  0.00    +0.048 C 
ATOM     15  C   UNL     1      34.603 -17.637 -24.097  0.00  0.00    +0.020 C 
ATOM     16  C   UNL     1      33.512 -15.875 -25.692  0.00  0.00    +0.247 C 
ATOM     17  H   UNL     1      35.393 -15.830 -21.601  0.00  0.00    +0.152 HD
ATOM     18  H   UNL     1      32.801 -14.113 -26.464  0.00  0.00    +0.150 HD
ENDBRANCH   2  14
BRANCH   5  20
ATOM     19  F   UNL     1      32.776 -20.474 -20.620  0.00  0.00    -0.204 F 
ATOM     20  C   UNL     1      34.807 -21.243 -19.650  0.00  0.00    +0.045 C 
ATOM     21  C   UNL     1      33.416 -21.284 -19.765  0.00  0.00    +0.142 C 
ATOM     22  C   UNL     1      35.455 -22.097 -18.755  0.00  0.00    +0.004 C 
ATOM     23  C   UNL     1      32.676 -22.175 -18.986  0.00  0.00    +0.030 C 
ATOM     24  C   UNL     1      34.716 -22.987 -17.977  0.00  0.00    +0.000 C 
ATOM     25  C   UNL     1      33.326 -23.026 -18.092  0.00  0.00    +0.002 C 
ENDBRANCH   5  20
TORSDOF 2
ENDMDL
MODEL 5
REMARK VINA RESULT:     -10.6     10.735     14.138
REMARK  Name = 11992146
REMARK  2 active torsions:
REMARK  status: ('A' for Active; 'I' for Inactive)
REMARK    1  A    between atoms: C_2  and  C_14
REMARK    2  A    between atoms: C_5  and  C_20
REMARK                            x       y       z     vdW  Elec       q    Type
REMARK                         _______ _______ _______ _____ _____    ______ ____
ROOT
ATOM      1  N   UNL     1      32.636 -22.510 -18.357  0.00  0.00    -0.244 NA
ATOM      2  C   UNL     1      34.302 -23.466 -16.328  0.00  0.00    +0.016 C 
ATOM      3  C   UNL     1      34.837 -22.730 -17.379  0.00  0.00    +0.020 C 
ATOM      4  C   UNL     1      32.937 -23.724 -16.289  0.00  0.00    +0.022 C 
ATOM      5  C   UNL     1      33.968 -22.279 -18.361  0.00  0.00    +0.084 C 
ATOM      6  C   UNL     1      32.154 -23.228 -17.320  0.00  0.00    +0.099 C 
ENDROOT
BRANCH   2  14
ATOM      7  O   UNL     1      37.440 -27.303 -13.704  0.00  0.00    -0.270 OA
ATOM      8  N   UNL     1      35.468 -23.204 -14.175  0.00  0.00    -0.316 N 
ATOM      9  N   UNL     1      38.029 -25.683 -12.165  0.00  0.00    -0.300 N 
ATOM     10  C   UNL     1      36.290 -23.926 -13.358  0.00  0.00    +0.031 C 
ATOM     11  C   UNL     1      36.830 -23.487 -12.051  0.00  0.00    +0.063 C 
ATOM     12  C   UNL     1      36.522 -25.155 -13.941  0.00  0.00    +0.064 C 
ATOM     13  C   UNL     1      38.124 -24.267 -11.792  0.00  0.00    +0.096 C 
ATOM     14  C   UNL     1      35.161 -23.960 -15.279  0.00  0.00    +0.048 C 
ATOM     15  C   UNL     1      35.798 -25.180 -15.158  0.00  0.00    +0.020 C 
ATOM     16  C   UNL     1      37.357 -26.149 -13.295  0.00  0.00    +0.247 C 
ATOM     17  H   UNL     1      35.149 -22.288 -14.000  0.00  0.00    +0.152 HD
ATOM     18  H   UNL     1      38.467 -26.345 -11.582  0.00  0.00    +0.150 HD
ENDBRANCH   2  14
BRANCH   5  20
ATOM     19  F   UNL     1      32.249 -20.762 -19.985  0.00  0.00    -0.204 F 
ATOM     20  C   UNL     1      34.450 -21.509 -19.483  0.00  0.00    +0.045 C 
ATOM     21  C   UNL     1      33.560 -20.770 -20.265  0.00  0.00    +0.142 C 
ATOM     22  C   UNL     1      35.812 -21.504 -19.790  0.00  0.00    +0.004 C 
ATOM     23  C   UNL     1      34.031 -20.030 -21.351  0.00  0.00    +0.030 C 
ATOM     24  C   UNL     1      36.283 -20.765 -20.875  0.00  0.00    +0.000 C 
ATOM     25  C   UNL     1      35.392 -20.028 -21.656  0.00  0.00    +0.002 C 
ENDBRANCH   5  20
TORSDOF 2
ENDMDL
MODEL 6
REMARK VINA RESULT:     -10.5     11.089     15.214
REMARK  Name = 11992146
REMARK  2 active torsions:
REMARK  status: ('A' for Active; 'I' for Inactive)
REMARK    1  A    between atoms: C_2  and  C_14
REMARK    2  A    between atoms: C_5  and  C_20
REMARK                            x       y       z     vdW  Elec       q    Type
REMARK                         _______ _______ _______ _____ _____    ______ ____
ROOT
ATOM      1  N   UNL     1      33.640 -24.914 -14.228  0.00  0.00    -0.244 NA
ATOM      2  C   UNL     1      33.945 -23.414 -16.565  0.00  0.00    +0.016 C 
ATOM      3  C   UNL     1      35.064 -23.834 -15.856  0.00  0.00    +0.020 C 
ATOM      4  C   UNL     1      32.674 -23.742 -16.110  0.00  0.00    +0.022 C 
ATOM      5  C   UNL     1      34.859 -24.575 -14.703  0.00  0.00    +0.084 C 
ATOM      6  C   UNL     1      32.576 -24.488 -14.945  0.00  0.00    +0.099 C 
ENDROOT
BRANCH   2  14
ATOM      7  O   UNL     1      32.156 -20.612 -21.083  0.00  0.00    -0.270 OA
ATOM      8  N   UNL     1      35.338 -22.359 -18.301  0.00  0.00    -0.316 N 
ATOM      9  N   UNL     1      34.350 -20.034 -21.520  0.00  0.00    -0.300 N 
ATOM     10  C   UNL     1      35.176 -21.619 -19.437  0.00  0.00    +0.031 C 
ATOM     11  C   UNL     1      36.258 -21.134 -20.325  0.00  0.00    +0.063 C 
ATOM     12  C   UNL     1      33.828 -21.413 -19.641  0.00  0.00    +0.064 C 
ATOM     13  C   UNL     1      35.738 -19.894 -21.062  0.00  0.00    +0.096 C 
ATOM     14  C   UNL     1      34.102 -22.639 -17.773  0.00  0.00    +0.048 C 
ATOM     15  C   UNL     1      33.144 -22.068 -18.589  0.00  0.00    +0.020 C 
ATOM     16  C   UNL     1      33.346 -20.663 -20.785  0.00  0.00    +0.247 C 
ATOM     17  H   UNL     1      36.201 -22.645 -17.922  0.00  0.00    +0.152 HD
ATOM     18  H   UNL     1      34.114 -19.661 -22.401  0.00  0.00    +0.150 HD
ENDBRANCH   2  14
BRANCH   5  20
ATOM     19  F   UNL     1      36.444 -26.754 -15.501  0.00  0.00    -0.204 F 
ATOM     20  C   UNL     1      35.973 -25.046 -13.914  0.00  0.00    +0.045 C 
ATOM     21  C   UNL     1      36.733 -26.134 -14.348  0.00  0.00    +0.142 C 
ATOM     22  C   UNL     1      36.291 -24.413 -12.711  0.00  0.00    +0.004 C 
ATOM     23  C   UNL     1      37.807 -26.588 -13.580  0.00  0.00    +0.030 C 
ATOM     24  C   UNL     1      37.363 -24.866 -11.944  0.00  0.00    +0.000 C 
ATOM     25  C   UNL     1      38.121 -25.954 -12.378  0.00  0.00    +0.002 C 
ENDBRANCH   5  20
TORSDOF 2
ENDMDL
MODEL 7
REMARK VINA RESULT:     -10.4      1.517      2.147
REMARK  Name = 11992146
REMARK  2 active torsions:
REMARK  status: ('A' for Active; 'I' for Inactive)
REMARK    1  A    between atoms: C_2  and  C_14
REMARK    2  A    between atoms: C_5  and  C_20
REMARK                            x       y       z     vdW  Elec       q    Type
REMARK                         _______ _______ _______ _____ _____    ______ ____
ROOT
ATOM      1  N   UNL     1      31.628  -9.497 -21.671  0.00  0.00    -0.244 NA
ATOM      2  C   UNL     1      32.619 -11.928 -22.628  0.00  0.00    +0.016 C 
ATOM      3  C   UNL     1      32.929 -10.743 -23.285  0.00  0.00    +0.020 C 
ATOM      4  C   UNL     1      31.815 -11.901 -21.495  0.00  0.00    +0.022 C 
ATOM      5  C   UNL     1      32.413  -9.564 -22.770  0.00  0.00    +0.084 C 
ATOM      6  C   UNL     1      31.348 -10.670 -21.061  0.00  0.00    +0.099 C 
ENDROOT
BRANCH   2  14
ATOM      7  O   UNL     1      33.244 -16.045 -26.386  0.00  0.00    -0.270 OA
ATOM      8  N   UNL     1      33.896 -14.014 -22.341  0.00  0.00    -0.316 N 
ATOM      9  N   UNL     1      34.763 -17.039 -24.957  0.00  0.00    -0.300 N 
ATOM     10  C   UNL     1      34.229 -15.121 -23.066  0.00  0.00    +0.031 C 
ATOM     11  C   UNL     1      35.024 -16.275 -22.585  0.00  0.00    +0.063 C 
ATOM     12  C   UNL     1      33.681 -15.005 -24.326  0.00  0.00    +0.064 C 
ATOM     13  C   UNL     1      35.669 -16.942 -23.806  0.00  0.00    +0.096 C 
ATOM     14  C   UNL     1      33.130 -13.184 -23.122  0.00  0.00    +0.048 C 
ATOM     15  C   UNL     1      32.976 -13.778 -24.360  0.00  0.00    +0.020 C 
ATOM     16  C   UNL     1      33.858 -16.043 -25.323  0.00  0.00    +0.247 C 
ATOM     17  H   UNL     1      34.163 -13.838 -21.409  0.00  0.00    +0.152 HD
ATOM     18  H   UNL     1      34.797 -17.857 -25.503  0.00  0.00    +0.150 HD
ENDBRANCH   2  14
BRANCH   5  20
ATOM     19  F   UNL     1      35.036  -8.667 -23.233  0.00  0.00    -0.204 F 
ATOM     20  C   UNL     1      32.693  -8.294 -23.397  0.00  0.00    +0.045 C 
ATOM     21  C   UNL     1      34.012  -7.886 -23.606  0.00  0.00    +0.142 C 
ATOM     22  C   UNL     1      31.640  -7.468 -23.795  0.00  0.00    +0.004 C 
ATOM     23  C   UNL     1      34.276  -6.656 -24.210  0.00  0.00    +0.030 C 
ATOM     24  C   UNL     1      31.904  -6.238 -24.398  0.00  0.00    +0.000 C 
ATOM     25  C   UNL     1      33.222  -5.832 -24.606  0.00  0.00    +0.002 C 
ENDBRANCH   5  20
TORSDOF 2
ENDMDL
MODEL 8
REMARK VINA RESULT:     -10.0      2.088      3.210
REMARK  Name = 11992146
REMARK  2 active torsions:
REMARK  status: ('A' for Active; 'I' for Inactive)
REMARK    1  A    between atoms: C_2  and  C_14
REMARK    2  A    between atoms: C_5  and  C_20
REMARK                            x       y       z     vdW  Elec       q    Type
REMARK                         _______ _______ _______ _____ _____    ______ ____
ROOT
ATOM      1  N   UNL     1      33.148 -11.541 -25.693  0.00  0.00    -0.244 NA
ATOM      2  C   UNL     1      33.912 -13.934 -24.471  0.00  0.00    +0.016 C 
ATOM      3  C   UNL     1      33.980 -12.739 -23.764  0.00  0.00    +0.020 C 
ATOM      4  C   UNL     1      33.464 -13.936 -25.786  0.00  0.00    +0.022 C 
ATOM      5  C   UNL     1      33.590 -11.580 -24.416  0.00  0.00    +0.084 C 
ATOM      6  C   UNL     1      33.097 -12.722 -26.347  0.00  0.00    +0.099 C 
ENDROOT
BRANCH   2  14
ATOM      7  O   UNL     1      35.738 -17.138 -20.244  0.00  0.00    -0.270 OA
ATOM      8  N   UNL     1      34.376 -16.352 -24.538  0.00  0.00    -0.316 N 
ATOM      9  N   UNL     1      35.431 -18.989 -21.593  0.00  0.00    -0.300 N 
ATOM     10  C   UNL     1      34.778 -17.344 -23.691  0.00  0.00    +0.031 C 
ATOM     11  C   UNL     1      35.005 -18.763 -24.051  0.00  0.00    +0.063 C 
ATOM     12  C   UNL     1      34.962 -16.804 -22.435  0.00  0.00    +0.064 C 
ATOM     13  C   UNL     1      34.827 -19.603 -22.781  0.00  0.00    +0.096 C 
ATOM     14  C   UNL     1      34.306 -15.171 -23.841  0.00  0.00    +0.048 C 
ATOM     15  C   UNL     1      34.671 -15.421 -22.532  0.00  0.00    +0.020 C 
ATOM     16  C   UNL     1      35.402 -17.621 -21.321  0.00  0.00    +0.247 C 
ATOM     17  H   UNL     1      34.169 -16.466 -25.495  0.00  0.00    +0.152 HD
ATOM     18  H   UNL     1      35.885 -19.579 -20.947  0.00  0.00    +0.150 HD
ENDBRANCH   2  14
BRANCH   5  20
ATOM     19  F   UNL     1      31.688 -10.835 -22.486  0.00  0.00    -0.204 F 
ATOM     20  C   UNL     1      33.633 -10.301 -23.747  0.00  0.00    +0.045 C 
ATOM     21  C   UNL     1      32.665  -9.971 -22.795  0.00  0.00    +0.142 C 
ATOM     22  C   UNL     1      34.644  -9.389 -24.053  0.00  0.00    +0.004 C 
ATOM     23  C   UNL     1      32.709  -8.733 -22.153  0.00  0.00    +0.030 C 
ATOM     24  C   UNL     1      34.688  -8.151 -23.412  0.00  0.00    +0.000 C 
ATOM     25  C   UNL     1      33.720  -7.823 -22.462  0.00  0.00    +0.002 C 
ENDBRANCH   5  20
TORSDOF 2
ENDMDL
MODEL 9
REMARK VINA RESULT:     -10.0      2.442      3.917
REMARK  Name = 11992146
REMARK  2 active torsions:
REMARK  status: ('A' for Active; 'I' for Inactive)
REMARK    1  A    between atoms: C_2  and  C_14
REMARK    2  A    between atoms: C_5  and  C_20
REMARK                            x       y       z     vdW  Elec       q    Type
REMARK                         _______ _______ _______ _____ _____    ______ ____
ROOT
ATOM      1  N   UNL     1      33.166 -11.931 -25.905  0.00  0.00    -0.244 NA
ATOM      2  C   UNL     1      33.936 -14.303 -24.646  0.00  0.00    +0.016 C 
ATOM      3  C   UNL     1      33.992 -13.098 -23.955  0.00  0.00    +0.020 C 
ATOM      4  C   UNL     1      33.496 -14.325 -25.964  0.00  0.00    +0.022 C 
ATOM      5  C   UNL     1      33.600 -11.950 -24.625  0.00  0.00    +0.084 C 
ATOM      6  C   UNL     1      33.126 -13.121 -26.544  0.00  0.00    +0.099 C 
ENDROOT
BRANCH   2  14
ATOM      7  O   UNL     1      34.794 -19.835 -24.305  0.00  0.00    -0.270 OA
ATOM      8  N   UNL     1      34.716 -15.562 -22.679  0.00  0.00    -0.316 N 
ATOM      9  N   UNL     1      35.697 -19.506 -22.204  0.00  0.00    -0.300 N 
ATOM     10  C   UNL     1      35.030 -16.847 -22.341  0.00  0.00    +0.031 C 
ATOM     11  C   UNL     1      35.463 -17.319 -21.005  0.00  0.00    +0.063 C 
ATOM     12  C   UNL     1      34.856 -17.650 -23.449  0.00  0.00    +0.064 C 
ATOM     13  C   UNL     1      36.277 -18.603 -21.203  0.00  0.00    +0.096 C 
ATOM     14  C   UNL     1      34.333 -15.529 -23.997  0.00  0.00    +0.048 C 
ATOM     15  C   UNL     1      34.405 -16.814 -24.499  0.00  0.00    +0.020 C 
ATOM     16  C   UNL     1      35.104 -19.077 -23.391  0.00  0.00    +0.247 C 
ATOM     17  H   UNL     1      34.759 -14.785 -22.075  0.00  0.00    +0.152 HD
ATOM     18  H   UNL     1      35.730 -20.474 -22.027  0.00  0.00    +0.150 HD
ENDBRANCH   2  14
BRANCH   5  20
ATOM     19  F   UNL     1      35.687 -10.113 -25.034  0.00  0.00    -0.204 F 
ATOM     20  C   UNL     1      33.630 -10.662 -23.973  0.00  0.00    +0.045 C 
ATOM     21  C   UNL     1      34.688  -9.780 -24.204  0.00  0.00    +0.142 C 
ATOM     22  C   UNL     1      32.599 -10.296 -23.106  0.00  0.00    +0.004 C 
ATOM     23  C   UNL     1      34.715  -8.538 -23.568  0.00  0.00    +0.030 C 
ATOM     24  C   UNL     1      32.626  -9.055 -22.471  0.00  0.00    +0.000 C 
ATOM     25  C   UNL     1      33.684  -8.176 -22.701  0.00  0.00    +0.002 C 
ENDBRANCH   5  20
TORSDOF 2
ENDMDL
