MODEL 1
REMARK VINA RESULT:     -12.3      0.000      0.000
REMARK  Name = 9911830
REMARK  5 active torsions:
REMARK  status: ('A' for Active; 'I' for Inactive)
REMARK    1  A    between atoms: C_2  and  O_20
REMARK    2  A    between atoms: C_3  and  N_10
REMARK    3  A    between atoms: O_20  and  C_24
REMARK    4  A    between atoms: C_26  and  O_31
REMARK    5  A    between atoms: C_28  and  O_33
REMARK                            x       y       z     vdW  Elec       q    Type
REMARK                         _______ _______ _______ _____ _____    ______ ____
ROOT
ATOM      1 CL   UNL     1      33.250 -21.369 -19.828  0.00  0.00    -0.081 Cl
ATOM      2  C   UNL     1      35.993 -19.021 -21.492  0.00  0.00    +0.146 C 
ATOM      3  C   UNL     1      35.953 -21.055 -19.616  0.00  0.00    +0.062 C 
ATOM      4  C   UNL     1      34.787 -19.615 -21.165  0.00  0.00    +0.050 C 
ATOM      5  C   UNL     1      37.180 -19.421 -20.903  0.00  0.00    +0.039 C 
ATOM      6  C   UNL     1      34.766 -20.640 -20.221  0.00  0.00    +0.074 C 
ATOM      7  C   UNL     1      37.159 -20.446 -19.958  0.00  0.00    +0.019 C 
ENDROOT
BRANCH   3  10
ATOM      8  O   UNL     1      37.799 -23.780 -13.611  0.00  0.00    -0.357 OA
ATOM      9  O   UNL     1      37.280 -21.190 -16.944  0.00  0.00    -0.252 OA
ATOM     10  N   UNL     1      35.967 -22.082 -18.666  0.00  0.00    -0.267 N 
ATOM     11  N   UNL     1      36.365 -23.335 -16.771  0.00  0.00    -0.251 N 
ATOM     12  N   UNL     1      37.576 -23.002 -14.740  0.00  0.00    -0.062 NA
ATOM     13  C   UNL     1      36.609 -22.107 -17.406  0.00  0.00    +0.309 C 
ATOM     14  C   UNL     1      36.822 -23.766 -15.503  0.00  0.00    +0.177 C 
ATOM     15  C   UNL     1      36.522 -25.007 -14.966  0.00  0.00    +0.073 C 
ATOM     16  C   UNL     1      37.166 -24.973 -13.757  0.00  0.00    +0.156 C 
ATOM     17  C   UNL     1      37.298 -25.925 -12.648  0.00  0.00    +0.075 C 
ATOM     18  H   UNL     1      35.462 -22.892 -18.905  0.00  0.00    +0.156 HD
ATOM     19  H   UNL     1      35.806 -23.976 -17.269  0.00  0.00    +0.158 HD
ENDBRANCH   3  10
BRANCH   2  20
ATOM     20  O   UNL     1      36.015 -18.003 -22.428  0.00  0.00    -0.453 OA
BRANCH  20  24
ATOM     21  N   UNL     1      33.732 -18.565 -25.844  0.00  0.00    -0.244 NA
ATOM     22  C   UNL     1      34.606 -17.081 -24.159  0.00  0.00    +0.055 C 
ATOM     23  C   UNL     1      33.844 -17.330 -25.318  0.00  0.00    +0.087 C 
ATOM     24  C   UNL     1      35.258 -18.163 -23.552  0.00  0.00    +0.148 C 
ATOM     25  C   UNL     1      34.700 -15.779 -23.638  0.00  0.00    +0.045 C 
ATOM     26  C   UNL     1      34.043 -14.722 -24.260  0.00  0.00    +0.173 C 
ATOM     27  C   UNL     1      33.196 -16.255 -25.921  0.00  0.00    +0.059 C 
ATOM     28  C   UNL     1      33.290 -14.961 -25.403  0.00  0.00    +0.174 C 
ATOM     29  C   UNL     1      35.145 -19.437 -24.091  0.00  0.00    +0.058 C 
ATOM     30  C   UNL     1      34.377 -19.583 -25.228  0.00  0.00    +0.102 C 
BRANCH  26  31
ATOM     31  O   UNL     1      34.145 -13.466 -23.743  0.00  0.00    -0.468 OA
ATOM     32  C   UNL     1      33.143 -13.065 -22.809  0.00  0.00    +0.253 C 
ENDBRANCH  26  31
BRANCH  28  33
ATOM     33  O   UNL     1      32.638 -13.941 -26.029  0.00  0.00    -0.468 OA
ATOM     34  C   UNL     1      33.391 -13.163 -26.958  0.00  0.00    +0.253 C 
ENDBRANCH  28  33
ENDBRANCH  20  24
ENDBRANCH   2  20
TORSDOF 5
ENDMDL
MODEL 2
REMARK VINA RESULT:     -11.6      3.410     10.960
REMARK  Name = 9911830
REMARK  5 active torsions:
REMARK  status: ('A' for Active; 'I' for Inactive)
REMARK    1  A    between atoms: C_2  and  O_20
REMARK    2  A    between atoms: C_3  and  N_10
REMARK    3  A    between atoms: O_20  and  C_24
REMARK    4  A    between atoms: C_26  and  O_31
REMARK    5  A    between atoms: C_28  and  O_33
REMARK                            x       y       z     vdW  Elec       q    Type
REMARK                         _______ _______ _______ _____ _____    ______ ____
ROOT
ATOM      1 CL   UNL     1      34.717 -16.450 -25.372  0.00  0.00    -0.081 Cl
ATOM      2  C   UNL     1      35.399 -18.224 -21.879  0.00  0.00    +0.146 C 
ATOM      3  C   UNL     1      34.882 -15.654 -22.766  0.00  0.00    +0.062 C 
ATOM      4  C   UNL     1      35.212 -18.001 -23.232  0.00  0.00    +0.050 C 
ATOM      5  C   UNL     1      35.334 -17.191 -20.959  0.00  0.00    +0.039 C 
ATOM      6  C   UNL     1      34.950 -16.707 -23.679  0.00  0.00    +0.074 C 
ATOM      7  C   UNL     1      35.073 -15.897 -21.407  0.00  0.00    +0.019 C 
ENDROOT
BRANCH   3  10
ATOM      8  O   UNL     1      31.499  -9.710 -22.418  0.00  0.00    -0.357 OA
ATOM      9  O   UNL     1      32.881 -13.678 -21.760  0.00  0.00    -0.252 OA
ATOM     10  N   UNL     1      34.619 -14.344 -23.182  0.00  0.00    -0.267 N 
ATOM     11  N   UNL     1      33.732 -12.225 -23.382  0.00  0.00    -0.251 N 
ATOM     12  N   UNL     1      32.013 -10.992 -22.273  0.00  0.00    -0.062 NA
ATOM     13  C   UNL     1      33.660 -13.436 -22.677  0.00  0.00    +0.309 C 
ATOM     14  C   UNL     1      32.953 -11.059 -23.194  0.00  0.00    +0.177 C 
ATOM     15  C   UNL     1      33.106  -9.908 -23.950  0.00  0.00    +0.073 C 
ATOM     16  C   UNL     1      32.158  -9.074 -23.420  0.00  0.00    +0.156 C 
ATOM     17  C   UNL     1      31.739  -7.697 -23.711  0.00  0.00    +0.075 C 
ATOM     18  H   UNL     1      35.177 -14.011 -23.921  0.00  0.00    +0.156 HD
ATOM     19  H   UNL     1      34.411 -12.179 -24.095  0.00  0.00    +0.158 HD
ENDBRANCH   3  10
BRANCH   2  20
ATOM     20  O   UNL     1      35.660 -19.507 -21.435  0.00  0.00    -0.453 OA
BRANCH  20  24
ATOM     21  N   UNL     1      32.438 -21.652 -19.948  0.00  0.00    -0.244 NA
ATOM     22  C   UNL     1      34.781 -21.099 -19.846  0.00  0.00    +0.055 C 
ATOM     23  C   UNL     1      33.650 -21.803 -19.382  0.00  0.00    +0.087 C 
ATOM     24  C   UNL     1      34.615 -20.224 -20.928  0.00  0.00    +0.148 C 
ATOM     25  C   UNL     1      36.032 -21.281 -19.232  0.00  0.00    +0.045 C 
ATOM     26  C   UNL     1      36.168 -22.157 -18.159  0.00  0.00    +0.173 C 
ATOM     27  C   UNL     1      33.815 -22.673 -18.308  0.00  0.00    +0.059 C 
ATOM     28  C   UNL     1      35.059 -22.853 -17.697  0.00  0.00    +0.174 C 
ATOM     29  C   UNL     1      33.367 -20.067 -21.513  0.00  0.00    +0.058 C 
ATOM     30  C   UNL     1      32.320 -20.797 -20.990  0.00  0.00    +0.102 C 
BRANCH  26  31
ATOM     31  O   UNL     1      37.387 -22.321 -17.574  0.00  0.00    -0.468 OA
ATOM     32  C   UNL     1      37.597 -21.679 -16.318  0.00  0.00    +0.253 C 
ENDBRANCH  26  31
BRANCH  28  33
ATOM     33  O   UNL     1      35.169 -23.715 -16.647  0.00  0.00    -0.468 OA
ATOM     34  C   UNL     1      34.268 -23.529 -15.557  0.00  0.00    +0.253 C 
ENDBRANCH  28  33
ENDBRANCH  20  24
ENDBRANCH   2  20
TORSDOF 5
ENDMDL
MODEL 3
REMARK VINA RESULT:     -11.5      3.350      3.704
REMARK  Name = 9911830
REMARK  5 active torsions:
REMARK  status: ('A' for Active; 'I' for Inactive)
REMARK    1  A    between atoms: C_2  and  O_20
REMARK    2  A    between atoms: C_3  and  N_10
REMARK    3  A    between atoms: O_20  and  C_24
REMARK    4  A    between atoms: C_26  and  O_31
REMARK    5  A    between atoms: C_28  and  O_33
REMARK                            x       y       z     vdW  Elec       q    Type
REMARK                         _______ _______ _______ _____ _____    ______ ____
ROOT
ATOM      1 CL   UNL     1      36.959 -21.930 -18.592  0.00  0.00    -0.081 Cl
ATOM      2  C   UNL     1      35.474 -19.735 -21.556  0.00  0.00    +0.146 C 
ATOM      3  C   UNL     1      34.476 -21.429 -19.609  0.00  0.00    +0.062 C 
ATOM      4  C   UNL     1      36.350 -20.337 -20.671  0.00  0.00    +0.050 C 
ATOM      5  C   UNL     1      34.109 -19.961 -21.491  0.00  0.00    +0.039 C 
ATOM      6  C   UNL     1      35.848 -21.190 -19.689  0.00  0.00    +0.074 C 
ATOM      7  C   UNL     1      33.607 -20.814 -20.509  0.00  0.00    +0.019 C 
ENDROOT
BRANCH   3  10
ATOM      8  O   UNL     1      29.336 -23.815 -15.763  0.00  0.00    -0.357 OA
ATOM      9  O   UNL     1      31.688 -21.636 -18.558  0.00  0.00    -0.252 OA
ATOM     10  N   UNL     1      33.939 -22.278 -18.635  0.00  0.00    -0.267 N 
ATOM     11  N   UNL     1      32.500 -23.342 -17.180  0.00  0.00    -0.251 N 
ATOM     12  N   UNL     1      30.179 -23.156 -16.650  0.00  0.00    -0.062 NA
ATOM     13  C   UNL     1      32.607 -22.346 -18.164  0.00  0.00    +0.309 C 
ATOM     14  C   UNL     1      31.348 -23.732 -16.457  0.00  0.00    +0.177 C 
ATOM     15  C   UNL     1      31.350 -24.734 -15.501  0.00  0.00    +0.073 C 
ATOM     16  C   UNL     1      30.046 -24.753 -15.084  0.00  0.00    +0.156 C 
ATOM     17  C   UNL     1      29.305 -25.549 -14.098  0.00  0.00    +0.075 C 
ATOM     18  H   UNL     1      34.571 -22.911 -18.225  0.00  0.00    +0.156 HD
ATOM     19  H   UNL     1      33.329 -23.831 -16.968  0.00  0.00    +0.158 HD
ENDBRANCH   3  10
BRANCH   2  20
ATOM     20  O   UNL     1      35.971 -18.890 -22.532  0.00  0.00    -0.453 OA
BRANCH  20  24
ATOM     21  N   UNL     1      33.697 -18.436 -25.970  0.00  0.00    -0.244 NA
ATOM     22  C   UNL     1      34.687 -17.465 -24.000  0.00  0.00    +0.055 C 
ATOM     23  C   UNL     1      33.922 -17.370 -25.180  0.00  0.00    +0.087 C 
ATOM     24  C   UNL     1      35.219 -18.716 -23.658  0.00  0.00    +0.148 C 
ATOM     25  C   UNL     1      34.901 -16.331 -23.198  0.00  0.00    +0.045 C 
ATOM     26  C   UNL     1      34.361 -15.100 -23.561  0.00  0.00    +0.173 C 
ATOM     27  C   UNL     1      33.393 -16.126 -25.519  0.00  0.00    +0.059 C 
ATOM     28  C   UNL     1      33.606 -14.999 -24.722  0.00  0.00    +0.174 C 
ATOM     29  C   UNL     1      34.989 -19.817 -24.470  0.00  0.00    +0.058 C 
ATOM     30  C   UNL     1      34.228 -19.626 -25.605  0.00  0.00    +0.102 C 
BRANCH  26  31
ATOM     31  O   UNL     1      34.579 -14.010 -22.773  0.00  0.00    -0.468 OA
ATOM     32  C   UNL     1      34.206 -14.117 -21.400  0.00  0.00    +0.253 C 
ENDBRANCH  26  31
BRANCH  28  33
ATOM     33  O   UNL     1      33.068 -13.804 -25.097  0.00  0.00    -0.468 OA
ATOM     34  C   UNL     1      33.212 -13.428 -26.465  0.00  0.00    +0.253 C 
ENDBRANCH  28  33
ENDBRANCH  20  24
ENDBRANCH   2  20
TORSDOF 5
ENDMDL
MODEL 4
REMARK VINA RESULT:     -11.3      7.253     12.012
REMARK  Name = 9911830
REMARK  5 active torsions:
REMARK  status: ('A' for Active; 'I' for Inactive)
REMARK    1  A    between atoms: C_2  and  O_20
REMARK    2  A    between atoms: C_3  and  N_10
REMARK    3  A    between atoms: O_20  and  C_24
REMARK    4  A    between atoms: C_26  and  O_31
REMARK    5  A    between atoms: C_28  and  O_33
REMARK                            x       y       z     vdW  Elec       q    Type
REMARK                         _______ _______ _______ _____ _____    ______ ____
ROOT
ATOM      1 CL   UNL     1      35.549 -10.471 -25.614  0.00  0.00    -0.081 Cl
ATOM      2  C   UNL     1      33.662  -8.419 -22.779  0.00  0.00    +0.146 C 
ATOM      3  C   UNL     1      33.463 -10.934 -23.917  0.00  0.00    +0.062 C 
ATOM      4  C   UNL     1      34.541  -8.776 -23.786  0.00  0.00    +0.050 C 
ATOM      5  C   UNL     1      32.685  -9.291 -22.327  0.00  0.00    +0.039 C 
ATOM      6  C   UNL     1      34.441 -10.044 -24.359  0.00  0.00    +0.074 C 
ATOM      7  C   UNL     1      32.586 -10.558 -22.901  0.00  0.00    +0.019 C 
ENDROOT
BRANCH   3  10
ATOM      8  O   UNL     1      34.650 -17.678 -24.012  0.00  0.00    -0.357 OA
ATOM      9  O   UNL     1      34.561 -13.551 -22.987  0.00  0.00    -0.252 OA
ATOM     10  N   UNL     1      33.337 -12.213 -24.470  0.00  0.00    -0.267 N 
ATOM     11  N   UNL     1      33.505 -14.481 -24.854  0.00  0.00    -0.251 N 
ATOM     12  N   UNL     1      34.567 -16.315 -23.753  0.00  0.00    -0.062 NA
ATOM     13  C   UNL     1      33.874 -13.433 -23.996  0.00  0.00    +0.309 C 
ATOM     14  C   UNL     1      33.831 -15.854 -24.744  0.00  0.00    +0.177 C 
ATOM     15  C   UNL     1      33.413 -16.813 -25.652  0.00  0.00    +0.073 C 
ATOM     16  C   UNL     1      33.958 -17.962 -25.145  0.00  0.00    +0.156 C 
ATOM     17  C   UNL     1      33.942 -19.368 -25.568  0.00  0.00    +0.075 C 
ATOM     18  H   UNL     1      32.804 -12.272 -25.295  0.00  0.00    +0.156 HD
ATOM     19  H   UNL     1      32.949 -14.231 -25.628  0.00  0.00    +0.158 HD
ENDBRANCH   3  10
BRANCH   2  20
ATOM     20  O   UNL     1      33.759  -7.162 -22.210  0.00  0.00    -0.453 OA
BRANCH  20  24
ATOM     21  N   UNL     1      30.437  -4.691 -22.452  0.00  0.00    -0.244 NA
ATOM     22  C   UNL     1      32.507  -5.477 -23.404  0.00  0.00    +0.055 C 
ATOM     23  C   UNL     1      31.358  -4.659 -23.433  0.00  0.00    +0.087 C 
ATOM     24  C   UNL     1      32.674  -6.340 -22.311  0.00  0.00    +0.148 C 
ATOM     25  C   UNL     1      33.448  -5.417 -24.446  0.00  0.00    +0.045 C 
ATOM     26  C   UNL     1      33.257  -4.552 -25.518  0.00  0.00    +0.173 C 
ATOM     27  C   UNL     1      31.192  -3.802 -24.518  0.00  0.00    +0.059 C 
ATOM     28  C   UNL     1      32.128  -3.743 -25.554  0.00  0.00    +0.174 C 
ATOM     29  C   UNL     1      31.727  -6.375 -21.298  0.00  0.00    +0.058 C 
ATOM     30  C   UNL     1      30.636  -5.538 -21.415  0.00  0.00    +0.102 C 
BRANCH  26  31
ATOM     31  O   UNL     1      34.178  -4.506 -26.520  0.00  0.00    -0.468 OA
ATOM     32  C   UNL     1      35.396  -5.219 -26.315  0.00  0.00    +0.253 C 
ENDBRANCH  26  31
BRANCH  28  33
ATOM     33  O   UNL     1      31.920  -2.888 -26.595  0.00  0.00    -0.468 OA
ATOM     34  C   UNL     1      31.042  -1.788 -26.365  0.00  0.00    +0.253 C 
ENDBRANCH  28  33
ENDBRANCH  20  24
ENDBRANCH   2  20
TORSDOF 5
ENDMDL
MODEL 5
REMARK VINA RESULT:     -10.8      2.447     11.398
REMARK  Name = 9911830
REMARK  5 active torsions:
REMARK  status: ('A' for Active; 'I' for Inactive)
REMARK    1  A    between atoms: C_2  and  O_20
REMARK    2  A    between atoms: C_3  and  N_10
REMARK    3  A    between atoms: O_20  and  C_24
REMARK    4  A    between atoms: C_26  and  O_31
REMARK    5  A    between atoms: C_28  and  O_33
REMARK                            x       y       z     vdW  Elec       q    Type
REMARK                         _______ _______ _______ _____ _____    ______ ____
ROOT
ATOM      1 CL   UNL     1      37.566 -19.539 -20.818  0.00  0.00    -0.081 Cl
ATOM      2  C   UNL     1      34.898 -22.124 -19.401  0.00  0.00    +0.146 C 
ATOM      3  C   UNL     1      34.851 -19.803 -20.908  0.00  0.00    +0.062 C 
ATOM      4  C   UNL     1      36.089 -21.487 -19.697  0.00  0.00    +0.050 C 
ATOM      5  C   UNL     1      33.682 -21.627 -19.840  0.00  0.00    +0.039 C 
ATOM      6  C   UNL     1      36.067 -20.318 -20.457  0.00  0.00    +0.074 C 
ATOM      7  C   UNL     1      33.660 -20.459 -20.601  0.00  0.00    +0.019 C 
ENDROOT
BRANCH   3  10
ATOM      8  O   UNL     1      33.484 -16.344 -26.658  0.00  0.00    -0.357 OA
ATOM      9  O   UNL     1      33.957 -19.390 -23.728  0.00  0.00    -0.252 OA
ATOM     10  N   UNL     1      34.794 -18.635 -21.674  0.00  0.00    -0.267 N 
ATOM     11  N   UNL     1      34.466 -17.133 -23.394  0.00  0.00    -0.251 N 
ATOM     12  N   UNL     1      33.670 -17.272 -25.641  0.00  0.00    -0.062 NA
ATOM     13  C   UNL     1      34.361 -18.479 -23.012  0.00  0.00    +0.309 C 
ATOM     14  C   UNL     1      34.139 -16.552 -24.642  0.00  0.00    +0.177 C 
ATOM     15  C   UNL     1      34.282 -15.202 -24.917  0.00  0.00    +0.073 C 
ATOM     16  C   UNL     1      33.852 -15.114 -26.215  0.00  0.00    +0.156 C 
ATOM     17  C   UNL     1      33.719 -14.007 -27.169  0.00  0.00    +0.075 C 
ATOM     18  H   UNL     1      35.091 -17.813 -21.223  0.00  0.00    +0.156 HD
ATOM     19  H   UNL     1      34.810 -16.514 -22.708  0.00  0.00    +0.158 HD
ENDBRANCH   3  10
BRANCH   2  20
ATOM     20  O   UNL     1      34.918 -23.282 -18.645  0.00  0.00    -0.453 OA
BRANCH  20  24
ATOM     21  N   UNL     1      32.551 -23.356 -15.241  0.00  0.00    -0.244 NA
ATOM     22  C   UNL     1      34.743 -23.418 -16.240  0.00  0.00    +0.055 C 
ATOM     23  C   UNL     1      33.890 -23.438 -15.118  0.00  0.00    +0.087 C 
ATOM     24  C   UNL     1      34.160 -23.309 -17.511  0.00  0.00    +0.148 C 
ATOM     25  C   UNL     1      36.136 -23.505 -16.075  0.00  0.00    +0.045 C 
ATOM     26  C   UNL     1      36.688 -23.612 -14.802  0.00  0.00    +0.173 C 
ATOM     27  C   UNL     1      34.469 -23.546 -13.857  0.00  0.00    +0.059 C 
ATOM     28  C   UNL     1      35.854 -23.633 -13.692  0.00  0.00    +0.174 C 
ATOM     29  C   UNL     1      32.781 -23.224 -17.641  0.00  0.00    +0.058 C 
ATOM     30  C   UNL     1      32.028 -23.252 -16.484  0.00  0.00    +0.102 C 
BRANCH  26  31
ATOM     31  O   UNL     1      38.040 -23.696 -14.659  0.00  0.00    -0.468 OA
ATOM     32  C   UNL     1      38.614 -25.002 -14.658  0.00  0.00    +0.253 C 
ENDBRANCH  26  31
BRANCH  28  33
ATOM     33  O   UNL     1      36.373 -23.737 -12.436  0.00  0.00    -0.468 OA
ATOM     34  C   UNL     1      36.190 -24.978 -11.759  0.00  0.00    +0.253 C 
ENDBRANCH  28  33
ENDBRANCH  20  24
ENDBRANCH   2  20
TORSDOF 5
ENDMDL
MODEL 6
REMARK VINA RESULT:     -10.7      3.397     11.085
REMARK  Name = 9911830
REMARK  5 active torsions:
REMARK  status: ('A' for Active; 'I' for Inactive)
REMARK    1  A    between atoms: C_2  and  O_20
REMARK    2  A    between atoms: C_3  and  N_10
REMARK    3  A    between atoms: O_20  and  C_24
REMARK    4  A    between atoms: C_26  and  O_31
REMARK    5  A    between atoms: C_28  and  O_33
REMARK                            x       y       z     vdW  Elec       q    Type
REMARK                         _______ _______ _______ _____ _____    ______ ____
ROOT
ATOM      1 CL   UNL     1      37.559 -19.450 -21.076  0.00  0.00    -0.081 Cl
ATOM      2  C   UNL     1      34.913 -22.001 -19.557  0.00  0.00    +0.146 C 
ATOM      3  C   UNL     1      34.838 -19.662 -21.035  0.00  0.00    +0.062 C 
ATOM      4  C   UNL     1      36.101 -21.383 -19.905  0.00  0.00    +0.050 C 
ATOM      5  C   UNL     1      33.688 -21.476 -19.931  0.00  0.00    +0.039 C 
ATOM      6  C   UNL     1      36.064 -20.205 -20.650  0.00  0.00    +0.074 C 
ATOM      7  C   UNL     1      33.650 -20.298 -20.676  0.00  0.00    +0.019 C 
ENDROOT
BRANCH   3  10
ATOM      8  O   UNL     1      33.580 -16.159 -26.783  0.00  0.00    -0.357 OA
ATOM      9  O   UNL     1      34.051 -19.235 -23.884  0.00  0.00    -0.252 OA
ATOM     10  N   UNL     1      34.765 -18.483 -21.784  0.00  0.00    -0.267 N 
ATOM     11  N   UNL     1      34.451 -16.965 -23.492  0.00  0.00    -0.251 N 
ATOM     12  N   UNL     1      33.760 -17.097 -25.774  0.00  0.00    -0.062 NA
ATOM     13  C   UNL     1      34.385 -18.322 -23.137  0.00  0.00    +0.309 C 
ATOM     14  C   UNL     1      34.155 -16.377 -24.744  0.00  0.00    +0.177 C 
ATOM     15  C   UNL     1      34.253 -15.017 -24.991  0.00  0.00    +0.073 C 
ATOM     16  C   UNL     1      33.877 -14.924 -26.304  0.00  0.00    +0.156 C 
ATOM     17  C   UNL     1      33.740 -13.805 -27.246  0.00  0.00    +0.075 C 
ATOM     18  H   UNL     1      35.009 -17.658 -21.306  0.00  0.00    +0.156 HD
ATOM     19  H   UNL     1      34.738 -16.346 -22.782  0.00  0.00    +0.158 HD
ENDBRANCH   3  10
BRANCH   2  20
ATOM     20  O   UNL     1      34.949 -23.169 -18.817  0.00  0.00    -0.453 OA
BRANCH  20  24
ATOM     21  N   UNL     1      35.660 -22.813 -14.747  0.00  0.00    -0.244 NA
ATOM     22  C   UNL     1      34.123 -23.254 -16.549  0.00  0.00    +0.055 C 
ATOM     23  C   UNL     1      34.422 -23.121 -15.178  0.00  0.00    +0.087 C 
ATOM     24  C   UNL     1      35.159 -23.057 -17.473  0.00  0.00    +0.148 C 
ATOM     25  C   UNL     1      32.819 -23.576 -16.964  0.00  0.00    +0.045 C 
ATOM     26  C   UNL     1      31.809 -23.767 -16.026  0.00  0.00    +0.173 C 
ATOM     27  C   UNL     1      33.393 -23.317 -14.261  0.00  0.00    +0.059 C 
ATOM     28  C   UNL     1      32.097 -23.637 -14.673  0.00  0.00    +0.174 C 
ATOM     29  C   UNL     1      36.436 -22.740 -17.032  0.00  0.00    +0.058 C 
ATOM     30  C   UNL     1      36.632 -22.631 -15.670  0.00  0.00    +0.102 C 
BRANCH  26  31
ATOM     31  O   UNL     1      30.551 -24.079 -16.444  0.00  0.00    -0.468 OA
ATOM     32  C   UNL     1      29.599 -23.017 -16.487  0.00  0.00    +0.253 C 
ENDBRANCH  26  31
BRANCH  28  33
ATOM     33  O   UNL     1      31.123 -23.820 -13.736  0.00  0.00    -0.468 OA
ATOM     34  C   UNL     1      30.915 -25.151 -13.269  0.00  0.00    +0.253 C 
ENDBRANCH  28  33
ENDBRANCH  20  24
ENDBRANCH   2  20
TORSDOF 5
ENDMDL
MODEL 7
REMARK VINA RESULT:     -10.2      4.018     11.206
REMARK  Name = 9911830
REMARK  5 active torsions:
REMARK  status: ('A' for Active; 'I' for Inactive)
REMARK    1  A    between atoms: C_2  and  O_20
REMARK    2  A    between atoms: C_3  and  N_10
REMARK    3  A    between atoms: O_20  and  C_24
REMARK    4  A    between atoms: C_26  and  O_31
REMARK    5  A    between atoms: C_28  and  O_33
REMARK                            x       y       z     vdW  Elec       q    Type
REMARK                         _______ _______ _______ _____ _____    ______ ____
ROOT
ATOM      1 CL   UNL     1      33.423 -14.716 -26.066  0.00  0.00    -0.081 Cl
ATOM      2  C   UNL     1      34.521 -17.168 -23.136  0.00  0.00    +0.146 C 
ATOM      3  C   UNL     1      34.306 -14.433 -23.500  0.00  0.00    +0.062 C 
ATOM      4  C   UNL     1      34.082 -16.681 -24.354  0.00  0.00    +0.050 C 
ATOM      5  C   UNL     1      34.854 -16.319 -22.094  0.00  0.00    +0.039 C 
ATOM      6  C   UNL     1      33.973 -15.303 -24.538  0.00  0.00    +0.074 C 
ATOM      7  C   UNL     1      34.745 -14.941 -22.278  0.00  0.00    +0.019 C 
ENDROOT
BRANCH   3  10
ATOM      8  O   UNL     1      31.257  -8.391 -22.451  0.00  0.00    -0.357 OA
ATOM      9  O   UNL     1      32.255 -12.526 -22.462  0.00  0.00    -0.252 OA
ATOM     10  N   UNL     1      34.206 -13.046 -23.650  0.00  0.00    -0.267 N 
ATOM     11  N   UNL     1      33.496 -10.855 -23.527  0.00  0.00    -0.251 N 
ATOM     12  N   UNL     1      31.659  -9.720 -22.507  0.00  0.00    -0.062 NA
ATOM     13  C   UNL     1      33.216 -12.174 -23.140  0.00  0.00    +0.309 C 
ATOM     14  C   UNL     1      32.760  -9.683 -23.229  0.00  0.00    +0.177 C 
ATOM     15  C   UNL     1      33.127  -8.421 -23.665  0.00  0.00    +0.073 C 
ATOM     16  C   UNL     1      32.139  -7.627 -23.145  0.00  0.00    +0.156 C 
ATOM     17  C   UNL     1      31.864  -6.185 -23.190  0.00  0.00    +0.075 C 
ATOM     18  H   UNL     1      34.918 -12.621 -24.179  0.00  0.00    +0.156 HD
ATOM     19  H   UNL     1      34.306 -10.728 -24.074  0.00  0.00    +0.158 HD
ENDBRANCH   3  10
BRANCH   2  20
ATOM     20  O   UNL     1      34.631 -18.535 -22.953  0.00  0.00    -0.453 OA
BRANCH  20  24
ATOM     21  N   UNL     1      37.806 -19.860 -20.638  0.00  0.00    -0.244 NA
ATOM     22  C   UNL     1      35.463 -19.962 -21.192  0.00  0.00    +0.055 C 
ATOM     23  C   UNL     1      36.579 -20.375 -20.435  0.00  0.00    +0.087 C 
ATOM     24  C   UNL     1      35.661 -18.986 -22.179  0.00  0.00    +0.148 C 
ATOM     25  C   UNL     1      34.196 -20.522 -20.953  0.00  0.00    +0.045 C 
ATOM     26  C   UNL     1      34.029 -21.490 -19.967  0.00  0.00    +0.173 C 
ATOM     27  C   UNL     1      36.383 -21.345 -19.455  0.00  0.00    +0.059 C 
ATOM     28  C   UNL     1      35.124 -21.901 -19.218  0.00  0.00    +0.174 C 
ATOM     29  C   UNL     1      36.924 -18.453 -22.390  0.00  0.00    +0.058 C 
ATOM     30  C   UNL     1      37.954 -18.920 -21.600  0.00  0.00    +0.102 C 
BRANCH  26  31
ATOM     31  O   UNL     1      32.795 -22.022 -19.748  0.00  0.00    -0.468 OA
ATOM     32  C   UNL     1      32.349 -22.093 -18.395  0.00  0.00    +0.253 C 
ENDBRANCH  26  31
BRANCH  28  33
ATOM     33  O   UNL     1      34.983 -22.848 -18.247  0.00  0.00    -0.468 OA
ATOM     34  C   UNL     1      35.753 -22.679 -17.059  0.00  0.00    +0.253 C 
ENDBRANCH  28  33
ENDBRANCH  20  24
ENDBRANCH   2  20
TORSDOF 5
ENDMDL
MODEL 8
REMARK VINA RESULT:     -10.2      1.570      2.359
REMARK  Name = 9911830
REMARK  5 active torsions:
REMARK  status: ('A' for Active; 'I' for Inactive)
REMARK    1  A    between atoms: C_2  and  O_20
REMARK    2  A    between atoms: C_3  and  N_10
REMARK    3  A    between atoms: O_20  and  C_24
REMARK    4  A    between atoms: C_26  and  O_31
REMARK    5  A    between atoms: C_28  and  O_33
REMARK                            x       y       z     vdW  Elec       q    Type
REMARK                         _______ _______ _______ _____ _____    ______ ____
ROOT
ATOM      1 CL   UNL     1      33.190 -21.688 -19.759  0.00  0.00    -0.081 Cl
ATOM      2  C   UNL     1      35.689 -19.203 -21.600  0.00  0.00    +0.146 C 
ATOM      3  C   UNL     1      35.870 -21.178 -19.670  0.00  0.00    +0.062 C 
ATOM      4  C   UNL     1      34.542 -19.870 -21.207  0.00  0.00    +0.050 C 
ATOM      5  C   UNL     1      36.924 -19.500 -21.051  0.00  0.00    +0.039 C 
ATOM      6  C   UNL     1      34.633 -20.866 -20.235  0.00  0.00    +0.074 C 
ATOM      7  C   UNL     1      37.015 -20.496 -20.079  0.00  0.00    +0.019 C 
ENDROOT
BRANCH   3  10
ATOM      8  O   UNL     1      37.981 -23.522 -13.592  0.00  0.00    -0.357 OA
ATOM      9  O   UNL     1      37.188 -21.092 -16.991  0.00  0.00    -0.252 OA
ATOM     10  N   UNL     1      35.996 -22.172 -18.694  0.00  0.00    -0.267 N 
ATOM     11  N   UNL     1      36.524 -23.323 -16.767  0.00  0.00    -0.251 N 
ATOM     12  N   UNL     1      37.677 -22.802 -14.741  0.00  0.00    -0.062 NA
ATOM     13  C   UNL     1      36.630 -22.092 -17.432  0.00  0.00    +0.309 C 
ATOM     14  C   UNL     1      37.020 -23.667 -15.487  0.00  0.00    +0.177 C 
ATOM     15  C   UNL     1      36.861 -24.920 -14.918  0.00  0.00    +0.073 C 
ATOM     16  C   UNL     1      37.489 -24.783 -13.710  0.00  0.00    +0.156 C 
ATOM     17  C   UNL     1      37.723 -25.686 -12.576  0.00  0.00    +0.075 C 
ATOM     18  H   UNL     1      35.589 -23.041 -18.914  0.00  0.00    +0.156 HD
ATOM     19  H   UNL     1      36.046 -24.036 -17.250  0.00  0.00    +0.158 HD
ENDBRANCH   3  10
BRANCH   2  20
ATOM     20  O   UNL     1      35.600 -18.214 -22.563  0.00  0.00    -0.453 OA
BRANCH  20  24
ATOM     21  N   UNL     1      34.300 -14.491 -21.280  0.00  0.00    -0.244 NA
ATOM     22  C   UNL     1      34.614 -16.069 -23.073  0.00  0.00    +0.055 C 
ATOM     23  C   UNL     1      34.189 -14.819 -22.581  0.00  0.00    +0.087 C 
ATOM     24  C   UNL     1      35.166 -16.983 -22.164  0.00  0.00    +0.148 C 
ATOM     25  C   UNL     1      34.482 -16.377 -24.438  0.00  0.00    +0.045 C 
ATOM     26  C   UNL     1      33.930 -15.452 -25.319  0.00  0.00    +0.173 C 
ATOM     27  C   UNL     1      33.641 -13.911 -23.484  0.00  0.00    +0.059 C 
ATOM     28  C   UNL     1      33.509 -14.218 -24.841  0.00  0.00    +0.174 C 
ATOM     29  C   UNL     1      35.282 -16.649 -20.823  0.00  0.00    +0.058 C 
ATOM     30  C   UNL     1      34.838 -15.401 -20.435  0.00  0.00    +0.102 C 
BRANCH  26  31
ATOM     31  O   UNL     1      33.809 -15.766 -26.639  0.00  0.00    -0.468 OA
ATOM     32  C   UNL     1      34.406 -14.873 -27.576  0.00  0.00    +0.253 C 
ENDBRANCH  26  31
BRANCH  28  33
ATOM     33  O   UNL     1      32.965 -13.296 -25.685  0.00  0.00    -0.468 OA
ATOM     34  C   UNL     1      33.571 -12.005 -25.713  0.00  0.00    +0.253 C 
ENDBRANCH  28  33
ENDBRANCH  20  24
ENDBRANCH   2  20
TORSDOF 5
ENDMDL
MODEL 9
REMARK VINA RESULT:     -10.1      7.035     11.616
REMARK  Name = 9911830
REMARK  5 active torsions:
REMARK  status: ('A' for Active; 'I' for Inactive)
REMARK    1  A    between atoms: C_2  and  O_20
REMARK    2  A    between atoms: C_3  and  N_10
REMARK    3  A    between atoms: O_20  and  C_24
REMARK    4  A    between atoms: C_26  and  O_31
REMARK    5  A    between atoms: C_28  and  O_33
REMARK                            x       y       z     vdW  Elec       q    Type
REMARK                         _______ _______ _______ _____ _____    ______ ____
ROOT
ATOM      1 CL   UNL     1      31.642 -11.814 -22.325  0.00  0.00    -0.081 Cl
ATOM      2  C   UNL     1      33.870  -8.665 -23.290  0.00  0.00    +0.146 C 
ATOM      3  C   UNL     1      33.718 -11.328 -24.029  0.00  0.00    +0.062 C 
ATOM      4  C   UNL     1      32.917  -9.477 -22.700  0.00  0.00    +0.050 C 
ATOM      5  C   UNL     1      34.749  -9.154 -24.241  0.00  0.00    +0.039 C 
ATOM      6  C   UNL     1      32.840 -10.818 -23.072  0.00  0.00    +0.074 C 
ATOM      7  C   UNL     1      34.671 -10.496 -24.614  0.00  0.00    +0.019 C 
ENDROOT
BRANCH   3  10
ATOM      8  O   UNL     1      35.123 -17.983 -23.231  0.00  0.00    -0.357 OA
ATOM      9  O   UNL     1      34.843 -13.769 -22.727  0.00  0.00    -0.252 OA
ATOM     10  N   UNL     1      33.665 -12.668 -24.426  0.00  0.00    -0.267 N 
ATOM     11  N   UNL     1      33.927 -14.958 -24.519  0.00  0.00    -0.251 N 
ATOM     12  N   UNL     1      34.982 -16.603 -23.147  0.00  0.00    -0.062 NA
ATOM     13  C   UNL     1      34.212 -13.801 -23.778  0.00  0.00    +0.309 C 
ATOM     14  C   UNL     1      34.290 -16.294 -24.224  0.00  0.00    +0.177 C 
ATOM     15  C   UNL     1      33.955 -17.371 -25.029  0.00  0.00    +0.073 C 
ATOM     16  C   UNL     1      34.507 -18.428 -24.357  0.00  0.00    +0.156 C 
ATOM     17  C   UNL     1      34.560 -19.875 -24.604  0.00  0.00    +0.075 C 
ATOM     18  H   UNL     1      33.183 -12.847 -25.265  0.00  0.00    +0.156 HD
ATOM     19  H   UNL     1      33.409 -14.825 -25.347  0.00  0.00    +0.158 HD
ENDBRANCH   3  10
BRANCH   2  20
ATOM     20  O   UNL     1      33.949  -7.335 -22.920  0.00  0.00    -0.453 OA
BRANCH  20  24
ATOM     21  N   UNL     1      33.938  -4.531 -25.975  0.00  0.00    -0.244 NA
ATOM     22  C   UNL     1      32.946  -5.399 -23.959  0.00  0.00    +0.055 C 
ATOM     23  C   UNL     1      32.991  -4.473 -25.020  0.00  0.00    +0.087 C 
ATOM     24  C   UNL     1      33.925  -6.401 -23.916  0.00  0.00    +0.148 C 
ATOM     25  C   UNL     1      31.941  -5.309 -22.979  0.00  0.00    +0.045 C 
ATOM     26  C   UNL     1      30.982  -4.304 -23.046  0.00  0.00    +0.173 C 
ATOM     27  C   UNL     1      32.017  -3.478 -25.063  0.00  0.00    +0.059 C 
ATOM     28  C   UNL     1      31.020  -3.388 -24.089  0.00  0.00    +0.174 C 
ATOM     29  C   UNL     1      34.903  -6.464 -24.898  0.00  0.00    +0.058 C 
ATOM     30  C   UNL     1      34.865  -5.513 -25.897  0.00  0.00    +0.102 C 
BRANCH  26  31
ATOM     31  O   UNL     1      30.016  -4.230 -22.088  0.00  0.00    -0.468 OA
ATOM     32  C   UNL     1      30.086  -5.174 -21.021  0.00  0.00    +0.253 C 
ENDBRANCH  26  31
BRANCH  28  33
ATOM     33  O   UNL     1      30.090  -2.395 -24.174  0.00  0.00    -0.468 OA
ATOM     34  C   UNL     1      29.906  -1.786 -25.450  0.00  0.00    +0.253 C 
ENDBRANCH  28  33
ENDBRANCH  20  24
ENDBRANCH   2  20
TORSDOF 5
ENDMDL
