MODEL 1
REMARK VINA RESULT:     -12.5      0.000      0.000
REMARK  Name = 5288710
REMARK  3 active torsions:
REMARK  status: ('A' for Active; 'I' for Inactive)
REMARK    1  A    between atoms: C_6  and  N_18
REMARK    2  A    between atoms: C_9  and  C_15
REMARK    3  A    between atoms: N_18  and  C_29
REMARK                            x       y       z     vdW  Elec       q    Type
REMARK                         _______ _______ _______ _____ _____    ______ ____
ROOT
ATOM      1  O   UNL     1      35.136 -24.061 -16.185  0.00  0.00    -0.270 OA
ATOM      2  N   UNL     1      33.163 -24.280 -14.903  0.00  0.00    -0.280 N 
ATOM      3  C   UNL     1      31.636 -23.343 -16.345  0.00  0.00    +0.019 C 
ATOM      4  C   UNL     1      32.957 -23.305 -16.963  0.00  0.00    +0.069 C 
ATOM      5  C   UNL     1      31.818 -23.945 -15.097  0.00  0.00    +0.051 C 
ATOM      6  C   UNL     1      33.303 -22.823 -18.160  0.00  0.00    +0.066 C 
ATOM      7  C   UNL     1      33.940 -23.919 -16.009  0.00  0.00    +0.251 C 
ATOM      8  C   UNL     1      30.382 -22.927 -16.752  0.00  0.00    +0.005 C 
ATOM      9  C   UNL     1      29.311 -23.129 -15.876  0.00  0.00    +0.036 C 
ATOM     10  C   UNL     1      30.775 -24.154 -14.217  0.00  0.00    +0.015 C 
ATOM     11  C   UNL     1      29.504 -23.736 -14.621  0.00  0.00    +0.004 C 
ATOM     12  H   UNL     1      33.517 -24.713 -14.093  0.00  0.00    +0.155 HD
ENDROOT
BRANCH   9  15
ATOM     13  O   UNL     1      27.805 -22.451 -17.584  0.00  0.00    -0.431 OA
ATOM     14  N   UNL     1      25.848 -22.091 -16.508  0.00  0.00    -0.203 NA
ATOM     15  C   UNL     1      27.986 -22.708 -16.263  0.00  0.00    +0.166 C 
ATOM     16  C   UNL     1      26.806 -22.492 -15.612  0.00  0.00    +0.140 C 
ATOM     17  C   UNL     1      26.495 -22.087 -17.651  0.00  0.00    +0.285 C 
ENDBRANCH   9  15
BRANCH   6  18
ATOM     18  N   UNL     1      34.532 -22.794 -18.719  0.00  0.00    -0.311 N 
ATOM     19  H   UNL     1      35.085 -23.597 -18.576  0.00  0.00    +0.152 HD
BRANCH  18  29
ATOM     20  S   UNL     1      35.447 -18.066 -22.716  0.00  0.00    -0.002 S 
ATOM     21  O   UNL     1      35.557 -18.556 -24.076  0.00  0.00    -0.172 OA
ATOM     22  O   UNL     1      35.249 -16.660 -22.429  0.00  0.00    -0.172 OA
ATOM     23  C   UNL     1      34.161 -18.995 -21.895  0.00  0.00    +0.177 C 
ATOM     24  C   UNL     1      36.875 -18.632 -21.805  0.00  0.00    +0.177 C 
ATOM     25  C   UNL     1      34.934 -19.931 -21.029  0.00  0.00    +0.000 C 
ATOM     26  C   UNL     1      36.321 -19.746 -20.983  0.00  0.00    -0.001 C 
ATOM     27  C   UNL     1      34.336 -20.941 -20.277  0.00  0.00    +0.012 C 
ATOM     28  C   UNL     1      37.112 -20.570 -20.185  0.00  0.00    -0.002 C 
ATOM     29  C   UNL     1      35.129 -21.768 -19.481  0.00  0.00    +0.048 C 
ATOM     30  C   UNL     1      36.513 -21.583 -19.435  0.00  0.00    +0.014 C 
ENDBRANCH  18  29
ENDBRANCH   6  18
TORSDOF 3
ENDMDL
MODEL 2
REMARK VINA RESULT:     -11.7      2.088      3.142
REMARK  Name = 5288710
REMARK  3 active torsions:
REMARK  status: ('A' for Active; 'I' for Inactive)
REMARK    1  A    between atoms: C_6  and  N_18
REMARK    2  A    between atoms: C_9  and  C_15
REMARK    3  A    between atoms: N_18  and  C_29
REMARK                            x       y       z     vdW  Elec       q    Type
REMARK                         _______ _______ _______ _____ _____    ______ ____
ROOT
ATOM      1  O   UNL     1      37.184 -21.832 -18.691  0.00  0.00    -0.270 OA
ATOM      2  N   UNL     1      35.997 -22.818 -16.903  0.00  0.00    -0.280 N 
ATOM      3  C   UNL     1      33.844 -22.626 -17.688  0.00  0.00    +0.019 C 
ATOM      4  C   UNL     1      34.761 -22.059 -18.672  0.00  0.00    +0.069 C 
ATOM      5  C   UNL     1      34.647 -23.072 -16.635  0.00  0.00    +0.051 C 
ATOM      6  C   UNL     1      34.476 -21.503 -19.853  0.00  0.00    +0.066 C 
ATOM      7  C   UNL     1      36.159 -22.193 -18.142  0.00  0.00    +0.251 C 
ATOM      8  C   UNL     1      32.471 -22.774 -17.642  0.00  0.00    +0.005 C 
ATOM      9  C   UNL     1      31.917 -23.381 -16.510  0.00  0.00    +0.036 C 
ATOM     10  C   UNL     1      34.121 -23.674 -15.508  0.00  0.00    +0.015 C 
ATOM     11  C   UNL     1      32.734 -23.827 -15.453  0.00  0.00    +0.004 C 
ATOM     12  H   UNL     1      36.736 -23.050 -16.296  0.00  0.00    +0.155 HD
ENDROOT
BRANCH   9  15
ATOM     13  O   UNL     1      29.739 -22.709 -17.178  0.00  0.00    -0.431 OA
ATOM     14  N   UNL     1      28.346 -24.090 -16.051  0.00  0.00    -0.203 NA
ATOM     15  C   UNL     1      30.487 -23.552 -16.422  0.00  0.00    +0.166 C 
ATOM     16  C   UNL     1      29.649 -24.387 -15.741  0.00  0.00    +0.140 C 
ATOM     17  C   UNL     1      28.463 -23.096 -16.901  0.00  0.00    +0.285 C 
ENDBRANCH   9  15
BRANCH   6  18
ATOM     18  N   UNL     1      35.337 -20.982 -20.753  0.00  0.00    -0.311 N 
ATOM     19  H   UNL     1      36.162 -21.498 -20.903  0.00  0.00    +0.152 HD
BRANCH  18  29
ATOM     20  S   UNL     1      34.174 -16.923 -25.373  0.00  0.00    -0.002 S 
ATOM     21  O   UNL     1      35.258 -16.914 -26.335  0.00  0.00    -0.172 OA
ATOM     22  O   UNL     1      32.893 -16.313 -25.667  0.00  0.00    -0.172 OA
ATOM     23  C   UNL     1      33.892 -18.614 -24.872  0.00  0.00    +0.177 C 
ATOM     24  C   UNL     1      34.786 -16.238 -23.842  0.00  0.00    +0.177 C 
ATOM     25  C   UNL     1      34.510 -18.663 -23.517  0.00  0.00    +0.000 C 
ATOM     26  C   UNL     1      34.968 -17.449 -22.990  0.00  0.00    -0.001 C 
ATOM     27  C   UNL     1      34.629 -19.837 -22.776  0.00  0.00    +0.012 C 
ATOM     28  C   UNL     1      35.544 -17.407 -21.722  0.00  0.00    -0.002 C 
ATOM     29  C   UNL     1      35.210 -19.796 -21.508  0.00  0.00    +0.048 C 
ATOM     30  C   UNL     1      35.666 -18.585 -20.983  0.00  0.00    +0.014 C 
ENDBRANCH  18  29
ENDBRANCH   6  18
TORSDOF 3
ENDMDL
MODEL 3
REMARK VINA RESULT:     -11.3      7.383     11.624
REMARK  Name = 5288710
REMARK  3 active torsions:
REMARK  status: ('A' for Active; 'I' for Inactive)
REMARK    1  A    between atoms: C_6  and  N_18
REMARK    2  A    between atoms: C_9  and  C_15
REMARK    3  A    between atoms: N_18  and  C_29
REMARK                            x       y       z     vdW  Elec       q    Type
REMARK                         _______ _______ _______ _____ _____    ______ ____
ROOT
ATOM      1  O   UNL     1      32.750 -13.639 -26.283  0.00  0.00    -0.270 OA
ATOM      2  N   UNL     1      33.351 -15.923 -26.252  0.00  0.00    -0.280 N 
ATOM      3  C   UNL     1      34.226 -16.085 -24.132  0.00  0.00    +0.019 C 
ATOM      4  C   UNL     1      33.784 -14.713 -24.359  0.00  0.00    +0.069 C 
ATOM      5  C   UNL     1      33.940 -16.777 -25.312  0.00  0.00    +0.051 C 
ATOM      6  C   UNL     1      33.844 -13.670 -23.527  0.00  0.00    +0.066 C 
ATOM      7  C   UNL     1      33.217 -14.627 -25.746  0.00  0.00    +0.251 C 
ATOM      8  C   UNL     1      34.813 -16.731 -23.059  0.00  0.00    +0.005 C 
ATOM      9  C   UNL     1      35.108 -18.091 -23.198  0.00  0.00    +0.036 C 
ATOM     10  C   UNL     1      34.222 -18.120 -25.470  0.00  0.00    +0.015 C 
ATOM     11  C   UNL     1      34.816 -18.779 -24.391  0.00  0.00    +0.004 C 
ATOM     12  H   UNL     1      33.068 -16.201 -27.153  0.00  0.00    +0.155 HD
ENDROOT
BRANCH   9  15
ATOM     13  O   UNL     1      35.008 -19.835 -21.588  0.00  0.00    -0.431 OA
ATOM     14  N   UNL     1      36.954 -19.668 -20.446  0.00  0.00    -0.203 NA
ATOM     15  C   UNL     1      35.723 -18.801 -22.102  0.00  0.00    +0.166 C 
ATOM     16  C   UNL     1      36.897 -18.698 -21.415  0.00  0.00    +0.140 C 
ATOM     17  C   UNL     1      35.815 -20.305 -20.597  0.00  0.00    +0.285 C 
ENDBRANCH   9  15
BRANCH   6  18
ATOM     18  N   UNL     1      33.430 -12.405 -23.753  0.00  0.00    -0.311 N 
ATOM     19  H   UNL     1      33.489 -12.096 -24.686  0.00  0.00    +0.152 HD
BRANCH  18  29
ATOM     20  S   UNL     1      32.316  -7.122 -20.587  0.00  0.00    -0.002 S 
ATOM     21  O   UNL     1      33.364  -6.873 -19.616  0.00  0.00    -0.172 OA
ATOM     22  O   UNL     1      31.362  -6.095 -20.955  0.00  0.00    -0.172 OA
ATOM     23  C   UNL     1      33.078  -7.743 -22.078  0.00  0.00    +0.177 C 
ATOM     24  C   UNL     1      31.412  -8.572 -20.068  0.00  0.00    +0.177 C 
ATOM     25  C   UNL     1      32.769  -9.200 -22.023  0.00  0.00    +0.000 C 
ATOM     26  C   UNL     1      31.917  -9.624 -20.996  0.00  0.00    -0.001 C 
ATOM     27  C   UNL     1      33.271 -10.120 -22.942  0.00  0.00    +0.012 C 
ATOM     28  C   UNL     1      31.567 -10.968 -20.885  0.00  0.00    -0.002 C 
ATOM     29  C   UNL     1      32.923 -11.466 -22.828  0.00  0.00    +0.048 C 
ATOM     30  C   UNL     1      32.073 -11.889 -21.803  0.00  0.00    +0.014 C 
ENDBRANCH  18  29
ENDBRANCH   6  18
TORSDOF 3
ENDMDL
MODEL 4
REMARK VINA RESULT:     -11.2      3.590      8.946
REMARK  Name = 5288710
REMARK  3 active torsions:
REMARK  status: ('A' for Active; 'I' for Inactive)
REMARK    1  A    between atoms: C_6  and  N_18
REMARK    2  A    between atoms: C_9  and  C_15
REMARK    3  A    between atoms: N_18  and  C_29
REMARK                            x       y       z     vdW  Elec       q    Type
REMARK                         _______ _______ _______ _____ _____    ______ ____
ROOT
ATOM      1  O   UNL     1      36.692 -21.951 -18.208  0.00  0.00    -0.270 OA
ATOM      2  N   UNL     1      37.252 -20.208 -19.701  0.00  0.00    -0.280 N 
ATOM      3  C   UNL     1      35.449 -20.298 -21.125  0.00  0.00    +0.019 C 
ATOM      4  C   UNL     1      35.294 -21.323 -20.099  0.00  0.00    +0.069 C 
ATOM      5  C   UNL     1      36.653 -19.650 -20.836  0.00  0.00    +0.051 C 
ATOM      6  C   UNL     1      34.303 -22.205 -19.945  0.00  0.00    +0.066 C 
ATOM      7  C   UNL     1      36.479 -21.250 -19.180  0.00  0.00    +0.251 C 
ATOM      8  C   UNL     1      34.681 -19.912 -22.208  0.00  0.00    +0.005 C 
ATOM      9  C   UNL     1      35.151 -18.858 -22.999  0.00  0.00    +0.036 C 
ATOM     10  C   UNL     1      37.135 -18.607 -21.603  0.00  0.00    +0.015 C 
ATOM     11  C   UNL     1      36.366 -18.212 -22.700  0.00  0.00    +0.004 C 
ATOM     12  H   UNL     1      38.107 -19.906 -19.319  0.00  0.00    +0.155 HD
ENDROOT
BRANCH   9  15
ATOM     13  O   UNL     1      34.436 -17.100 -24.428  0.00  0.00    -0.431 OA
ATOM     14  N   UNL     1      33.091 -18.108 -25.942  0.00  0.00    -0.203 NA
ATOM     15  C   UNL     1      34.380 -18.426 -24.140  0.00  0.00    +0.166 C 
ATOM     16  C   UNL     1      33.570 -19.037 -25.052  0.00  0.00    +0.140 C 
ATOM     17  C   UNL     1      33.636 -16.989 -25.524  0.00  0.00    +0.285 C 
ENDBRANCH   9  15
BRANCH   6  18
ATOM     18  N   UNL     1      34.174 -23.150 -18.989  0.00  0.00    -0.311 N 
ATOM     19  H   UNL     1      34.758 -23.937 -19.085  0.00  0.00    +0.152 HD
BRANCH  18  29
ATOM     20  S   UNL     1      31.839 -23.970 -13.240  0.00  0.00    -0.002 S 
ATOM     21  O   UNL     1      31.395 -25.338 -13.056  0.00  0.00    -0.172 OA
ATOM     22  O   UNL     1      32.002 -23.066 -12.120  0.00  0.00    -0.172 OA
ATOM     23  C   UNL     1      33.367 -24.003 -14.164  0.00  0.00    +0.177 C 
ATOM     24  C   UNL     1      30.765 -23.195 -14.438  0.00  0.00    +0.177 C 
ATOM     25  C   UNL     1      32.937 -23.585 -15.529  0.00  0.00    +0.000 C 
ATOM     26  C   UNL     1      31.606 -23.171 -15.669  0.00  0.00    -0.001 C 
ATOM     27  C   UNL     1      33.793 -23.577 -16.628  0.00  0.00    +0.012 C 
ATOM     28  C   UNL     1      31.130 -22.750 -16.908  0.00  0.00    -0.002 C 
ATOM     29  C   UNL     1      33.314 -23.158 -17.870  0.00  0.00    +0.048 C 
ATOM     30  C   UNL     1      31.987 -22.746 -18.010  0.00  0.00    +0.014 C 
ENDBRANCH  18  29
ENDBRANCH   6  18
TORSDOF 3
ENDMDL
MODEL 5
REMARK VINA RESULT:     -11.0      2.610      5.381
REMARK  Name = 5288710
REMARK  3 active torsions:
REMARK  status: ('A' for Active; 'I' for Inactive)
REMARK    1  A    between atoms: C_6  and  N_18
REMARK    2  A    between atoms: C_9  and  C_15
REMARK    3  A    between atoms: N_18  and  C_29
REMARK                            x       y       z     vdW  Elec       q    Type
REMARK                         _______ _______ _______ _____ _____    ______ ____
ROOT
ATOM      1  O   UNL     1      31.678 -22.703 -17.920  0.00  0.00    -0.270 OA
ATOM      2  N   UNL     1      31.748 -23.383 -15.659  0.00  0.00    -0.280 N 
ATOM      3  C   UNL     1      34.013 -23.681 -15.394  0.00  0.00    +0.019 C 
ATOM      4  C   UNL     1      33.749 -23.248 -16.762  0.00  0.00    +0.069 C 
ATOM      5  C   UNL     1      32.765 -23.745 -14.768  0.00  0.00    +0.051 C 
ATOM      6  C   UNL     1      34.620 -23.039 -17.753  0.00  0.00    +0.066 C 
ATOM      7  C   UNL     1      32.267 -23.060 -16.916  0.00  0.00    +0.251 C 
ATOM      8  C   UNL     1      35.168 -23.997 -14.702  0.00  0.00    +0.005 C 
ATOM      9  C   UNL     1      35.041 -24.382 -13.363  0.00  0.00    +0.036 C 
ATOM     10  C   UNL     1      32.618 -24.123 -13.447  0.00  0.00    +0.015 C 
ATOM     11  C   UNL     1      33.780 -24.445 -12.742  0.00  0.00    +0.004 C 
ATOM     12  H   UNL     1      30.791 -23.359 -15.429  0.00  0.00    +0.155 HD
ENDROOT
BRANCH   9  15
ATOM     13  O   UNL     1      37.056 -25.629 -13.179  0.00  0.00    -0.431 OA
ATOM     14  N   UNL     1      37.927 -25.011 -11.185  0.00  0.00    -0.203 NA
ATOM     15  C   UNL     1      36.223 -24.722 -12.606  0.00  0.00    +0.166 C 
ATOM     16  C   UNL     1      36.746 -24.347 -11.403  0.00  0.00    +0.140 C 
ATOM     17  C   UNL     1      38.056 -25.749 -12.263  0.00  0.00    +0.285 C 
ENDBRANCH   9  15
BRANCH   6  18
ATOM     18  N   UNL     1      34.359 -22.639 -19.016  0.00  0.00    -0.311 N 
ATOM     19  H   UNL     1      33.650 -23.137 -19.483  0.00  0.00    +0.152 HD
BRANCH  18  29
ATOM     20  S   UNL     1      35.322 -17.813 -22.882  0.00  0.00    -0.002 S 
ATOM     21  O   UNL     1      35.412 -18.265 -24.257  0.00  0.00    -0.172 OA
ATOM     22  O   UNL     1      35.153 -16.412 -22.552  0.00  0.00    -0.172 OA
ATOM     23  C   UNL     1      34.028 -18.742 -22.076  0.00  0.00    +0.177 C 
ATOM     24  C   UNL     1      36.748 -18.430 -22.002  0.00  0.00    +0.177 C 
ATOM     25  C   UNL     1      34.791 -19.717 -21.245  0.00  0.00    +0.000 C 
ATOM     26  C   UNL     1      36.181 -19.558 -21.207  0.00  0.00    -0.001 C 
ATOM     27  C   UNL     1      34.182 -20.737 -20.517  0.00  0.00    +0.012 C 
ATOM     28  C   UNL     1      36.965 -20.418 -20.441  0.00  0.00    -0.002 C 
ATOM     29  C   UNL     1      34.967 -21.601 -19.754  0.00  0.00    +0.048 C 
ATOM     30  C   UNL     1      36.355 -21.442 -19.716  0.00  0.00    +0.014 C 
ENDBRANCH  18  29
ENDBRANCH   6  18
TORSDOF 3
ENDMDL
MODEL 6
REMARK VINA RESULT:     -10.8      5.321     10.535
REMARK  Name = 5288710
REMARK  3 active torsions:
REMARK  status: ('A' for Active; 'I' for Inactive)
REMARK    1  A    between atoms: C_6  and  N_18
REMARK    2  A    between atoms: C_9  and  C_15
REMARK    3  A    between atoms: N_18  and  C_29
REMARK                            x       y       z     vdW  Elec       q    Type
REMARK                         _______ _______ _______ _____ _____    ______ ____
ROOT
ATOM      1  O   UNL     1      34.490 -19.390 -24.766  0.00  0.00    -0.270 OA
ATOM      2  N   UNL     1      33.691 -17.479 -25.901  0.00  0.00    -0.280 N 
ATOM      3  C   UNL     1      34.204 -15.848 -24.363  0.00  0.00    +0.019 C 
ATOM      4  C   UNL     1      34.627 -17.143 -23.841  0.00  0.00    +0.069 C 
ATOM      5  C   UNL     1      33.643 -16.109 -25.616  0.00  0.00    +0.051 C 
ATOM      6  C   UNL     1      35.219 -17.418 -22.675  0.00  0.00    +0.066 C 
ATOM      7  C   UNL     1      34.284 -18.193 -24.857  0.00  0.00    +0.251 C 
ATOM      8  C   UNL     1      34.265 -14.557 -23.873  0.00  0.00    +0.005 C 
ATOM      9  C   UNL     1      33.748 -13.530 -24.669  0.00  0.00    +0.036 C 
ATOM     10  C   UNL     1      33.127 -15.111 -26.419  0.00  0.00    +0.015 C 
ATOM     11  C   UNL     1      33.184 -13.803 -25.929  0.00  0.00    +0.004 C 
ATOM     12  H   UNL     1      33.350 -17.885 -26.731  0.00  0.00    +0.155 HD
ENDROOT
BRANCH   9  15
ATOM     13  O   UNL     1      34.721 -11.365 -24.769  0.00  0.00    -0.431 OA
ATOM     14  N   UNL     1      33.582 -10.158 -23.232  0.00  0.00    -0.203 NA
ATOM     15  C   UNL     1      33.791 -12.169 -24.191  0.00  0.00    +0.166 C 
ATOM     16  C   UNL     1      33.102 -11.443 -23.264  0.00  0.00    +0.140 C 
ATOM     17  C   UNL     1      34.532 -10.173 -24.138  0.00  0.00    +0.285 C 
ENDBRANCH   9  15
BRANCH   6  18
ATOM     18  N   UNL     1      35.605 -18.623 -22.205  0.00  0.00    -0.311 N 
ATOM     19  H   UNL     1      36.511 -18.910 -22.460  0.00  0.00    +0.152 HD
BRANCH  18  29
ATOM     20  S   UNL     1      34.099 -23.258 -18.278  0.00  0.00    -0.002 S 
ATOM     21  O   UNL     1      34.090 -24.534 -18.967  0.00  0.00    -0.172 OA
ATOM     22  O   UNL     1      34.084 -23.176 -16.832  0.00  0.00    -0.172 OA
ATOM     23  C   UNL     1      35.487 -22.312 -18.883  0.00  0.00    +0.177 C 
ATOM     24  C   UNL     1      32.749 -22.276 -18.912  0.00  0.00    +0.177 C 
ATOM     25  C   UNL     1      34.841 -21.321 -19.789  0.00  0.00    +0.000 C 
ATOM     26  C   UNL     1      33.441 -21.302 -19.805  0.00  0.00    -0.001 C 
ATOM     27  C   UNL     1      35.563 -20.432 -20.583  0.00  0.00    +0.012 C 
ATOM     28  C   UNL     1      32.761 -20.395 -20.614  0.00  0.00    -0.002 C 
ATOM     29  C   UNL     1      34.881 -19.525 -21.396  0.00  0.00    +0.048 C 
ATOM     30  C   UNL     1      33.484 -19.507 -21.412  0.00  0.00    +0.014 C 
ENDBRANCH  18  29
ENDBRANCH   6  18
TORSDOF 3
ENDMDL
MODEL 7
REMARK VINA RESULT:     -10.8      3.320      6.680
REMARK  Name = 5288710
REMARK  3 active torsions:
REMARK  status: ('A' for Active; 'I' for Inactive)
REMARK    1  A    between atoms: C_6  and  N_18
REMARK    2  A    between atoms: C_9  and  C_15
REMARK    3  A    between atoms: N_18  and  C_29
REMARK                            x       y       z     vdW  Elec       q    Type
REMARK                         _______ _______ _______ _____ _____    ______ ____
ROOT
ATOM      1  O   UNL     1      32.008 -22.994 -15.516  0.00  0.00    -0.270 OA
ATOM      2  N   UNL     1      33.382 -23.769 -13.758  0.00  0.00    -0.280 N 
ATOM      3  C   UNL     1      35.319 -24.205 -14.918  0.00  0.00    +0.019 C 
ATOM      4  C   UNL     1      34.313 -23.703 -15.848  0.00  0.00    +0.069 C 
ATOM      5  C   UNL     1      34.702 -24.225 -13.665  0.00  0.00    +0.051 C 
ATOM      6  C   UNL     1      34.420 -23.503 -17.164  0.00  0.00    +0.066 C 
ATOM      7  C   UNL     1      33.057 -23.424 -15.074  0.00  0.00    +0.251 C 
ATOM      8  C   UNL     1      36.631 -24.615 -15.066  0.00  0.00    +0.005 C 
ATOM      9  C   UNL     1      37.313 -25.047 -13.925  0.00  0.00    +0.036 C 
ATOM     10  C   UNL     1      35.357 -24.648 -12.524  0.00  0.00    +0.015 C 
ATOM     11  C   UNL     1      36.683 -25.064 -12.666  0.00  0.00    +0.004 C 
ATOM     12  H   UNL     1      32.763 -23.700 -12.996  0.00  0.00    +0.155 HD
ENDROOT
BRANCH   9  15
ATOM     13  O   UNL     1      39.420 -24.890 -15.011  0.00  0.00    -0.431 OA
ATOM     14  N   UNL     1      40.731 -26.383 -13.929  0.00  0.00    -0.203 NA
ATOM     15  C   UNL     1      38.684 -25.485 -14.037  0.00  0.00    +0.166 C 
ATOM     16  C   UNL     1      39.473 -26.386 -13.382  0.00  0.00    +0.140 C 
ATOM     17  C   UNL     1      40.639 -25.483 -14.881  0.00  0.00    +0.285 C 
ENDBRANCH   9  15
BRANCH   6  18
ATOM     18  N   UNL     1      33.478 -23.037 -18.011  0.00  0.00    -0.311 N 
ATOM     19  H   UNL     1      32.579 -23.424 -17.906  0.00  0.00    +0.152 HD
BRANCH  18  29
ATOM     20  S   UNL     1      35.824 -18.780 -21.954  0.00  0.00    -0.002 S 
ATOM     21  O   UNL     1      35.964 -17.493 -21.299  0.00  0.00    -0.172 OA
ATOM     22  O   UNL     1      36.462 -19.058 -23.225  0.00  0.00    -0.172 OA
ATOM     23  C   UNL     1      36.305 -20.048 -20.792  0.00  0.00    +0.177 C 
ATOM     24  C   UNL     1      34.082 -19.138 -22.107  0.00  0.00    +0.177 C 
ATOM     25  C   UNL     1      34.995 -20.616 -20.364  0.00  0.00    +0.000 C 
ATOM     26  C   UNL     1      33.858 -20.151 -21.036  0.00  0.00    -0.001 C 
ATOM     27  C   UNL     1      34.873 -21.576 -19.361  0.00  0.00    +0.012 C 
ATOM     28  C   UNL     1      32.598 -20.645 -20.706  0.00  0.00    -0.002 C 
ATOM     29  C   UNL     1      33.611 -22.067 -19.028  0.00  0.00    +0.048 C 
ATOM     30  C   UNL     1      32.476 -21.602 -19.699  0.00  0.00    +0.014 C 
ENDBRANCH  18  29
ENDBRANCH   6  18
TORSDOF 3
ENDMDL
MODEL 8
REMARK VINA RESULT:     -10.5      3.329      5.664
REMARK  Name = 5288710
REMARK  3 active torsions:
REMARK  status: ('A' for Active; 'I' for Inactive)
REMARK    1  A    between atoms: C_6  and  N_18
REMARK    2  A    between atoms: C_9  and  C_15
REMARK    3  A    between atoms: N_18  and  C_29
REMARK                            x       y       z     vdW  Elec       q    Type
REMARK                         _______ _______ _______ _____ _____    ______ ____
ROOT
ATOM      1  O   UNL     1      32.682 -22.031 -20.258  0.00  0.00    -0.270 OA
ATOM      2  N   UNL     1      32.499 -22.765 -18.020  0.00  0.00    -0.280 N 
ATOM      3  C   UNL     1      34.719 -22.788 -17.417  0.00  0.00    +0.019 C 
ATOM      4  C   UNL     1      34.609 -22.350 -18.805  0.00  0.00    +0.069 C 
ATOM      5  C   UNL     1      33.409 -23.026 -16.989  0.00  0.00    +0.051 C 
ATOM      6  C   UNL     1      35.584 -22.005 -19.649  0.00  0.00    +0.066 C 
ATOM      7  C   UNL     1      33.155 -22.342 -19.180  0.00  0.00    +0.251 C 
ATOM      8  C   UNL     1      35.787 -22.979 -16.561  0.00  0.00    +0.005 C 
ATOM      9  C   UNL     1      35.512 -23.418 -15.262  0.00  0.00    +0.036 C 
ATOM     10  C   UNL     1      33.116 -23.458 -15.711  0.00  0.00    +0.015 C 
ATOM     11  C   UNL     1      34.190 -23.655 -14.840  0.00  0.00    +0.004 C 
ATOM     12  H   UNL     1      31.524 -22.867 -17.939  0.00  0.00    +0.155 HD
ENDROOT
BRANCH   9  15
ATOM     13  O   UNL     1      36.435 -23.113 -13.094  0.00  0.00    -0.431 OA
ATOM     14  N   UNL     1      38.447 -24.143 -13.182  0.00  0.00    -0.203 NA
ATOM     15  C   UNL     1      36.600 -23.632 -14.338  0.00  0.00    +0.166 C 
ATOM     16  C   UNL     1      37.813 -24.254 -14.393  0.00  0.00    +0.140 C 
ATOM     17  C   UNL     1      37.587 -23.463 -12.458  0.00  0.00    +0.285 C 
ENDBRANCH   9  15
BRANCH   6  18
ATOM     18  N   UNL     1      35.467 -21.602 -20.932  0.00  0.00    -0.311 N 
ATOM     19  H   UNL     1      35.405 -22.321 -21.602  0.00  0.00    +0.152 HD
BRANCH  18  29
ATOM     20  S   UNL     1      34.466 -16.640 -24.613  0.00  0.00    -0.002 S 
ATOM     21  O   UNL     1      35.491 -16.542 -25.634  0.00  0.00    -0.172 OA
ATOM     22  O   UNL     1      33.240 -15.873 -24.692  0.00  0.00    -0.172 OA
ATOM     23  C   UNL     1      34.042 -18.363 -24.417  0.00  0.00    +0.177 C 
ATOM     24  C   UNL     1      35.230 -16.322 -23.030  0.00  0.00    +0.177 C 
ATOM     25  C   UNL     1      34.728 -18.729 -23.144  0.00  0.00    +0.000 C 
ATOM     26  C   UNL     1      35.335 -17.685 -22.435  0.00  0.00    -0.001 C 
ATOM     27  C   UNL     1      34.767 -20.030 -22.648  0.00  0.00    +0.012 C 
ATOM     28  C   UNL     1      35.982 -17.941 -21.228  0.00  0.00    -0.002 C 
ATOM     29  C   UNL     1      35.419 -20.287 -21.441  0.00  0.00    +0.048 C 
ATOM     30  C   UNL     1      36.025 -19.245 -20.734  0.00  0.00    +0.014 C 
ENDBRANCH  18  29
ENDBRANCH   6  18
TORSDOF 3
ENDMDL
MODEL 9
REMARK VINA RESULT:     -10.5      3.193      8.663
REMARK  Name = 5288710
REMARK  3 active torsions:
REMARK  status: ('A' for Active; 'I' for Inactive)
REMARK    1  A    between atoms: C_6  and  N_18
REMARK    2  A    between atoms: C_9  and  C_15
REMARK    3  A    between atoms: N_18  and  C_29
REMARK                            x       y       z     vdW  Elec       q    Type
REMARK                         _______ _______ _______ _____ _____    ______ ____
ROOT
ATOM      1  O   UNL     1      36.907 -21.895 -18.006  0.00  0.00    -0.270 OA
ATOM      2  N   UNL     1      37.355 -20.195 -19.583  0.00  0.00    -0.280 N 
ATOM      3  C   UNL     1      35.512 -20.405 -20.943  0.00  0.00    +0.019 C 
ATOM      4  C   UNL     1      35.428 -21.394 -19.873  0.00  0.00    +0.069 C 
ATOM      5  C   UNL     1      36.700 -19.704 -20.718  0.00  0.00    +0.051 C 
ATOM      6  C   UNL     1      34.475 -22.304 -19.653  0.00  0.00    +0.066 C 
ATOM      7  C   UNL     1      36.638 -21.242 -18.997  0.00  0.00    +0.251 C 
ATOM      8  C   UNL     1      34.697 -20.090 -22.014  0.00  0.00    +0.005 C 
ATOM      9  C   UNL     1      35.103 -19.053 -22.859  0.00  0.00    +0.036 C 
ATOM     10  C   UNL     1      37.119 -18.676 -21.540  0.00  0.00    +0.015 C 
ATOM     11  C   UNL     1      36.301 -18.352 -22.626  0.00  0.00    +0.004 C 
ATOM     12  H   UNL     1      38.210 -19.846 -19.241  0.00  0.00    +0.155 HD
ENDROOT
BRANCH   9  15
ATOM     13  O   UNL     1      34.327 -17.391 -24.370  0.00  0.00    -0.431 OA
ATOM     14  N   UNL     1      32.911 -18.491 -25.749  0.00  0.00    -0.203 NA
ATOM     15  C   UNL     1      34.281 -18.694 -23.991  0.00  0.00    +0.166 C 
ATOM     16  C   UNL     1      33.428 -19.360 -24.821  0.00  0.00    +0.140 C 
ATOM     17  C   UNL     1      33.478 -17.349 -25.433  0.00  0.00    +0.285 C 
ENDBRANCH   9  15
BRANCH   6  18
ATOM     18  N   UNL     1      34.412 -23.214 -18.658  0.00  0.00    -0.311 N 
ATOM     19  H   UNL     1      35.082 -23.935 -18.695  0.00  0.00    +0.152 HD
BRANCH  18  29
ATOM     20  S   UNL     1      29.202 -23.176 -15.190  0.00  0.00    -0.002 S 
ATOM     21  O   UNL     1      28.767 -21.818 -14.929  0.00  0.00    -0.172 OA
ATOM     22  O   UNL     1      28.336 -24.311 -14.944  0.00  0.00    -0.172 OA
ATOM     23  C   UNL     1      29.776 -23.260 -16.879  0.00  0.00    +0.177 C 
ATOM     24  C   UNL     1      30.740 -23.442 -14.322  0.00  0.00    +0.177 C 
ATOM     25  C   UNL     1      31.258 -23.282 -16.723  0.00  0.00    +0.000 C 
ATOM     26  C   UNL     1      31.751 -23.375 -15.415  0.00  0.00    -0.001 C 
ATOM     27  C   UNL     1      32.138 -23.231 -17.802  0.00  0.00    +0.012 C 
ATOM     28  C   UNL     1      33.125 -23.417 -15.185  0.00  0.00    -0.002 C 
ATOM     29  C   UNL     1      33.514 -23.269 -17.571  0.00  0.00    +0.048 C 
ATOM     30  C   UNL     1      34.005 -23.362 -16.266  0.00  0.00    +0.014 C 
ENDBRANCH  18  29
ENDBRANCH   6  18
TORSDOF 3
ENDMDL
