MODEL 1
REMARK VINA RESULT:     -11.1      0.000      0.000
REMARK  Name = 25109292
REMARK  3 active torsions:
REMARK  status: ('A' for Active; 'I' for Inactive)
REMARK    1  A    between atoms: C_3  and  S_20
REMARK    2  A    between atoms: C_7  and  C_10
REMARK    3  A    between atoms: S_20  and  C_23
REMARK                            x       y       z     vdW  Elec       q    Type
REMARK                         _______ _______ _______ _____ _____    ______ ____
ROOT
ATOM      1  O   UNL     1      34.709 -23.195 -17.015  0.00  0.00    -0.425 OA
ATOM      2  N   UNL     1      36.919 -22.690 -16.973  0.00  0.00    -0.368 NA
ATOM      3  C   UNL     1      36.808 -24.878 -13.946  0.00  0.00    +0.091 C 
ATOM      4  C   UNL     1      36.617 -23.516 -15.918  0.00  0.00    +0.153 C 
ATOM      5  C   UNL     1      35.266 -23.827 -15.940  0.00  0.00    +0.174 C 
ATOM      6  C   UNL     1      37.419 -24.050 -14.898  0.00  0.00    +0.107 C 
ATOM      7  C   UNL     1      35.761 -22.537 -17.579  0.00  0.00    +0.282 C 
ATOM      8  C   UNL     1      35.438 -25.166 -14.004  0.00  0.00    +0.018 C 
ATOM      9  C   UNL     1      34.625 -24.642 -15.015  0.00  0.00    +0.041 C 
ENDROOT
BRANCH   7  10
ATOM     10  C   UNL     1      35.443 -21.772 -18.760  0.00  0.00    +0.066 C 
ATOM     11  C   UNL     1      36.126 -20.226 -20.510  0.00  0.00    +0.000 C 
ATOM     12  C   UNL     1      34.823 -20.283 -21.059  0.00  0.00    +0.000 C 
ATOM     13  C   UNL     1      36.420 -20.976 -19.360  0.00  0.00    +0.006 C 
ATOM     14  C   UNL     1      34.163 -21.829 -19.300  0.00  0.00    +0.006 C 
ATOM     15  C   UNL     1      33.852 -21.089 -20.442  0.00  0.00    +0.000 C 
ATOM     16  C   UNL     1      37.096 -19.420 -21.127  0.00  0.00    +0.000 C 
ATOM     17  C   UNL     1      34.528 -19.533 -22.209  0.00  0.00    +0.000 C 
ATOM     18  C   UNL     1      36.786 -18.681 -22.269  0.00  0.00    +0.000 C 
ATOM     19  C   UNL     1      35.505 -18.737 -22.809  0.00  0.00    +0.000 C 
ENDBRANCH   7  10
BRANCH   3  20
ATOM     20  S   UNL     1      37.776 -25.561 -12.660  0.00  0.00    +0.005 S 
ATOM     21  O   UNL     1      36.883 -26.284 -11.766  0.00  0.00    -0.169 OA
ATOM     22  O   UNL     1      38.921 -26.242 -13.245  0.00  0.00    -0.169 OA
BRANCH  20  23
ATOM     23  C   UNL     1      38.403 -24.147 -11.783  0.00  0.00    +0.156 C 
ATOM     24  C   UNL     1      37.287 -23.217 -11.361  0.00  0.00    +0.028 C 
ENDBRANCH  20  23
ENDBRANCH   3  20
TORSDOF 3
ENDMDL
MODEL 2
REMARK VINA RESULT:     -10.7     10.148     14.528
REMARK  Name = 25109292
REMARK  3 active torsions:
REMARK  status: ('A' for Active; 'I' for Inactive)
REMARK    1  A    between atoms: C_3  and  S_20
REMARK    2  A    between atoms: C_7  and  C_10
REMARK    3  A    between atoms: S_20  and  C_23
REMARK                            x       y       z     vdW  Elec       q    Type
REMARK                         _______ _______ _______ _____ _____    ______ ____
ROOT
ATOM      1  O   UNL     1      32.626 -12.620 -22.653  0.00  0.00    -0.425 OA
ATOM      2  N   UNL     1      34.079 -11.831 -24.203  0.00  0.00    -0.368 NA
ATOM      3  C   UNL     1      32.657  -8.562 -23.081  0.00  0.00    +0.091 C 
ATOM      4  C   UNL     1      33.408 -10.780 -23.626  0.00  0.00    +0.153 C 
ATOM      5  C   UNL     1      32.518 -11.259 -22.677  0.00  0.00    +0.174 C 
ATOM      6  C   UNL     1      33.488  -9.396 -23.842  0.00  0.00    +0.107 C 
ATOM      7  C   UNL     1      33.578 -12.882 -23.592  0.00  0.00    +0.282 C 
ATOM      8  C   UNL     1      31.770  -9.087 -22.133  0.00  0.00    +0.018 C 
ATOM      9  C   UNL     1      31.680 -10.465 -21.905  0.00  0.00    +0.041 C 
ENDROOT
BRANCH   7  10
ATOM     10  C   UNL     1      33.892 -14.278 -23.774  0.00  0.00    +0.066 C 
ATOM     11  C   UNL     1      34.880 -16.337 -22.936  0.00  0.00    +0.000 C 
ATOM     12  C   UNL     1      34.500 -16.997 -24.129  0.00  0.00    +0.000 C 
ATOM     13  C   UNL     1      34.569 -14.978 -22.774  0.00  0.00    +0.006 C 
ATOM     14  C   UNL     1      33.517 -14.927 -24.946  0.00  0.00    +0.006 C 
ATOM     15  C   UNL     1      33.819 -16.278 -25.124  0.00  0.00    +0.000 C 
ATOM     16  C   UNL     1      35.562 -17.056 -21.940  0.00  0.00    +0.000 C 
ATOM     17  C   UNL     1      34.811 -18.357 -24.290  0.00  0.00    +0.000 C 
ATOM     18  C   UNL     1      35.863 -18.406 -22.118  0.00  0.00    +0.000 C 
ATOM     19  C   UNL     1      35.489 -19.055 -23.291  0.00  0.00    +0.000 C 
ENDBRANCH   7  10
BRANCH   3  20
ATOM     20  S   UNL     1      32.730  -6.831 -23.324  0.00  0.00    +0.005 S 
ATOM     21  O   UNL     1      31.748  -6.483 -24.341  0.00  0.00    -0.169 OA
ATOM     22  O   UNL     1      32.693  -6.173 -22.027  0.00  0.00    -0.169 OA
BRANCH  20  23
ATOM     23  C   UNL     1      34.348  -6.551 -24.005  0.00  0.00    +0.156 C 
ATOM     24  C   UNL     1      34.310  -5.536 -25.126  0.00  0.00    +0.028 C 
ENDBRANCH  20  23
ENDBRANCH   3  20
TORSDOF 3
ENDMDL
MODEL 3
REMARK VINA RESULT:     -10.4     10.764     14.817
REMARK  Name = 25109292
REMARK  3 active torsions:
REMARK  status: ('A' for Active; 'I' for Inactive)
REMARK    1  A    between atoms: C_3  and  S_20
REMARK    2  A    between atoms: C_7  and  C_10
REMARK    3  A    between atoms: S_20  and  C_23
REMARK                            x       y       z     vdW  Elec       q    Type
REMARK                         _______ _______ _______ _____ _____    ______ ____
ROOT
ATOM      1  O   UNL     1      32.633 -12.292 -22.514  0.00  0.00    -0.425 OA
ATOM      2  N   UNL     1      34.175 -11.609 -24.029  0.00  0.00    -0.368 NA
ATOM      3  C   UNL     1      32.666  -8.279 -23.253  0.00  0.00    +0.091 C 
ATOM      4  C   UNL     1      33.463 -10.524 -23.577  0.00  0.00    +0.153 C 
ATOM      5  C   UNL     1      32.518 -10.938 -22.650  0.00  0.00    +0.174 C 
ATOM      6  C   UNL     1      33.548  -9.161 -23.895  0.00  0.00    +0.107 C 
ATOM      7  C   UNL     1      33.643 -12.615 -23.370  0.00  0.00    +0.282 C 
ATOM      8  C   UNL     1      31.726  -8.739 -22.323  0.00  0.00    +0.018 C 
ATOM      9  C   UNL     1      31.629 -10.096 -21.995  0.00  0.00    +0.041 C 
ENDROOT
BRANCH   7  10
ATOM     10  C   UNL     1      33.976 -14.018 -23.423  0.00  0.00    +0.066 C 
ATOM     11  C   UNL     1      33.910 -16.152 -24.589  0.00  0.00    +0.000 C 
ATOM     12  C   UNL     1      34.627 -16.748 -23.525  0.00  0.00    +0.000 C 
ATOM     13  C   UNL     1      33.592 -14.786 -24.523  0.00  0.00    +0.006 C 
ATOM     14  C   UNL     1      34.681 -14.604 -22.377  0.00  0.00    +0.006 C 
ATOM     15  C   UNL     1      35.005 -15.961 -22.425  0.00  0.00    +0.000 C 
ATOM     16  C   UNL     1      33.531 -16.940 -25.689  0.00  0.00    +0.000 C 
ATOM     17  C   UNL     1      34.945 -18.114 -23.591  0.00  0.00    +0.000 C 
ATOM     18  C   UNL     1      33.855 -18.296 -25.737  0.00  0.00    +0.000 C 
ATOM     19  C   UNL     1      34.560 -18.882 -24.690  0.00  0.00    +0.000 C 
ENDBRANCH   7  10
BRANCH   3  20
ATOM     20  S   UNL     1      32.744  -6.571 -23.625  0.00  0.00    +0.005 S 
ATOM     21  O   UNL     1      31.833  -6.315 -24.731  0.00  0.00    -0.169 OA
ATOM     22  O   UNL     1      32.613  -5.815 -22.389  0.00  0.00    -0.169 OA
BRANCH  20  23
ATOM     23  C   UNL     1      34.403  -6.325 -24.213  0.00  0.00    +0.156 C 
ATOM     24  C   UNL     1      34.420  -5.575 -25.527  0.00  0.00    +0.028 C 
ENDBRANCH  20  23
ENDBRANCH   3  20
TORSDOF 3
ENDMDL
MODEL 4
REMARK VINA RESULT:     -10.3      2.170      3.675
REMARK  Name = 25109292
REMARK  3 active torsions:
REMARK  status: ('A' for Active; 'I' for Inactive)
REMARK    1  A    between atoms: C_3  and  S_20
REMARK    2  A    between atoms: C_7  and  C_10
REMARK    3  A    between atoms: S_20  and  C_23
REMARK                            x       y       z     vdW  Elec       q    Type
REMARK                         _______ _______ _______ _____ _____    ______ ____
ROOT
ATOM      1  O   UNL     1      34.017 -21.259 -19.863  0.00  0.00    -0.425 OA
ATOM      2  N   UNL     1      36.186 -20.953 -19.283  0.00  0.00    -0.368 NA
ATOM      3  C   UNL     1      35.281 -23.479 -16.681  0.00  0.00    +0.091 C 
ATOM      4  C   UNL     1      35.611 -21.874 -18.440  0.00  0.00    +0.153 C 
ATOM      5  C   UNL     1      34.283 -22.063 -18.793  0.00  0.00    +0.174 C 
ATOM      6  C   UNL     1      36.135 -22.595 -17.358  0.00  0.00    +0.107 C 
ATOM      7  C   UNL     1      35.203 -20.630 -20.094  0.00  0.00    +0.282 C 
ATOM      8  C   UNL     1      33.945 -23.640 -17.069  0.00  0.00    +0.018 C 
ATOM      9  C   UNL     1      33.408 -22.928 -18.147  0.00  0.00    +0.041 C 
ENDROOT
BRANCH   7  10
ATOM     10  C   UNL     1      35.200 -19.700 -21.197  0.00  0.00    +0.066 C 
ATOM     11  C   UNL     1      34.444 -19.087 -23.427  0.00  0.00    +0.000 C 
ATOM     12  C   UNL     1      35.193 -17.889 -23.344  0.00  0.00    +0.000 C 
ATOM     13  C   UNL     1      34.459 -19.983 -22.346  0.00  0.00    +0.006 C 
ATOM     14  C   UNL     1      35.935 -18.522 -21.115  0.00  0.00    +0.006 C 
ATOM     15  C   UNL     1      35.933 -17.621 -22.181  0.00  0.00    +0.000 C 
ATOM     16  C   UNL     1      33.704 -19.355 -24.590  0.00  0.00    +0.000 C 
ATOM     17  C   UNL     1      35.179 -16.994 -24.426  0.00  0.00    +0.000 C 
ATOM     18  C   UNL     1      33.702 -18.455 -25.655  0.00  0.00    +0.000 C 
ATOM     19  C   UNL     1      34.438 -17.277 -25.574  0.00  0.00    +0.000 C 
ENDBRANCH   7  10
BRANCH   3  20
ATOM     20  S   UNL     1      35.899 -24.395 -15.326  0.00  0.00    +0.005 S 
ATOM     21  O   UNL     1      35.181 -23.967 -14.134  0.00  0.00    -0.169 OA
ATOM     22  O   UNL     1      35.928 -25.805 -15.686  0.00  0.00    -0.169 OA
BRANCH  20  23
ATOM     23  C   UNL     1      37.588 -23.863 -15.169  0.00  0.00    +0.156 C 
ATOM     24  C   UNL     1      38.484 -24.989 -14.703  0.00  0.00    +0.028 C 
ENDBRANCH  20  23
ENDBRANCH   3  20
TORSDOF 3
ENDMDL
MODEL 5
REMARK VINA RESULT:      -9.8      4.797      9.754
REMARK  Name = 25109292
REMARK  3 active torsions:
REMARK  status: ('A' for Active; 'I' for Inactive)
REMARK    1  A    between atoms: C_3  and  S_20
REMARK    2  A    between atoms: C_7  and  C_10
REMARK    3  A    between atoms: S_20  and  C_23
REMARK                            x       y       z     vdW  Elec       q    Type
REMARK                         _______ _______ _______ _____ _____    ______ ____
ROOT
ATOM      1  O   UNL     1      36.013 -20.156 -20.239  0.00  0.00    -0.425 OA
ATOM      2  N   UNL     1      33.975 -20.848 -20.951  0.00  0.00    -0.368 NA
ATOM      3  C   UNL     1      34.685 -18.379 -23.665  0.00  0.00    +0.091 C 
ATOM      4  C   UNL     1      34.466 -19.901 -21.817  0.00  0.00    +0.153 C 
ATOM      5  C   UNL     1      35.712 -19.475 -21.384  0.00  0.00    +0.174 C 
ATOM      6  C   UNL     1      33.928 -19.345 -22.987  0.00  0.00    +0.107 C 
ATOM      7  C   UNL     1      34.925 -20.954 -20.048  0.00  0.00    +0.282 C 
ATOM      8  C   UNL     1      35.941 -17.976 -23.193  0.00  0.00    +0.018 C 
ATOM      9  C   UNL     1      36.491 -18.522 -22.029  0.00  0.00    +0.041 C 
ENDROOT
BRANCH   7  10
ATOM     10  C   UNL     1      34.983 -21.798 -18.880  0.00  0.00    +0.066 C 
ATOM     11  C   UNL     1      36.227 -22.687 -16.987  0.00  0.00    +0.000 C 
ATOM     12  C   UNL     1      35.092 -23.441 -16.604  0.00  0.00    +0.000 C 
ATOM     13  C   UNL     1      36.156 -21.871 -18.128  0.00  0.00    +0.006 C 
ATOM     14  C   UNL     1      33.867 -22.539 -18.503  0.00  0.00    +0.006 C 
ATOM     15  C   UNL     1      33.920 -23.357 -17.372  0.00  0.00    +0.000 C 
ATOM     16  C   UNL     1      37.399 -22.771 -16.219  0.00  0.00    +0.000 C 
ATOM     17  C   UNL     1      35.163 -24.257 -15.464  0.00  0.00    +0.000 C 
ATOM     18  C   UNL     1      37.452 -23.588 -15.089  0.00  0.00    +0.000 C 
ATOM     19  C   UNL     1      36.337 -24.329 -14.713  0.00  0.00    +0.000 C 
ENDBRANCH   7  10
BRANCH   3  20
ATOM     20  S   UNL     1      34.046 -17.664 -25.128  0.00  0.00    +0.005 S 
ATOM     21  O   UNL     1      35.100 -17.684 -26.131  0.00  0.00    -0.169 OA
ATOM     22  O   UNL     1      32.755 -18.269 -25.422  0.00  0.00    -0.169 OA
BRANCH  20  23
ATOM     23  C   UNL     1      33.739 -15.969 -24.690  0.00  0.00    +0.156 C 
ATOM     24  C   UNL     1      33.270 -15.164 -25.882  0.00  0.00    +0.028 C 
ENDBRANCH  20  23
ENDBRANCH   3  20
TORSDOF 3
ENDMDL
MODEL 6
REMARK VINA RESULT:      -9.7      1.094      1.547
REMARK  Name = 25109292
REMARK  3 active torsions:
REMARK  status: ('A' for Active; 'I' for Inactive)
REMARK    1  A    between atoms: C_3  and  S_20
REMARK    2  A    between atoms: C_7  and  C_10
REMARK    3  A    between atoms: S_20  and  C_23
REMARK                            x       y       z     vdW  Elec       q    Type
REMARK                         _______ _______ _______ _____ _____    ______ ____
ROOT
ATOM      1  O   UNL     1      36.888 -22.170 -17.664  0.00  0.00    -0.425 OA
ATOM      2  N   UNL     1      34.827 -22.914 -17.083  0.00  0.00    -0.368 NA
ATOM      3  C   UNL     1      36.763 -24.431 -14.270  0.00  0.00    +0.091 C 
ATOM      4  C   UNL     1      35.751 -23.357 -16.167  0.00  0.00    +0.153 C 
ATOM      5  C   UNL     1      37.013 -22.904 -16.520  0.00  0.00    +0.174 C 
ATOM      6  C   UNL     1      35.610 -24.143 -15.014  0.00  0.00    +0.107 C 
ATOM      7  C   UNL     1      35.553 -22.225 -17.935  0.00  0.00    +0.282 C 
ATOM      8  C   UNL     1      38.021 -23.954 -14.662  0.00  0.00    +0.018 C 
ATOM      9  C   UNL     1      38.177 -23.169 -15.809  0.00  0.00    +0.041 C 
ENDROOT
BRANCH   7  10
ATOM     10  C   UNL     1      35.139 -21.515 -19.121  0.00  0.00    +0.066 C 
ATOM     11  C   UNL     1      35.671 -20.042 -20.983  0.00  0.00    +0.000 C 
ATOM     12  C   UNL     1      34.332 -20.135 -21.430  0.00  0.00    +0.000 C 
ATOM     13  C   UNL     1      36.059 -20.738 -19.827  0.00  0.00    +0.006 C 
ATOM     14  C   UNL     1      33.823 -21.606 -19.561  0.00  0.00    +0.006 C 
ATOM     15  C   UNL     1      33.419 -20.921 -20.708  0.00  0.00    +0.000 C 
ATOM     16  C   UNL     1      36.584 -19.255 -21.705  0.00  0.00    +0.000 C 
ATOM     17  C   UNL     1      33.944 -19.439 -22.587  0.00  0.00    +0.000 C 
ATOM     18  C   UNL     1      36.181 -18.571 -22.852  0.00  0.00    +0.000 C 
ATOM     19  C   UNL     1      34.864 -18.662 -23.291  0.00  0.00    +0.000 C 
ENDBRANCH   7  10
BRANCH   3  20
ATOM     20  S   UNL     1      36.627 -25.408 -12.825  0.00  0.00    +0.005 S 
ATOM     21  O   UNL     1      35.263 -25.287 -12.333  0.00  0.00    -0.169 OA
ATOM     22  O   UNL     1      37.186 -26.725 -13.094  0.00  0.00    -0.169 OA
BRANCH  20  23
ATOM     23  C   UNL     1      37.704 -24.614 -11.655  0.00  0.00    +0.156 C 
ATOM     24  C   UNL     1      37.202 -23.236 -11.285  0.00  0.00    +0.028 C 
ENDBRANCH  20  23
ENDBRANCH   3  20
TORSDOF 3
ENDMDL
MODEL 7
REMARK VINA RESULT:      -9.6      2.188      3.449
REMARK  Name = 25109292
REMARK  3 active torsions:
REMARK  status: ('A' for Active; 'I' for Inactive)
REMARK    1  A    between atoms: C_3  and  S_20
REMARK    2  A    between atoms: C_7  and  C_10
REMARK    3  A    between atoms: S_20  and  C_23
REMARK                            x       y       z     vdW  Elec       q    Type
REMARK                         _______ _______ _______ _____ _____    ______ ____
ROOT
ATOM      1  O   UNL     1      34.310 -21.304 -19.830  0.00  0.00    -0.425 OA
ATOM      2  N   UNL     1      36.498 -20.812 -19.501  0.00  0.00    -0.368 NA
ATOM      3  C   UNL     1      36.052 -23.207 -16.668  0.00  0.00    +0.091 C 
ATOM      4  C   UNL     1      36.081 -21.709 -18.548  0.00  0.00    +0.153 C 
ATOM      5  C   UNL     1      34.743 -22.012 -18.746  0.00  0.00    +0.174 C 
ATOM      6  C   UNL     1      36.764 -22.317 -17.484  0.00  0.00    +0.107 C 
ATOM      7  C   UNL     1      35.417 -20.613 -20.222  0.00  0.00    +0.282 C 
ATOM      8  C   UNL     1      34.699 -23.486 -16.902  0.00  0.00    +0.018 C 
ATOM      9  C   UNL     1      34.005 -22.889 -17.960  0.00  0.00    +0.041 C 
ENDROOT
BRANCH   7  10
ATOM     10  C   UNL     1      35.232 -19.764 -21.375  0.00  0.00    +0.066 C 
ATOM     11  C   UNL     1      35.059 -17.538 -22.340  0.00  0.00    +0.000 C 
ATOM     12  C   UNL     1      34.874 -18.115 -23.619  0.00  0.00    +0.000 C 
ATOM     13  C   UNL     1      35.237 -18.376 -21.228  0.00  0.00    +0.006 C 
ATOM     14  C   UNL     1      35.051 -20.331 -22.632  0.00  0.00    +0.006 C 
ATOM     15  C   UNL     1      34.872 -19.513 -23.749  0.00  0.00    +0.000 C 
ATOM     16  C   UNL     1      35.061 -16.139 -22.211  0.00  0.00    +0.000 C 
ATOM     17  C   UNL     1      34.697 -17.276 -24.732  0.00  0.00    +0.000 C 
ATOM     18  C   UNL     1      34.883 -15.322 -23.327  0.00  0.00    +0.000 C 
ATOM     19  C   UNL     1      34.701 -15.889 -24.584  0.00  0.00    +0.000 C 
ENDBRANCH   7  10
BRANCH   3  20
ATOM     20  S   UNL     1      36.871 -23.984 -15.332  0.00  0.00    +0.005 S 
ATOM     21  O   UNL     1      36.585 -25.409 -15.402  0.00  0.00    -0.169 OA
ATOM     22  O   UNL     1      38.251 -23.523 -15.294  0.00  0.00    -0.169 OA
BRANCH  20  23
ATOM     23  C   UNL     1      36.065 -23.334 -13.886  0.00  0.00    +0.156 C 
ATOM     24  C   UNL     1      35.135 -24.353 -13.265  0.00  0.00    +0.028 C 
ENDBRANCH  20  23
ENDBRANCH   3  20
TORSDOF 3
ENDMDL
MODEL 8
REMARK VINA RESULT:      -9.6      9.692     13.624
REMARK  Name = 25109292
REMARK  3 active torsions:
REMARK  status: ('A' for Active; 'I' for Inactive)
REMARK    1  A    between atoms: C_3  and  S_20
REMARK    2  A    between atoms: C_7  and  C_10
REMARK    3  A    between atoms: S_20  and  C_23
REMARK                            x       y       z     vdW  Elec       q    Type
REMARK                         _______ _______ _______ _____ _____    ______ ____
ROOT
ATOM      1  O   UNL     1      34.222 -12.472 -23.009  0.00  0.00    -0.425 OA
ATOM      2  N   UNL     1      33.301 -12.529 -25.080  0.00  0.00    -0.368 NA
ATOM      3  C   UNL     1      33.889 -16.194 -24.648  0.00  0.00    +0.091 C 
ATOM      4  C   UNL     1      33.617 -13.806 -24.682  0.00  0.00    +0.153 C 
ATOM      5  C   UNL     1      34.180 -13.775 -23.415  0.00  0.00    +0.174 C 
ATOM      6  C   UNL     1      33.462 -15.043 -25.325  0.00  0.00    +0.107 C 
ATOM      7  C   UNL     1      33.679 -11.792 -24.058  0.00  0.00    +0.282 C 
ATOM      8  C   UNL     1      34.454 -16.119 -23.368  0.00  0.00    +0.018 C 
ATOM      9  C   UNL     1      34.614 -14.893 -22.714  0.00  0.00    +0.041 C 
ENDROOT
BRANCH   7  10
ATOM     10  C   UNL     1      33.602 -10.362 -23.887  0.00  0.00    +0.066 C 
ATOM     11  C   UNL     1      32.299  -8.374 -23.368  0.00  0.00    +0.000 C 
ATOM     12  C   UNL     1      33.454  -7.577 -23.553  0.00  0.00    +0.000 C 
ATOM     13  C   UNL     1      32.389  -9.764 -23.539  0.00  0.00    +0.006 C 
ATOM     14  C   UNL     1      34.737  -9.579 -24.068  0.00  0.00    +0.006 C 
ATOM     15  C   UNL     1      34.666  -8.194 -23.903  0.00  0.00    +0.000 C 
ATOM     16  C   UNL     1      31.087  -7.756 -23.018  0.00  0.00    +0.000 C 
ATOM     17  C   UNL     1      33.363  -6.186 -23.382  0.00  0.00    +0.000 C 
ATOM     18  C   UNL     1      31.015  -6.373 -22.853  0.00  0.00    +0.000 C 
ATOM     19  C   UNL     1      32.151  -5.590 -23.035  0.00  0.00    +0.000 C 
ENDBRANCH   7  10
BRANCH   3  20
ATOM     20  S   UNL     1      33.712 -17.755 -25.418  0.00  0.00    +0.005 S 
ATOM     21  O   UNL     1      32.369 -17.826 -25.976  0.00  0.00    -0.169 OA
ATOM     22  O   UNL     1      34.864 -17.989 -26.275  0.00  0.00    -0.169 OA
BRANCH  20  23
ATOM     23  C   UNL     1      33.812 -18.919 -24.079  0.00  0.00    +0.156 C 
ATOM     24  C   UNL     1      35.238 -19.360 -23.833  0.00  0.00    +0.028 C 
ENDBRANCH  20  23
ENDBRANCH   3  20
TORSDOF 3
ENDMDL
MODEL 9
REMARK VINA RESULT:      -9.5      2.101      3.677
REMARK  Name = 25109292
REMARK  3 active torsions:
REMARK  status: ('A' for Active; 'I' for Inactive)
REMARK    1  A    between atoms: C_3  and  S_20
REMARK    2  A    between atoms: C_7  and  C_10
REMARK    3  A    between atoms: S_20  and  C_23
REMARK                            x       y       z     vdW  Elec       q    Type
REMARK                         _______ _______ _______ _____ _____    ______ ____
ROOT
ATOM      1  O   UNL     1      36.633 -20.776 -19.204  0.00  0.00    -0.425 OA
ATOM      2  N   UNL     1      34.525 -21.583 -19.419  0.00  0.00    -0.368 NA
ATOM      3  C   UNL     1      35.546 -23.535 -16.400  0.00  0.00    +0.091 C 
ATOM      4  C   UNL     1      35.134 -22.171 -18.336  0.00  0.00    +0.153 C 
ATOM      5  C   UNL     1      36.423 -21.680 -18.202  0.00  0.00    +0.174 C 
ATOM      6  C   UNL     1      34.672 -23.124 -17.417  0.00  0.00    +0.107 C 
ATOM      7  C   UNL     1      35.453 -20.776 -19.886  0.00  0.00    +0.282 C 
ATOM      8  C   UNL     1      36.842 -23.014 -16.300  0.00  0.00    +0.018 C 
ATOM      9  C   UNL     1      37.317 -22.062 -17.209  0.00  0.00    +0.041 C 
ENDROOT
BRANCH   7  10
ATOM     10  C   UNL     1      35.401 -19.888 -21.021  0.00  0.00    +0.066 C 
ATOM     11  C   UNL     1      34.489 -19.313 -23.202  0.00  0.00    +0.000 C 
ATOM     12  C   UNL     1      35.302 -18.155 -23.229  0.00  0.00    +0.000 C 
ATOM     13  C   UNL     1      34.551 -20.169 -22.091  0.00  0.00    +0.006 C 
ATOM     14  C   UNL     1      36.200 -18.749 -21.048  0.00  0.00    +0.006 C 
ATOM     15  C   UNL     1      36.153 -17.887 -22.145  0.00  0.00    +0.000 C 
ATOM     16  C   UNL     1      33.638 -19.581 -24.287  0.00  0.00    +0.000 C 
ATOM     17  C   UNL     1      35.240 -17.299 -24.341  0.00  0.00    +0.000 C 
ATOM     18  C   UNL     1      33.591 -18.720 -25.383  0.00  0.00    +0.000 C 
ATOM     19  C   UNL     1      34.390 -17.582 -25.410  0.00  0.00    +0.000 C 
ENDBRANCH   7  10
BRANCH   3  20
ATOM     20  S   UNL     1      35.004 -24.723 -15.235  0.00  0.00    +0.005 S 
ATOM     21  O   UNL     1      33.580 -24.515 -15.017  0.00  0.00    -0.169 OA
ATOM     22  O   UNL     1      35.491 -26.033 -15.639  0.00  0.00    -0.169 OA
BRANCH  20  23
ATOM     23  C   UNL     1      35.858 -24.289 -13.737  0.00  0.00    +0.156 C 
ATOM     24  C   UNL     1      36.868 -25.346 -13.349  0.00  0.00    +0.028 C 
ENDBRANCH  20  23
ENDBRANCH   3  20
TORSDOF 3
ENDMDL
