MODEL 1
REMARK VINA RESULT:     -12.2      0.000      0.000
REMARK  Name = 11974440
REMARK  4 active torsions:
REMARK  status: ('A' for Active; 'I' for Inactive)
REMARK    1  A    between atoms: C_1  and  C_25
REMARK    2  A    between atoms: C_2  and  N_31
REMARK    3  A    between atoms: C_5  and  C_12
REMARK    4  A    between atoms: C_17  and  C_21
REMARK                            x       y       z     vdW  Elec       q    Type
REMARK                         _______ _______ _______ _____ _____    ______ ____
ROOT
ATOM      1  C   UNL     1      34.696 -20.117 -20.412  0.00  0.00    +0.009 C 
ATOM      2  C   UNL     1      35.746 -21.249 -20.270  0.00  0.00    -0.057 C 
ATOM      3  C   UNL     1      35.567 -21.987 -18.928  0.00  0.00    +0.009 C 
ATOM      4  C   UNL     1      33.263 -20.693 -20.323  0.00  0.00    +0.028 C 
ATOM      5  C   UNL     1      34.132 -22.297 -18.623  0.00  0.00    +0.025 C 
ATOM      6  C   UNL     1      33.094 -21.730 -19.251  0.00  0.00    -0.026 C 
ENDROOT
BRANCH   5  12
ATOM      7  O   UNL     1      32.842 -24.012 -17.733  0.00  0.00    -0.270 OA
ATOM      8  N   UNL     1      34.708 -23.382 -16.497  0.00  0.00    -0.267 N 
ATOM      9  N   UNL     1      36.946 -24.486 -15.328  0.00  0.00    -0.292 N 
ATOM     10  N   UNL     1      35.901 -26.065 -14.244  0.00  0.00    -0.132 NA
ATOM     11  N   UNL     1      37.265 -26.240 -14.083  0.00  0.00    -0.125 NA
ATOM     12  C   UNL     1      33.836 -23.300 -17.580  0.00  0.00    +0.245 C 
ATOM     13  C   UNL     1      35.863 -22.498 -16.243  0.00  0.00    +0.119 C 
ATOM     14  C   UNL     1      34.448 -24.379 -15.447  0.00  0.00    +0.160 C 
ATOM     15  C   UNL     1      37.143 -23.327 -16.171  0.00  0.00    +0.130 C 
ATOM     16  C   UNL     1      35.721 -25.002 -15.000  0.00  0.00    +0.164 A 
ATOM     17  C   UNL     1      37.874 -25.280 -14.743  0.00  0.00    +0.238 A 
BRANCH  17  21
ATOM     18  F   UNL     1      40.007 -26.120 -15.429  0.00  0.00    -0.163 F 
ATOM     19  F   UNL     1      39.678 -23.986 -15.633  0.00  0.00    -0.163 F 
ATOM     20  F   UNL     1      39.948 -24.858 -13.659  0.00  0.00    -0.163 F 
ATOM     21  C   UNL     1      39.327 -25.069 -14.865  0.00  0.00    +0.452 C 
ENDBRANCH  17  21
ENDBRANCH   5  12
BRANCH   1  25
ATOM     22  F   UNL     1      35.681 -17.456 -20.414  0.00  0.00    -0.204 F 
ATOM     23  F   UNL     1      34.290 -19.590 -25.254  0.00  0.00    -0.202 F 
ATOM     24  F   UNL     1      35.255 -17.037 -25.108  0.00  0.00    -0.202 F 
ATOM     25  C   UNL     1      34.849 -19.285 -21.677  0.00  0.00    +0.006 C 
ATOM     26  C   UNL     1      35.340 -17.986 -21.597  0.00  0.00    +0.138 C 
ATOM     27  C   UNL     1      34.493 -19.831 -22.906  0.00  0.00    +0.030 C 
ATOM     28  C   UNL     1      34.631 -19.071 -24.067  0.00  0.00    +0.167 C 
ATOM     29  C   UNL     1      35.479 -17.226 -22.757  0.00  0.00    +0.061 C 
ATOM     30  C   UNL     1      35.124 -17.768 -23.993  0.00  0.00    +0.170 C 
ENDBRANCH   1  25
BRANCH   2  31
ATOM     31  N   UNL     1      37.113 -20.726 -20.356  0.00  0.00    +0.382 N 
ATOM     32  H   UNL     1      37.773 -21.456 -20.085  0.00  0.00    -0.089 HD
ATOM     33  H   UNL     1      37.212 -19.929 -19.728  0.00  0.00    -0.089 HD
ATOM     34  H   UNL     1      37.305 -20.433 -21.314  0.00  0.00    -0.089 HD
ENDBRANCH   2  31
TORSDOF 4
ENDMDL
MODEL 2
REMARK VINA RESULT:     -11.8      3.650      4.437
REMARK  Name = 11974440
REMARK  4 active torsions:
REMARK  status: ('A' for Active; 'I' for Inactive)
REMARK    1  A    between atoms: C_1  and  C_25
REMARK    2  A    between atoms: C_2  and  N_31
REMARK    3  A    between atoms: C_5  and  C_12
REMARK    4  A    between atoms: C_17  and  C_21
REMARK                            x       y       z     vdW  Elec       q    Type
REMARK                         _______ _______ _______ _____ _____    ______ ____
ROOT
ATOM      1  C   UNL     1      35.184 -20.469 -21.286  0.00  0.00    +0.009 C 
ATOM      2  C   UNL     1      34.038 -20.474 -20.241  0.00  0.00    -0.057 C 
ATOM      3  C   UNL     1      34.236 -21.620 -19.228  0.00  0.00    +0.009 C 
ATOM      4  C   UNL     1      36.555 -20.314 -20.586  0.00  0.00    +0.028 C 
ATOM      5  C   UNL     1      35.650 -21.728 -18.742  0.00  0.00    +0.025 C 
ATOM      6  C   UNL     1      36.693 -21.137 -19.339  0.00  0.00    -0.026 C 
ENDROOT
BRANCH   5  12
ATOM      7  O   UNL     1      36.994 -22.350 -16.953  0.00  0.00    -0.270 OA
ATOM      8  N   UNL     1      34.923 -23.395 -17.093  0.00  0.00    -0.267 N 
ATOM      9  N   UNL     1      32.688 -23.883 -15.556  0.00  0.00    -0.292 N 
ATOM     10  N   UNL     1      33.750 -24.685 -13.828  0.00  0.00    -0.132 NA
ATOM     11  N   UNL     1      32.406 -24.580 -13.516  0.00  0.00    -0.125 NA
ATOM     12  C   UNL     1      35.915 -22.519 -17.523  0.00  0.00    +0.245 C 
ATOM     13  C   UNL     1      33.652 -23.679 -17.790  0.00  0.00    +0.119 C 
ATOM     14  C   UNL     1      35.152 -24.188 -15.875  0.00  0.00    +0.160 C 
ATOM     15  C   UNL     1      32.475 -23.338 -16.879  0.00  0.00    +0.130 C 
ATOM     16  C   UNL     1      33.908 -24.258 -15.063  0.00  0.00    +0.164 A 
ATOM     17  C   UNL     1      31.786 -24.095 -14.568  0.00  0.00    +0.238 A 
BRANCH  17  21
ATOM     18  F   UNL     1      30.038 -22.466 -14.694  0.00  0.00    -0.163 F 
ATOM     19  F   UNL     1      29.774 -24.283 -15.849  0.00  0.00    -0.163 F 
ATOM     20  F   UNL     1      29.592 -24.339 -13.683  0.00  0.00    -0.163 F 
ATOM     21  C   UNL     1      30.347 -23.804 -14.696  0.00  0.00    +0.452 C 
ENDBRANCH  17  21
ENDBRANCH   5  12
BRANCH   1  25
ATOM     22  F   UNL     1      35.646 -17.704 -20.850  0.00  0.00    -0.204 F 
ATOM     23  F   UNL     1      34.117 -19.201 -25.883  0.00  0.00    -0.202 F 
ATOM     24  F   UNL     1      34.596 -16.569 -25.322  0.00  0.00    -0.202 F 
ATOM     25  C   UNL     1      35.027 -19.416 -22.372  0.00  0.00    +0.006 C 
ATOM     26  C   UNL     1      35.273 -18.078 -22.082  0.00  0.00    +0.138 C 
ATOM     27  C   UNL     1      34.637 -19.801 -23.652  0.00  0.00    +0.030 C 
ATOM     28  C   UNL     1      34.492 -18.837 -24.649  0.00  0.00    +0.167 C 
ATOM     29  C   UNL     1      35.128 -17.115 -23.079  0.00  0.00    +0.061 C 
ATOM     30  C   UNL     1      34.738 -17.495 -24.364  0.00  0.00    +0.170 C 
ENDBRANCH   1  25
BRANCH   2  31
ATOM     31  N   UNL     1      32.728 -20.616 -20.883  0.00  0.00    +0.382 N 
ATOM     32  H   UNL     1      32.846 -20.635 -21.896  0.00  0.00    -0.089 HD
ATOM     33  H   UNL     1      32.135 -19.828 -20.624  0.00  0.00    -0.089 HD
ATOM     34  H   UNL     1      32.291 -21.486 -20.576  0.00  0.00    -0.089 HD
ENDBRANCH   2  31
TORSDOF 4
ENDMDL
MODEL 3
REMARK VINA RESULT:     -11.7      3.830      4.492
REMARK  Name = 11974440
REMARK  4 active torsions:
REMARK  status: ('A' for Active; 'I' for Inactive)
REMARK    1  A    between atoms: C_1  and  C_25
REMARK    2  A    between atoms: C_2  and  N_31
REMARK    3  A    between atoms: C_5  and  C_12
REMARK    4  A    between atoms: C_17  and  C_21
REMARK                            x       y       z     vdW  Elec       q    Type
REMARK                         _______ _______ _______ _____ _____    ______ ____
ROOT
ATOM      1  C   UNL     1      35.290 -19.346 -21.212  0.00  0.00    +0.009 C 
ATOM      2  C   UNL     1      36.680 -20.027 -21.115  0.00  0.00    -0.057 C 
ATOM      3  C   UNL     1      36.905 -20.598 -19.700  0.00  0.00    +0.009 C 
ATOM      4  C   UNL     1      34.167 -20.355 -20.873  0.00  0.00    +0.028 C 
ATOM      5  C   UNL     1      35.709 -21.331 -19.172  0.00  0.00    +0.025 C 
ATOM      6  C   UNL     1      34.481 -21.236 -19.699  0.00  0.00    -0.026 C 
ENDROOT
BRANCH   5  12
ATOM      7  O   UNL     1      36.961 -22.172 -17.405  0.00  0.00    -0.270 OA
ATOM      8  N   UNL     1      34.833 -23.068 -17.676  0.00  0.00    -0.267 N 
ATOM      9  N   UNL     1      32.529 -23.527 -16.235  0.00  0.00    -0.292 N 
ATOM     10  N   UNL     1      33.489 -24.525 -14.549  0.00  0.00    -0.132 NA
ATOM     11  N   UNL     1      32.145 -24.358 -14.262  0.00  0.00    -0.125 NA
ATOM     12  C   UNL     1      35.890 -22.227 -18.012  0.00  0.00    +0.245 C 
ATOM     13  C   UNL     1      33.568 -23.217 -18.423  0.00  0.00    +0.119 C 
ATOM     14  C   UNL     1      34.977 -23.964 -16.518  0.00  0.00    +0.160 C 
ATOM     15  C   UNL     1      32.388 -22.871 -17.517  0.00  0.00    +0.130 C 
ATOM     16  C   UNL     1      33.709 -24.016 -15.744  0.00  0.00    +0.164 A 
ATOM     17  C   UNL     1      31.587 -23.756 -15.289  0.00  0.00    +0.238 A 
BRANCH  17  21
ATOM     18  F   UNL     1      29.847 -22.852 -16.659  0.00  0.00    -0.163 F 
ATOM     19  F   UNL     1      29.282 -24.391 -15.241  0.00  0.00    -0.163 F 
ATOM     20  F   UNL     1      29.786 -22.398 -14.534  0.00  0.00    -0.163 F 
ATOM     21  C   UNL     1      30.174 -23.364 -15.428  0.00  0.00    +0.452 C 
ENDBRANCH  17  21
ENDBRANCH   5  12
BRANCH   1  25
ATOM     22  F   UNL     1      35.554 -16.557 -21.659  0.00  0.00    -0.204 F 
ATOM     23  F   UNL     1      33.965 -19.611 -25.908  0.00  0.00    -0.202 F 
ATOM     24  F   UNL     1      34.261 -16.909 -26.197  0.00  0.00    -0.202 F 
ATOM     25  C   UNL     1      35.015 -18.687 -22.555  0.00  0.00    +0.006 C 
ATOM     26  C   UNL     1      35.167 -17.312 -22.696  0.00  0.00    +0.138 C 
ATOM     27  C   UNL     1      34.610 -19.467 -23.633  0.00  0.00    +0.030 C 
ATOM     28  C   UNL     1      34.356 -18.866 -24.866  0.00  0.00    +0.167 C 
ATOM     29  C   UNL     1      34.913 -16.710 -23.928  0.00  0.00    +0.061 C 
ATOM     30  C   UNL     1      34.508 -17.487 -25.013  0.00  0.00    +0.170 C 
ENDBRANCH   1  25
BRANCH   2  31
ATOM     31  N   UNL     1      37.760 -19.090 -21.437  0.00  0.00    +0.382 N 
ATOM     32  H   UNL     1      38.617 -19.386 -20.969  0.00  0.00    -0.089 HD
ATOM     33  H   UNL     1      37.505 -18.156 -21.119  0.00  0.00    -0.089 HD
ATOM     34  H   UNL     1      37.911 -19.078 -22.446  0.00  0.00    -0.089 HD
ENDBRANCH   2  31
TORSDOF 4
ENDMDL
MODEL 4
REMARK VINA RESULT:     -11.3      1.584      2.058
REMARK  Name = 11974440
REMARK  4 active torsions:
REMARK  status: ('A' for Active; 'I' for Inactive)
REMARK    1  A    between atoms: C_1  and  C_25
REMARK    2  A    between atoms: C_2  and  N_31
REMARK    3  A    between atoms: C_5  and  C_12
REMARK    4  A    between atoms: C_17  and  C_21
REMARK                            x       y       z     vdW  Elec       q    Type
REMARK                         _______ _______ _______ _____ _____    ______ ____
ROOT
ATOM      1  C   UNL     1      35.117 -21.544 -19.856  0.00  0.00    +0.009 C 
ATOM      2  C   UNL     1      33.706 -21.531 -19.212  0.00  0.00    -0.057 C 
ATOM      3  C   UNL     1      33.549 -22.710 -18.230  0.00  0.00    +0.009 C 
ATOM      4  C   UNL     1      36.212 -21.465 -18.767  0.00  0.00    +0.028 C 
ATOM      5  C   UNL     1      34.743 -22.889 -17.341  0.00  0.00    +0.025 C 
ATOM      6  C   UNL     1      35.936 -22.325 -17.568  0.00  0.00    -0.026 C 
ENDROOT
BRANCH   5  12
ATOM      7  O   UNL     1      33.531 -24.316 -15.966  0.00  0.00    -0.270 OA
ATOM      8  N   UNL     1      35.681 -23.787 -15.259  0.00  0.00    -0.267 N 
ATOM      9  N   UNL     1      38.010 -25.021 -14.453  0.00  0.00    -0.292 N 
ATOM     10  N   UNL     1      37.094 -26.323 -12.962  0.00  0.00    -0.132 NA
ATOM     11  N   UNL     1      38.435 -26.648 -13.074  0.00  0.00    -0.125 NA
ATOM     12  C   UNL     1      34.598 -23.721 -16.130  0.00  0.00    +0.245 C 
ATOM     13  C   UNL     1      36.943 -23.030 -15.382  0.00  0.00    +0.119 C 
ATOM     14  C   UNL     1      35.573 -24.618 -14.049  0.00  0.00    +0.160 C 
ATOM     15  C   UNL     1      38.120 -23.999 -15.471  0.00  0.00    +0.130 C 
ATOM     16  C   UNL     1      36.849 -25.340 -13.803  0.00  0.00    +0.164 A 
ATOM     17  C   UNL     1      38.966 -25.853 -13.976  0.00  0.00    +0.238 A 
BRANCH  17  21
ATOM     18  F   UNL     1      41.141 -26.848 -13.916  0.00  0.00    -0.163 F 
ATOM     19  F   UNL     1      40.518 -25.959 -15.793  0.00  0.00    -0.163 F 
ATOM     20  F   UNL     1      41.034 -24.685 -14.109  0.00  0.00    -0.163 F 
ATOM     21  C   UNL     1      40.367 -25.840 -14.434  0.00  0.00    +0.452 C 
ENDBRANCH  17  21
ENDBRANCH   5  12
BRANCH   1  25
ATOM     22  F   UNL     1      37.409 -19.873 -19.908  0.00  0.00    -0.204 F 
ATOM     23  F   UNL     1      33.648 -19.048 -23.792  0.00  0.00    -0.202 F 
ATOM     24  F   UNL     1      35.907 -17.511 -23.723  0.00  0.00    -0.202 F 
ATOM     25  C   UNL     1      35.333 -20.457 -20.898  0.00  0.00    +0.006 C 
ATOM     26  C   UNL     1      36.484 -19.678 -20.858  0.00  0.00    +0.138 C 
ATOM     27  C   UNL     1      34.373 -20.250 -21.885  0.00  0.00    +0.030 C 
ATOM     28  C   UNL     1      34.569 -19.254 -22.841  0.00  0.00    +0.167 C 
ATOM     29  C   UNL     1      36.680 -18.682 -21.814  0.00  0.00    +0.061 C 
ATOM     30  C   UNL     1      35.721 -18.470 -22.806  0.00  0.00    +0.170 C 
ENDBRANCH   1  25
BRANCH   2  31
ATOM     31  N   UNL     1      32.652 -21.602 -20.227  0.00  0.00    +0.382 N 
ATOM     32  H   UNL     1      33.076 -21.677 -21.152  0.00  0.00    -0.089 HD
ATOM     33  H   UNL     1      32.080 -20.759 -20.183  0.00  0.00    -0.089 HD
ATOM     34  H   UNL     1      32.068 -22.420 -20.054  0.00  0.00    -0.089 HD
ENDBRANCH   2  31
TORSDOF 4
ENDMDL
MODEL 5
REMARK VINA RESULT:     -11.3     10.705     16.398
REMARK  Name = 11974440
REMARK  4 active torsions:
REMARK  status: ('A' for Active; 'I' for Inactive)
REMARK    1  A    between atoms: C_1  and  C_25
REMARK    2  A    between atoms: C_2  and  N_31
REMARK    3  A    between atoms: C_5  and  C_12
REMARK    4  A    between atoms: C_17  and  C_21
REMARK                            x       y       z     vdW  Elec       q    Type
REMARK                         _______ _______ _______ _____ _____    ______ ____
ROOT
ATOM      1  C   UNL     1      32.928 -12.085 -23.445  0.00  0.00    +0.009 C 
ATOM      2  C   UNL     1      34.017 -10.981 -23.442  0.00  0.00    -0.057 C 
ATOM      3  C   UNL     1      33.375  -9.589 -23.268  0.00  0.00    +0.009 C 
ATOM      4  C   UNL     1      32.114 -12.048 -22.130  0.00  0.00    +0.028 C 
ATOM      5  C   UNL     1      32.324  -9.564 -22.200  0.00  0.00    +0.025 C 
ATOM      6  C   UNL     1      31.762 -10.661 -21.677  0.00  0.00    -0.026 C 
ENDROOT
BRANCH   5  12
ATOM      7  O   UNL     1      31.970  -8.067 -20.459  0.00  0.00    -0.270 OA
ATOM      8  N   UNL     1      31.423  -7.314 -22.589  0.00  0.00    -0.267 N 
ATOM      9  N   UNL     1      31.924  -5.196 -24.281  0.00  0.00    -0.292 N 
ATOM     10  N   UNL     1      31.448  -3.621 -22.849  0.00  0.00    -0.132 NA
ATOM     11  N   UNL     1      31.939  -3.040 -24.005  0.00  0.00    -0.125 NA
ATOM     12  C   UNL     1      31.888  -8.254 -21.674  0.00  0.00    +0.245 C 
ATOM     13  C   UNL     1      31.240  -7.528 -24.039  0.00  0.00    +0.119 C 
ATOM     14  C   UNL     1      30.993  -5.995 -22.099  0.00  0.00    +0.160 C 
ATOM     15  C   UNL     1      32.089  -6.528 -24.821  0.00  0.00    +0.130 C 
ATOM     16  C   UNL     1      31.446  -4.926 -23.028  0.00  0.00    +0.164 A 
ATOM     17  C   UNL     1      32.219  -4.005 -24.852  0.00  0.00    +0.238 A 
BRANCH  17  21
ATOM     18  F   UNL     1      33.064  -5.051 -26.831  0.00  0.00    -0.163 F 
ATOM     19  F   UNL     1      31.950  -3.209 -27.092  0.00  0.00    -0.163 F 
ATOM     20  F   UNL     1      33.952  -3.156 -26.243  0.00  0.00    -0.163 F 
ATOM     21  C   UNL     1      32.775  -3.862 -26.209  0.00  0.00    +0.452 C 
ENDBRANCH  17  21
ENDBRANCH   5  12
BRANCH   1  25
ATOM     22  F   UNL     1      32.542 -13.500 -25.874  0.00  0.00    -0.204 F 
ATOM     23  F   UNL     1      35.374 -16.041 -21.946  0.00  0.00    -0.202 F 
ATOM     24  F   UNL     1      34.927 -17.286 -24.338  0.00  0.00    -0.202 F 
ATOM     25  C   UNL     1      33.467 -13.487 -23.689  0.00  0.00    +0.006 C 
ATOM     26  C   UNL     1      33.237 -14.116 -24.908  0.00  0.00    +0.138 C 
ATOM     27  C   UNL     1      34.186 -14.130 -22.687  0.00  0.00    +0.030 C 
ATOM     28  C   UNL     1      34.681 -15.415 -22.907  0.00  0.00    +0.167 C 
ATOM     29  C   UNL     1      33.732 -15.401 -25.128  0.00  0.00    +0.061 C 
ATOM     30  C   UNL     1      34.454 -16.051 -24.127  0.00  0.00    +0.170 C 
ENDBRANCH   1  25
BRANCH   2  31
ATOM     31  N   UNL     1      34.804 -11.000 -24.678  0.00  0.00    +0.382 N 
ATOM     32  H   UNL     1      34.183 -10.870 -25.478  0.00  0.00    -0.089 HD
ATOM     33  H   UNL     1      35.283 -11.896 -24.762  0.00  0.00    -0.089 HD
ATOM     34  H   UNL     1      35.491 -10.246 -24.656  0.00  0.00    -0.089 HD
ENDBRANCH   2  31
TORSDOF 4
ENDMDL
MODEL 6
REMARK VINA RESULT:     -11.1     10.650     16.276
REMARK  Name = 11974440
REMARK  4 active torsions:
REMARK  status: ('A' for Active; 'I' for Inactive)
REMARK    1  A    between atoms: C_1  and  C_25
REMARK    2  A    between atoms: C_2  and  N_31
REMARK    3  A    between atoms: C_5  and  C_12
REMARK    4  A    between atoms: C_17  and  C_21
REMARK                            x       y       z     vdW  Elec       q    Type
REMARK                         _______ _______ _______ _____ _____    ______ ____
ROOT
ATOM      1  C   UNL     1      32.935 -12.151 -23.530  0.00  0.00    +0.009 C 
ATOM      2  C   UNL     1      34.036 -11.060 -23.488  0.00  0.00    -0.057 C 
ATOM      3  C   UNL     1      33.409  -9.666 -23.277  0.00  0.00    +0.009 C 
ATOM      4  C   UNL     1      32.114 -12.142 -22.219  0.00  0.00    +0.028 C 
ATOM      5  C   UNL     1      32.352  -9.660 -22.214  0.00  0.00    +0.025 C 
ATOM      6  C   UNL     1      31.775 -10.766 -21.727  0.00  0.00    -0.026 C 
ENDROOT
BRANCH   5  12
ATOM      7  O   UNL     1      32.038  -8.198 -20.436  0.00  0.00    -0.270 OA
ATOM      8  N   UNL     1      31.443  -7.403 -22.538  0.00  0.00    -0.267 N 
ATOM      9  N   UNL     1      31.904  -5.252 -24.198  0.00  0.00    -0.292 N 
ATOM     10  N   UNL     1      31.460  -3.706 -22.724  0.00  0.00    -0.132 NA
ATOM     11  N   UNL     1      31.925  -3.101 -23.880  0.00  0.00    -0.125 NA
ATOM     12  C   UNL     1      31.928  -8.361 -21.653  0.00  0.00    +0.245 C 
ATOM     13  C   UNL     1      31.226  -7.589 -23.987  0.00  0.00    +0.119 C 
ATOM     14  C   UNL     1      31.024  -6.095 -22.012  0.00  0.00    +0.160 C 
ATOM     15  C   UNL     1      32.057  -6.573 -24.768  0.00  0.00    +0.130 C 
ATOM     16  C   UNL     1      31.455  -5.007 -22.929  0.00  0.00    +0.164 A 
ATOM     17  C   UNL     1      32.186  -4.049 -24.752  0.00  0.00    +0.238 A 
BRANCH  17  21
ATOM     18  F   UNL     1      33.032  -5.054 -26.752  0.00  0.00    -0.163 F 
ATOM     19  F   UNL     1      31.846  -3.253 -26.982  0.00  0.00    -0.163 F 
ATOM     20  F   UNL     1      33.859  -3.129 -26.170  0.00  0.00    -0.163 F 
ATOM     21  C   UNL     1      32.711  -3.879 -26.118  0.00  0.00    +0.452 C 
ENDBRANCH  17  21
ENDBRANCH   5  12
BRANCH   1  25
ATOM     22  F   UNL     1      34.588 -13.585 -21.724  0.00  0.00    -0.204 F 
ATOM     23  F   UNL     1      33.295 -16.075 -26.419  0.00  0.00    -0.202 F 
ATOM     24  F   UNL     1      34.880 -17.342 -24.586  0.00  0.00    -0.202 F 
ATOM     25  C   UNL     1      33.460 -13.550 -23.812  0.00  0.00    +0.006 C 
ATOM     26  C   UNL     1      34.265 -14.190 -22.876  0.00  0.00    +0.138 C 
ATOM     27  C   UNL     1      33.129 -14.180 -25.008  0.00  0.00    +0.030 C 
ATOM     28  C   UNL     1      33.609 -15.463 -25.269  0.00  0.00    +0.167 C 
ATOM     29  C   UNL     1      34.745 -15.473 -23.137  0.00  0.00    +0.061 C 
ATOM     30  C   UNL     1      34.417 -16.110 -24.334  0.00  0.00    +0.170 C 
ENDBRANCH   1  25
BRANCH   2  31
ATOM     31  N   UNL     1      34.831 -11.052 -24.720  0.00  0.00    +0.382 N 
ATOM     32  H   UNL     1      34.251 -10.730 -25.496  0.00  0.00    -0.089 HD
ATOM     33  H   UNL     1      35.166 -11.994 -24.914  0.00  0.00    -0.089 HD
ATOM     34  H   UNL     1      35.626 -10.423 -24.608  0.00  0.00    -0.089 HD
ENDBRANCH   2  31
TORSDOF 4
ENDMDL
MODEL 7
REMARK VINA RESULT:     -10.4     10.145     15.768
REMARK  Name = 11974440
REMARK  4 active torsions:
REMARK  status: ('A' for Active; 'I' for Inactive)
REMARK    1  A    between atoms: C_1  and  C_25
REMARK    2  A    between atoms: C_2  and  N_31
REMARK    3  A    between atoms: C_5  and  C_12
REMARK    4  A    between atoms: C_17  and  C_21
REMARK                            x       y       z     vdW  Elec       q    Type
REMARK                         _______ _______ _______ _____ _____    ______ ____
ROOT
ATOM      1  C   UNL     1      33.445 -12.630 -22.669  0.00  0.00    +0.009 C 
ATOM      2  C   UNL     1      32.135 -12.656 -21.840  0.00  0.00    -0.057 C 
ATOM      3  C   UNL     1      31.937 -11.317 -21.101  0.00  0.00    +0.009 C 
ATOM      4  C   UNL     1      33.417 -11.470 -23.692  0.00  0.00    +0.028 C 
ATOM      5  C   UNL     1      32.212 -10.127 -21.971  0.00  0.00    +0.025 C 
ATOM      6  C   UNL     1      32.865 -10.189 -23.139  0.00  0.00    -0.026 C 
ENDROOT
BRANCH   5  12
ATOM      7  O   UNL     1      31.603  -8.613 -20.318  0.00  0.00    -0.270 OA
ATOM      8  N   UNL     1      31.438  -7.861 -22.511  0.00  0.00    -0.267 N 
ATOM      9  N   UNL     1      32.261  -5.765 -24.100  0.00  0.00    -0.292 N 
ATOM     10  N   UNL     1      31.585  -4.172 -22.771  0.00  0.00    -0.132 NA
ATOM     11  N   UNL     1      32.276  -3.607 -23.830  0.00  0.00    -0.125 NA
ATOM     12  C   UNL     1      31.722  -8.805 -21.529  0.00  0.00    +0.245 C 
ATOM     13  C   UNL     1      31.496  -8.080 -23.970  0.00  0.00    +0.119 C 
ATOM     14  C   UNL     1      30.960  -6.531 -22.103  0.00  0.00    +0.160 C 
ATOM     15  C   UNL     1      32.485  -7.103 -24.601  0.00  0.00    +0.130 C 
ATOM     16  C   UNL     1      31.585  -5.477 -22.945  0.00  0.00    +0.164 A 
ATOM     17  C   UNL     1      32.674  -4.583 -24.616  0.00  0.00    +0.238 A 
BRANCH  17  21
ATOM     18  F   UNL     1      34.739  -4.930 -25.772  0.00  0.00    -0.163 F 
ATOM     19  F   UNL     1      32.917  -5.133 -26.931  0.00  0.00    -0.163 F 
ATOM     20  F   UNL     1      33.584  -3.164 -26.294  0.00  0.00    -0.163 F 
ATOM     21  C   UNL     1      33.452  -4.460 -25.861  0.00  0.00    +0.452 C 
ENDBRANCH  17  21
ENDBRANCH   5  12
BRANCH   1  25
ATOM     22  F   UNL     1      35.011 -14.686 -21.497  0.00  0.00    -0.204 F 
ATOM     23  F   UNL     1      33.090 -15.597 -26.535  0.00  0.00    -0.202 F 
ATOM     24  F   UNL     1      34.613 -17.492 -25.285  0.00  0.00    -0.202 F 
ATOM     25  C   UNL     1      33.761 -13.942 -23.371  0.00  0.00    +0.006 C 
ATOM     26  C   UNL     1      34.536 -14.903 -22.731  0.00  0.00    +0.138 C 
ATOM     27  C   UNL     1      33.271 -14.170 -24.654  0.00  0.00    +0.030 C 
ATOM     28  C   UNL     1      33.558 -15.371 -25.301  0.00  0.00    +0.167 C 
ATOM     29  C   UNL     1      34.823 -16.104 -23.377  0.00  0.00    +0.061 C 
ATOM     30  C   UNL     1      34.334 -16.339 -24.663  0.00  0.00    +0.170 C 
ENDBRANCH   1  25
BRANCH   2  31
ATOM     31  N   UNL     1      32.139 -13.751 -20.865  0.00  0.00    +0.382 N 
ATOM     32  H   UNL     1      31.842 -13.396 -19.955  0.00  0.00    -0.089 HD
ATOM     33  H   UNL     1      33.080 -14.135 -20.790  0.00  0.00    -0.089 HD
ATOM     34  H   UNL     1      31.495 -14.480 -21.171  0.00  0.00    -0.089 HD
ENDBRANCH   2  31
TORSDOF 4
ENDMDL
MODEL 8
REMARK VINA RESULT:     -10.3      0.743      1.509
REMARK  Name = 11974440
REMARK  4 active torsions:
REMARK  status: ('A' for Active; 'I' for Inactive)
REMARK    1  A    between atoms: C_1  and  C_25
REMARK    2  A    between atoms: C_2  and  N_31
REMARK    3  A    between atoms: C_5  and  C_12
REMARK    4  A    between atoms: C_17  and  C_21
REMARK                            x       y       z     vdW  Elec       q    Type
REMARK                         _______ _______ _______ _____ _____    ______ ____
ROOT
ATOM      1  C   UNL     1      34.739 -19.930 -20.360  0.00  0.00    +0.009 C 
ATOM      2  C   UNL     1      35.817 -21.038 -20.235  0.00  0.00    -0.057 C 
ATOM      3  C   UNL     1      35.601 -21.859 -18.948  0.00  0.00    +0.009 C 
ATOM      4  C   UNL     1      33.322 -20.551 -20.369  0.00  0.00    +0.028 C 
ATOM      5  C   UNL     1      34.165 -22.228 -18.727  0.00  0.00    +0.025 C 
ATOM      6  C   UNL     1      33.138 -21.654 -19.369  0.00  0.00    -0.026 C 
ENDROOT
BRANCH   5  12
ATOM      7  O   UNL     1      32.901 -24.038 -18.006  0.00  0.00    -0.270 OA
ATOM      8  N   UNL     1      34.670 -23.409 -16.636  0.00  0.00    -0.267 N 
ATOM      9  N   UNL     1      36.885 -24.493 -15.405  0.00  0.00    -0.292 N 
ATOM     10  N   UNL     1      35.850 -26.169 -14.469  0.00  0.00    -0.132 NA
ATOM     11  N   UNL     1      37.209 -26.301 -14.243  0.00  0.00    -0.125 NA
ATOM     12  C   UNL     1      33.855 -23.299 -17.759  0.00  0.00    +0.245 C 
ATOM     13  C   UNL     1      35.773 -22.498 -16.269  0.00  0.00    +0.119 C 
ATOM     14  C   UNL     1      34.396 -24.474 -15.658  0.00  0.00    +0.160 C 
ATOM     15  C   UNL     1      37.080 -23.281 -16.171  0.00  0.00    +0.130 C 
ATOM     16  C   UNL     1      35.668 -25.073 -15.176  0.00  0.00    +0.164 A 
ATOM     17  C   UNL     1      37.813 -25.283 -14.815  0.00  0.00    +0.238 A 
BRANCH  17  21
ATOM     18  F   UNL     1      40.023 -26.049 -15.316  0.00  0.00    -0.163 F 
ATOM     19  F   UNL     1      39.619 -23.942 -15.627  0.00  0.00    -0.163 F 
ATOM     20  F   UNL     1      39.785 -24.727 -13.607  0.00  0.00    -0.163 F 
ATOM     21  C   UNL     1      39.260 -25.010 -14.843  0.00  0.00    +0.452 C 
ENDBRANCH  17  21
ENDBRANCH   5  12
BRANCH   1  25
ATOM     22  F   UNL     1      34.847 -20.887 -23.029  0.00  0.00    -0.204 F 
ATOM     23  F   UNL     1      35.334 -15.488 -22.307  0.00  0.00    -0.202 F 
ATOM     24  F   UNL     1      35.420 -16.548 -24.825  0.00  0.00    -0.202 F 
ATOM     25  C   UNL     1      34.921 -19.020 -21.565  0.00  0.00    +0.006 C 
ATOM     26  C   UNL     1      34.964 -19.565 -22.845  0.00  0.00    +0.138 C 
ATOM     27  C   UNL     1      35.045 -17.647 -21.378  0.00  0.00    +0.030 C 
ATOM     28  C   UNL     1      35.213 -16.811 -22.481  0.00  0.00    +0.167 C 
ATOM     29  C   UNL     1      35.131 -18.729 -23.948  0.00  0.00    +0.061 C 
ATOM     30  C   UNL     1      35.256 -17.351 -23.766  0.00  0.00    +0.170 C 
ENDBRANCH   1  25
BRANCH   2  31
ATOM     31  N   UNL     1      37.169 -20.472 -20.228  0.00  0.00    +0.382 N 
ATOM     32  H   UNL     1      37.150 -19.553 -19.784  0.00  0.00    -0.089 HD
ATOM     33  H   UNL     1      37.503 -20.380 -21.186  0.00  0.00    -0.089 HD
ATOM     34  H   UNL     1      37.792 -21.088 -19.706  0.00  0.00    -0.089 HD
ENDBRANCH   2  31
TORSDOF 4
ENDMDL
MODEL 9
REMARK VINA RESULT:     -10.2      4.150     10.189
REMARK  Name = 11974440
REMARK  4 active torsions:
REMARK  status: ('A' for Active; 'I' for Inactive)
REMARK    1  A    between atoms: C_1  and  C_25
REMARK    2  A    between atoms: C_2  and  N_31
REMARK    3  A    between atoms: C_5  and  C_12
REMARK    4  A    between atoms: C_17  and  C_21
REMARK                            x       y       z     vdW  Elec       q    Type
REMARK                         _______ _______ _______ _____ _____    ______ ____
ROOT
ATOM      1  C   UNL     1      35.063 -21.608 -19.888  0.00  0.00    +0.009 C 
ATOM      2  C   UNL     1      36.297 -20.712 -20.168  0.00  0.00    -0.057 C 
ATOM      3  C   UNL     1      36.272 -20.195 -21.621  0.00  0.00    +0.009 C 
ATOM      4  C   UNL     1      33.754 -20.822 -20.139  0.00  0.00    +0.028 C 
ATOM      5  C   UNL     1      34.919 -19.704 -22.039  0.00  0.00    +0.025 C 
ATOM      6  C   UNL     1      33.788 -19.971 -21.374  0.00  0.00    -0.026 C 
ENDROOT
BRANCH   5  12
ATOM      7  O   UNL     1      34.600 -19.419 -24.322  0.00  0.00    -0.270 OA
ATOM      8  N   UNL     1      34.975 -17.485 -23.088  0.00  0.00    -0.267 N 
ATOM      9  N   UNL     1      33.856 -15.006 -22.643  0.00  0.00    -0.292 N 
ATOM     10  N   UNL     1      33.643 -14.454 -24.743  0.00  0.00    -0.132 NA
ATOM     11  N   UNL     1      33.051 -13.476 -23.962  0.00  0.00    -0.125 NA
ATOM     12  C   UNL     1      34.821 -18.859 -23.247  0.00  0.00    +0.245 C 
ATOM     13  C   UNL     1      35.315 -16.788 -21.831  0.00  0.00    +0.119 C 
ATOM     14  C   UNL     1      34.870 -16.615 -24.270  0.00  0.00    +0.160 C 
ATOM     15  C   UNL     1      34.215 -15.788 -21.480  0.00  0.00    +0.130 C 
ATOM     16  C   UNL     1      34.124 -15.374 -23.934  0.00  0.00    +0.164 A 
ATOM     17  C   UNL     1      33.190 -13.829 -22.703  0.00  0.00    +0.238 A 
BRANCH  17  21
ATOM     18  F   UNL     1      32.244 -11.833 -21.782  0.00  0.00    -0.163 F 
ATOM     19  F   UNL     1      31.668 -13.711 -20.862  0.00  0.00    -0.163 F 
ATOM     20  F   UNL     1      33.671 -12.924 -20.557  0.00  0.00    -0.163 F 
ATOM     21  C   UNL     1      32.707 -13.099 -21.518  0.00  0.00    +0.452 C 
ENDBRANCH  17  21
ENDBRANCH   5  12
BRANCH   1  25
ATOM     22  F   UNL     1      32.809 -22.951 -18.808  0.00  0.00    -0.204 F 
ATOM     23  F   UNL     1      37.254 -22.621 -15.639  0.00  0.00    -0.202 F 
ATOM     24  F   UNL     1      35.010 -23.888 -14.726  0.00  0.00    -0.202 F 
ATOM     25  C   UNL     1      35.046 -22.225 -18.497  0.00  0.00    +0.006 C 
ATOM     26  C   UNL     1      33.902 -22.868 -18.038  0.00  0.00    +0.138 C 
ATOM     27  C   UNL     1      36.179 -22.138 -17.694  0.00  0.00    +0.030 C 
ATOM     28  C   UNL     1      36.167 -22.701 -16.418  0.00  0.00    +0.167 C 
ATOM     29  C   UNL     1      33.890 -23.432 -16.762  0.00  0.00    +0.061 C 
ATOM     30  C   UNL     1      35.023 -23.349 -15.952  0.00  0.00    +0.170 C 
ENDBRANCH   1  25
BRANCH   2  31
ATOM     31  N   UNL     1      37.550 -21.436 -19.933  0.00  0.00    +0.382 N 
ATOM     32  H   UNL     1      38.119 -20.921 -19.260  0.00  0.00    -0.089 HD
ATOM     33  H   UNL     1      38.060 -21.526 -20.810  0.00  0.00    -0.089 HD
ATOM     34  H   UNL     1      37.342 -22.363 -19.561  0.00  0.00    -0.089 HD
ENDBRANCH   2  31
TORSDOF 4
ENDMDL
