MODEL 1
REMARK VINA RESULT:     -11.6      0.000      0.000
REMARK  Name = 491941
REMARK  5 active torsions:
REMARK  status: ('A' for Active; 'I' for Inactive)
REMARK    1  A    between atoms: C_5  and  C_17
REMARK    2  A    between atoms: C_7  and  S_11
REMARK    3  A    between atoms: S_11  and  N_14
REMARK    4  A    between atoms: C_17  and  C_18
REMARK    5  A    between atoms: C_21  and  C_25
REMARK                            x       y       z     vdW  Elec       q    Type
REMARK                         _______ _______ _______ _____ _____    ______ ____
ROOT
ATOM      1  S   UNL     1      34.646 -24.690 -13.723  0.00  0.00    -0.035 S 
ATOM      2  O   UNL     1      35.913 -22.772 -17.476  0.00  0.00    -0.274 OA
ATOM      3  N   UNL     1      34.218 -23.443 -15.988  0.00  0.00    -0.227 N 
ATOM      4  N   UNL     1      36.155 -22.828 -14.693  0.00  0.00    -0.386 NA
ATOM      5  C   UNL     1      34.733 -23.052 -17.248  0.00  0.00    +0.236 C 
ATOM      6  C   UNL     1      35.100 -23.533 -14.869  0.00  0.00    +0.217 C 
ATOM      7  C   UNL     1      36.033 -24.231 -12.825  0.00  0.00    +0.247 C 
ATOM      8  C   UNL     1      36.708 -23.232 -13.494  0.00  0.00    +0.123 C 
ATOM      9  C   UNL     1      32.791 -23.758 -15.806  0.00  0.00    +0.123 C 
ATOM     10  C   UNL     1      37.950 -22.574 -13.040  0.00  0.00    +0.064 C 
ENDROOT
BRANCH   7  11
ATOM     11  S   UNL     1      36.276 -25.092 -11.317  0.00  0.00    +0.052 S 
ATOM     12  O   UNL     1      37.187 -24.273 -10.524  0.00  0.00    -0.157 OA
ATOM     13  O   UNL     1      34.935 -25.392 -10.826  0.00  0.00    -0.157 OA
BRANCH  11  14
ATOM     14  N   UNL     1      37.072 -26.580 -11.650  0.00  0.00    -0.206 NA
ATOM     15  H   UNL     1      37.284 -26.637 -12.645  0.00  0.00    +0.144 HD
ATOM     16  H   UNL     1      36.465 -27.357 -11.386  0.00  0.00    +0.144 HD
ENDBRANCH  11  14
ENDBRANCH   7  11
BRANCH   5  17
ATOM     17  C   UNL     1      33.730 -23.020 -18.408  0.00  0.00    +0.112 C 
BRANCH  17  18
ATOM     18  C   UNL     1      33.985 -21.939 -19.402  0.00  0.00    -0.013 C 
ATOM     19  C   UNL     1      35.292 -21.636 -19.785  0.00  0.00    -0.004 C 
ATOM     20  C   UNL     1      32.916 -21.230 -19.950  0.00  0.00    -0.004 C 
ATOM     21  C   UNL     1      34.461 -19.915 -21.262  0.00  0.00    +0.018 C 
ATOM     22  C   UNL     1      35.530 -20.624 -20.715  0.00  0.00    +0.001 C 
ATOM     23  C   UNL     1      33.154 -20.217 -20.880  0.00  0.00    +0.001 C 
BRANCH  21  25
ATOM     24  N   UNL     1      35.190 -17.717 -21.706  0.00  0.00    -0.244 NA
ATOM     25  C   UNL     1      34.707 -18.865 -22.227  0.00  0.00    +0.081 C 
ATOM     26  C   UNL     1      34.455 -19.065 -23.573  0.00  0.00    +0.019 C 
ATOM     27  C   UNL     1      34.715 -18.014 -24.445  0.00  0.00    +0.003 C 
ATOM     28  C   UNL     1      35.430 -16.716 -22.583  0.00  0.00    +0.099 C 
ATOM     29  C   UNL     1      35.212 -16.813 -23.948  0.00  0.00    +0.021 C 
ENDBRANCH  21  25
ENDBRANCH  17  18
ENDBRANCH   5  17
TORSDOF 5
ENDMDL
MODEL 2
REMARK VINA RESULT:     -10.5      8.905     13.418
REMARK  Name = 491941
REMARK  5 active torsions:
REMARK  status: ('A' for Active; 'I' for Inactive)
REMARK    1  A    between atoms: C_5  and  C_17
REMARK    2  A    between atoms: C_7  and  S_11
REMARK    3  A    between atoms: S_11  and  N_14
REMARK    4  A    between atoms: C_17  and  C_18
REMARK    5  A    between atoms: C_21  and  C_25
REMARK                            x       y       z     vdW  Elec       q    Type
REMARK                         _______ _______ _______ _____ _____    ______ ____
ROOT
ATOM      1  S   UNL     1      32.970  -8.948 -23.651  0.00  0.00    -0.035 S 
ATOM      2  O   UNL     1      32.344 -13.169 -22.572  0.00  0.00    -0.274 OA
ATOM      3  N   UNL     1      33.600 -11.492 -23.646  0.00  0.00    -0.227 N 
ATOM      4  N   UNL     1      32.638 -10.549 -21.648  0.00  0.00    -0.386 NA
ATOM      5  C   UNL     1      33.174 -12.824 -23.419  0.00  0.00    +0.236 C 
ATOM      6  C   UNL     1      33.050 -10.438 -22.855  0.00  0.00    +0.217 C 
ATOM      7  C   UNL     1      32.288  -8.306 -22.215  0.00  0.00    +0.247 C 
ATOM      8  C   UNL     1      32.189  -9.301 -21.264  0.00  0.00    +0.123 C 
ATOM      9  C   UNL     1      34.597 -11.171 -24.680  0.00  0.00    +0.123 C 
ATOM     10  C   UNL     1      31.653  -9.140 -19.898  0.00  0.00    +0.064 C 
ENDROOT
BRANCH   7  11
ATOM     11  S   UNL     1      31.885  -6.601 -22.266  0.00  0.00    +0.052 S 
ATOM     12  O   UNL     1      32.908  -5.967 -23.093  0.00  0.00    -0.157 OA
ATOM     13  O   UNL     1      30.482  -6.549 -22.658  0.00  0.00    -0.157 OA
BRANCH  11  14
ATOM     14  N   UNL     1      32.024  -5.950 -20.680  0.00  0.00    -0.206 NA
ATOM     15  H   UNL     1      32.056  -4.933 -20.732  0.00  0.00    +0.144 HD
ATOM     16  H   UNL     1      32.880  -6.297 -20.244  0.00  0.00    +0.144 HD
ENDBRANCH  11  14
ENDBRANCH   7  11
BRANCH   5  17
ATOM     17  C   UNL     1      33.778 -13.893 -24.338  0.00  0.00    +0.112 C 
BRANCH  17  18
ATOM     18  C   UNL     1      34.248 -15.114 -23.623  0.00  0.00    -0.013 C 
ATOM     19  C   UNL     1      34.582 -15.044 -22.269  0.00  0.00    -0.004 C 
ATOM     20  C   UNL     1      34.354 -16.325 -24.306  0.00  0.00    -0.004 C 
ATOM     21  C   UNL     1      35.128 -17.397 -22.283  0.00  0.00    +0.018 C 
ATOM     22  C   UNL     1      35.022 -16.186 -21.600  0.00  0.00    +0.001 C 
ATOM     23  C   UNL     1      34.794 -17.468 -23.636  0.00  0.00    +0.001 C 
BRANCH  21  25
ATOM     24  N   UNL     1      36.909 -18.613 -21.328  0.00  0.00    -0.244 NA
ATOM     25  C   UNL     1      35.585 -18.582 -21.590  0.00  0.00    +0.081 C 
ATOM     26  C   UNL     1      34.697 -19.584 -21.238  0.00  0.00    +0.019 C 
ATOM     27  C   UNL     1      35.204 -20.695 -20.572  0.00  0.00    +0.003 C 
ATOM     28  C   UNL     1      37.366 -19.709 -20.680  0.00  0.00    +0.099 C 
ATOM     29  C   UNL     1      36.563 -20.766 -20.284  0.00  0.00    +0.021 C 
ENDBRANCH  21  25
ENDBRANCH  17  18
ENDBRANCH   5  17
TORSDOF 5
ENDMDL
MODEL 3
REMARK VINA RESULT:     -10.2      3.139      5.419
REMARK  Name = 491941
REMARK  5 active torsions:
REMARK  status: ('A' for Active; 'I' for Inactive)
REMARK    1  A    between atoms: C_5  and  C_17
REMARK    2  A    between atoms: C_7  and  S_11
REMARK    3  A    between atoms: S_11  and  N_14
REMARK    4  A    between atoms: C_17  and  C_18
REMARK    5  A    between atoms: C_21  and  C_25
REMARK                            x       y       z     vdW  Elec       q    Type
REMARK                         _______ _______ _______ _____ _____    ______ ____
ROOT
ATOM      1  S   UNL     1      36.598 -21.946 -17.847  0.00  0.00    -0.035 S 
ATOM      2  O   UNL     1      34.081 -19.861 -20.794  0.00  0.00    -0.274 OA
ATOM      3  N   UNL     1      36.130 -20.842 -20.177  0.00  0.00    -0.227 N 
ATOM      4  N   UNL     1      34.354 -22.083 -19.123  0.00  0.00    -0.386 NA
ATOM      5  C   UNL     1      35.299 -19.989 -20.946  0.00  0.00    +0.236 C 
ATOM      6  C   UNL     1      35.551 -21.629 -19.136  0.00  0.00    +0.217 C 
ATOM      7  C   UNL     1      35.315 -22.822 -17.122  0.00  0.00    +0.247 C 
ATOM      8  C   UNL     1      34.207 -22.785 -17.943  0.00  0.00    +0.123 C 
ATOM      9  C   UNL     1      37.577 -20.933 -20.429  0.00  0.00    +0.123 C 
ATOM     10  C   UNL     1      32.905 -23.424 -17.667  0.00  0.00    +0.064 C 
ENDROOT
BRANCH   7  11
ATOM     11  S   UNL     1      35.677 -23.543 -15.566  0.00  0.00    +0.052 S 
ATOM     12  O   UNL     1      35.664 -24.988 -15.776  0.00  0.00    -0.157 OA
ATOM     13  O   UNL     1      36.888 -22.874 -15.105  0.00  0.00    -0.157 OA
BRANCH  11  14
ATOM     14  N   UNL     1      34.405 -23.167 -14.471  0.00  0.00    -0.206 NA
ATOM     15  H   UNL     1      34.770 -23.149 -13.519  0.00  0.00    +0.144 HD
ATOM     16  H   UNL     1      33.674 -23.875 -14.542  0.00  0.00    +0.144 HD
ENDBRANCH  11  14
ENDBRANCH   7  11
BRANCH   5  17
ATOM     17  C   UNL     1      36.003 -19.145 -22.016  0.00  0.00    +0.112 C 
BRANCH  17  18
ATOM     18  C   UNL     1      35.428 -17.781 -22.189  0.00  0.00    -0.013 C 
ATOM     19  C   UNL     1      35.063 -17.332 -23.459  0.00  0.00    -0.004 C 
ATOM     20  C   UNL     1      35.253 -16.952 -21.080  0.00  0.00    -0.004 C 
ATOM     21  C   UNL     1      34.351 -15.227 -22.512  0.00  0.00    +0.018 C 
ATOM     22  C   UNL     1      34.525 -16.056 -23.621  0.00  0.00    +0.001 C 
ATOM     23  C   UNL     1      34.715 -15.675 -21.242  0.00  0.00    +0.001 C 
BRANCH  21  25
ATOM     24  N   UNL     1      34.325 -13.185 -23.691  0.00  0.00    -0.244 NA
ATOM     25  C   UNL     1      33.793 -13.903 -22.679  0.00  0.00    +0.081 C 
ATOM     26  C   UNL     1      32.789 -13.446 -21.843  0.00  0.00    +0.019 C 
ATOM     27  C   UNL     1      32.298 -12.163 -22.060  0.00  0.00    +0.003 C 
ATOM     28  C   UNL     1      33.823 -11.943 -23.872  0.00  0.00    +0.099 C 
ATOM     29  C   UNL     1      32.820 -11.391 -23.093  0.00  0.00    +0.021 C 
ENDBRANCH  21  25
ENDBRANCH  17  18
ENDBRANCH   5  17
TORSDOF 5
ENDMDL
MODEL 4
REMARK VINA RESULT:      -9.9      2.786      4.703
REMARK  Name = 491941
REMARK  5 active torsions:
REMARK  status: ('A' for Active; 'I' for Inactive)
REMARK    1  A    between atoms: C_5  and  C_17
REMARK    2  A    between atoms: C_7  and  S_11
REMARK    3  A    between atoms: S_11  and  N_14
REMARK    4  A    between atoms: C_17  and  C_18
REMARK    5  A    between atoms: C_21  and  C_25
REMARK                            x       y       z     vdW  Elec       q    Type
REMARK                         _______ _______ _______ _____ _____    ______ ____
ROOT
ATOM      1  S   UNL     1      35.945 -22.524 -17.256  0.00  0.00    -0.035 S 
ATOM      2  O   UNL     1      34.016 -20.357 -20.566  0.00  0.00    -0.274 OA
ATOM      3  N   UNL     1      35.818 -21.605 -19.708  0.00  0.00    -0.227 N 
ATOM      4  N   UNL     1      33.791 -22.407 -18.681  0.00  0.00    -0.386 NA
ATOM      5  C   UNL     1      35.199 -20.707 -20.613  0.00  0.00    +0.236 C 
ATOM      6  C   UNL     1      35.049 -22.168 -18.646  0.00  0.00    +0.217 C 
ATOM      7  C   UNL     1      34.486 -23.087 -16.554  0.00  0.00    +0.247 C 
ATOM      8  C   UNL     1      33.453 -22.947 -17.456  0.00  0.00    +0.123 C 
ATOM      9  C   UNL     1      37.238 -21.968 -19.839  0.00  0.00    +0.123 C 
ATOM     10  C   UNL     1      32.044 -23.322 -17.222  0.00  0.00    +0.064 C 
ENDROOT
BRANCH   7  11
ATOM     11  S   UNL     1      34.622 -23.694 -14.915  0.00  0.00    +0.052 S 
ATOM     12  O   UNL     1      34.561 -25.149 -15.014  0.00  0.00    -0.157 OA
ATOM     13  O   UNL     1      35.802 -23.041 -14.360  0.00  0.00    -0.157 OA
BRANCH  11  14
ATOM     14  N   UNL     1      33.250 -23.177 -14.016  0.00  0.00    -0.206 NA
ATOM     15  H   UNL     1      33.151 -22.166 -14.098  0.00  0.00    +0.144 HD
ATOM     16  H   UNL     1      33.371 -23.430 -13.035  0.00  0.00    +0.144 HD
ENDBRANCH  11  14
ENDBRANCH   7  11
BRANCH   5  17
ATOM     17  C   UNL     1      36.103 -20.112 -21.700  0.00  0.00    +0.112 C 
BRANCH  17  18
ATOM     18  C   UNL     1      35.596 -18.836 -22.279  0.00  0.00    -0.013 C 
ATOM     19  C   UNL     1      35.663 -17.656 -21.536  0.00  0.00    -0.004 C 
ATOM     20  C   UNL     1      35.054 -18.820 -23.565  0.00  0.00    -0.004 C 
ATOM     21  C   UNL     1      34.646 -16.447 -23.364  0.00  0.00    +0.018 C 
ATOM     22  C   UNL     1      35.188 -16.462 -22.079  0.00  0.00    +0.001 C 
ATOM     23  C   UNL     1      34.579 -17.625 -24.107  0.00  0.00    +0.001 C 
BRANCH  21  25
ATOM     24  N   UNL     1      34.312 -14.124 -23.139  0.00  0.00    -0.244 NA
ATOM     25  C   UNL     1      34.154 -15.208 -23.927  0.00  0.00    +0.081 C 
ATOM     26  C   UNL     1      33.574 -15.182 -25.183  0.00  0.00    +0.019 C 
ATOM     27  C   UNL     1      33.123 -13.957 -25.663  0.00  0.00    +0.003 C 
ATOM     28  C   UNL     1      33.861 -12.950 -23.638  0.00  0.00    +0.099 C 
ATOM     29  C   UNL     1      33.266 -12.815 -24.882  0.00  0.00    +0.021 C 
ENDBRANCH  21  25
ENDBRANCH  17  18
ENDBRANCH   5  17
TORSDOF 5
ENDMDL
MODEL 5
REMARK VINA RESULT:      -9.3      1.866      2.367
REMARK  Name = 491941
REMARK  5 active torsions:
REMARK  status: ('A' for Active; 'I' for Inactive)
REMARK    1  A    between atoms: C_5  and  C_17
REMARK    2  A    between atoms: C_7  and  S_11
REMARK    3  A    between atoms: S_11  and  N_14
REMARK    4  A    between atoms: C_17  and  C_18
REMARK    5  A    between atoms: C_21  and  C_25
REMARK                            x       y       z     vdW  Elec       q    Type
REMARK                         _______ _______ _______ _____ _____    ______ ____
ROOT
ATOM      1  S   UNL     1      36.776 -24.890 -14.702  0.00  0.00    -0.035 S 
ATOM      2  O   UNL     1      32.984 -22.685 -15.072  0.00  0.00    -0.274 OA
ATOM      3  N   UNL     1      34.429 -24.409 -15.765  0.00  0.00    -0.227 N 
ATOM      4  N   UNL     1      34.685 -24.125 -13.386  0.00  0.00    -0.386 NA
ATOM      5  C   UNL     1      33.358 -23.495 -15.925  0.00  0.00    +0.236 C 
ATOM      6  C   UNL     1      35.158 -24.425 -14.538  0.00  0.00    +0.217 C 
ATOM      7  C   UNL     1      36.927 -24.678 -13.007  0.00  0.00    +0.247 C 
ATOM      8  C   UNL     1      35.718 -24.272 -12.482  0.00  0.00    +0.123 C 
ATOM      9  C   UNL     1      34.806 -25.343 -16.839  0.00  0.00    +0.123 C 
ATOM     10  C   UNL     1      35.446 -23.987 -11.058  0.00  0.00    +0.064 C 
ENDROOT
BRANCH   7  11
ATOM     11  S   UNL     1      38.513 -25.013 -12.342  0.00  0.00    +0.052 S 
ATOM     12  O   UNL     1      38.923 -23.802 -11.638  0.00  0.00    -0.157 OA
ATOM     13  O   UNL     1      38.369 -26.273 -11.622  0.00  0.00    -0.157 OA
BRANCH  11  14
ATOM     14  N   UNL     1      39.618 -25.258 -13.638  0.00  0.00    -0.206 NA
ATOM     15  H   UNL     1      39.908 -24.356 -14.012  0.00  0.00    +0.144 HD
ATOM     16  H   UNL     1      39.164 -25.802 -14.373  0.00  0.00    +0.144 HD
ENDBRANCH  11  14
ENDBRANCH   7  11
BRANCH   5  17
ATOM     17  C   UNL     1      32.653 -23.511 -17.287  0.00  0.00    +0.112 C 
BRANCH  17  18
ATOM     18  C   UNL     1      33.258 -22.595 -18.295  0.00  0.00    -0.013 C 
ATOM     19  C   UNL     1      32.439 -21.795 -19.092  0.00  0.00    -0.004 C 
ATOM     20  C   UNL     1      34.644 -22.537 -18.441  0.00  0.00    -0.004 C 
ATOM     21  C   UNL     1      34.391 -20.881 -20.182  0.00  0.00    +0.018 C 
ATOM     22  C   UNL     1      33.005 -20.938 -20.035  0.00  0.00    +0.001 C 
ATOM     23  C   UNL     1      35.211 -21.680 -19.385  0.00  0.00    +0.001 C 
BRANCH  21  25
ATOM     24  N   UNL     1      36.190 -19.497 -20.823  0.00  0.00    -0.244 NA
ATOM     25  C   UNL     1      34.980 -19.992 -21.160  0.00  0.00    +0.081 C 
ATOM     26  C   UNL     1      34.319 -19.698 -22.340  0.00  0.00    +0.019 C 
ATOM     27  C   UNL     1      34.943 -18.836 -23.235  0.00  0.00    +0.003 C 
ATOM     28  C   UNL     1      36.767 -18.663 -21.717  0.00  0.00    +0.099 C 
ATOM     29  C   UNL     1      36.191 -18.305 -22.926  0.00  0.00    +0.021 C 
ENDBRANCH  21  25
ENDBRANCH  17  18
ENDBRANCH   5  17
TORSDOF 5
ENDMDL
MODEL 6
REMARK VINA RESULT:      -9.1      5.678     10.912
REMARK  Name = 491941
REMARK  5 active torsions:
REMARK  status: ('A' for Active; 'I' for Inactive)
REMARK    1  A    between atoms: C_5  and  C_17
REMARK    2  A    between atoms: C_7  and  S_11
REMARK    3  A    between atoms: S_11  and  N_14
REMARK    4  A    between atoms: C_17  and  C_18
REMARK    5  A    between atoms: C_21  and  C_25
REMARK                            x       y       z     vdW  Elec       q    Type
REMARK                         _______ _______ _______ _____ _____    ______ ____
ROOT
ATOM      1  S   UNL     1      34.058 -15.980 -24.239  0.00  0.00    -0.035 S 
ATOM      2  O   UNL     1      34.930 -18.224 -20.554  0.00  0.00    -0.274 OA
ATOM      3  N   UNL     1      35.110 -17.964 -22.887  0.00  0.00    -0.227 N 
ATOM      4  N   UNL     1      35.105 -15.773 -21.884  0.00  0.00    -0.386 NA
ATOM      5  C   UNL     1      35.136 -18.698 -21.675  0.00  0.00    +0.236 C 
ATOM      6  C   UNL     1      34.827 -16.565 -22.851  0.00  0.00    +0.217 C 
ATOM      7  C   UNL     1      34.069 -14.434 -23.498  0.00  0.00    +0.247 C 
ATOM      8  C   UNL     1      34.664 -14.519 -22.257  0.00  0.00    +0.123 C 
ATOM      9  C   UNL     1      35.368 -18.613 -24.183  0.00  0.00    +0.123 C 
ATOM     10  C   UNL     1      34.862 -13.399 -21.314  0.00  0.00    +0.064 C 
ENDROOT
BRANCH   7  11
ATOM     11  S   UNL     1      33.357 -13.139 -24.441  0.00  0.00    +0.052 S 
ATOM     12  O   UNL     1      33.090 -13.700 -25.763  0.00  0.00    -0.157 OA
ATOM     13  O   UNL     1      32.266 -12.623 -23.623  0.00  0.00    -0.157 OA
BRANCH  11  14
ATOM     14  N   UNL     1      34.522 -11.888 -24.635  0.00  0.00    -0.206 NA
ATOM     15  H   UNL     1      34.281 -11.104 -24.030  0.00  0.00    +0.144 HD
ATOM     16  H   UNL     1      34.530 -11.579 -25.607  0.00  0.00    +0.144 HD
ENDBRANCH  11  14
ENDBRANCH   7  11
BRANCH   5  17
ATOM     17  C   UNL     1      35.404 -20.203 -21.802  0.00  0.00    +0.112 C 
BRANCH  17  18
ATOM     18  C   UNL     1      35.189 -20.967 -20.541  0.00  0.00    -0.013 C 
ATOM     19  C   UNL     1      36.281 -21.347 -19.760  0.00  0.00    -0.004 C 
ATOM     20  C   UNL     1      33.895 -21.302 -20.140  0.00  0.00    -0.004 C 
ATOM     21  C   UNL     1      34.786 -22.397 -18.179  0.00  0.00    +0.018 C 
ATOM     22  C   UNL     1      36.080 -22.062 -18.579  0.00  0.00    +0.001 C 
ATOM     23  C   UNL     1      33.694 -22.017 -18.959  0.00  0.00    +0.001 C 
BRANCH  21  25
ATOM     24  N   UNL     1      35.704 -23.577 -16.356  0.00  0.00    -0.244 NA
ATOM     25  C   UNL     1      34.576 -23.139 -16.955  0.00  0.00    +0.081 C 
ATOM     26  C   UNL     1      33.300 -23.358 -16.468  0.00  0.00    +0.019 C 
ATOM     27  C   UNL     1      33.171 -24.078 -15.285  0.00  0.00    +0.003 C 
ATOM     28  C   UNL     1      35.541 -24.274 -15.208  0.00  0.00    +0.099 C 
ATOM     29  C   UNL     1      34.309 -24.548 -14.637  0.00  0.00    +0.021 C 
ENDBRANCH  21  25
ENDBRANCH  17  18
ENDBRANCH   5  17
TORSDOF 5
ENDMDL
MODEL 7
REMARK VINA RESULT:      -9.0      6.059     11.046
REMARK  Name = 491941
REMARK  5 active torsions:
REMARK  status: ('A' for Active; 'I' for Inactive)
REMARK    1  A    between atoms: C_5  and  C_17
REMARK    2  A    between atoms: C_7  and  S_11
REMARK    3  A    between atoms: S_11  and  N_14
REMARK    4  A    between atoms: C_17  and  C_18
REMARK    5  A    between atoms: C_21  and  C_25
REMARK                            x       y       z     vdW  Elec       q    Type
REMARK                         _______ _______ _______ _____ _____    ______ ____
ROOT
ATOM      1  S   UNL     1      34.189 -16.922 -24.921  0.00  0.00    -0.035 S 
ATOM      2  O   UNL     1      34.899 -18.187 -20.765  0.00  0.00    -0.274 OA
ATOM      3  N   UNL     1      35.265 -18.442 -23.076  0.00  0.00    -0.227 N 
ATOM      4  N   UNL     1      35.004 -16.092 -22.611  0.00  0.00    -0.386 NA
ATOM      5  C   UNL     1      35.239 -18.879 -21.728  0.00  0.00    +0.236 C 
ATOM      6  C   UNL     1      34.874 -17.105 -23.385  0.00  0.00    +0.217 C 
ATOM      7  C   UNL     1      34.016 -15.255 -24.560  0.00  0.00    +0.247 C 
ATOM      8  C   UNL     1      34.503 -15.002 -23.295  0.00  0.00    +0.123 C 
ATOM      9  C   UNL     1      35.687 -19.338 -24.165  0.00  0.00    +0.123 C 
ATOM     10  C   UNL     1      34.530 -13.685 -22.626  0.00  0.00    +0.064 C 
ENDROOT
BRANCH   7  11
ATOM     11  S   UNL     1      33.294 -14.280 -25.825  0.00  0.00    +0.052 S 
ATOM     12  O   UNL     1      31.968 -14.842 -26.064  0.00  0.00    -0.157 OA
ATOM     13  O   UNL     1      33.441 -12.900 -25.377  0.00  0.00    -0.157 OA
BRANCH  11  14
ATOM     14  N   UNL     1      34.209 -14.477 -27.268  0.00  0.00    -0.206 NA
ATOM     15  H   UNL     1      35.178 -14.685 -27.030  0.00  0.00    +0.144 HD
ATOM     16  H   UNL     1      34.169 -13.616 -27.815  0.00  0.00    +0.144 HD
ENDBRANCH  11  14
ENDBRANCH   7  11
BRANCH   5  17
ATOM     17  C   UNL     1      35.633 -20.341 -21.484  0.00  0.00    +0.112 C 
BRANCH  17  18
ATOM     18  C   UNL     1      34.851 -21.008 -20.404  0.00  0.00    -0.013 C 
ATOM     19  C   UNL     1      35.510 -21.733 -19.410  0.00  0.00    -0.004 C 
ATOM     20  C   UNL     1      33.459 -20.908 -20.387  0.00  0.00    -0.004 C 
ATOM     21  C   UNL     1      33.387 -22.257 -18.384  0.00  0.00    +0.018 C 
ATOM     22  C   UNL     1      34.778 -22.357 -18.400  0.00  0.00    +0.001 C 
ATOM     23  C   UNL     1      32.727 -21.533 -19.377  0.00  0.00    +0.001 C 
BRANCH  21  25
ATOM     24  N   UNL     1      31.287 -22.807 -17.464  0.00  0.00    -0.244 NA
ATOM     25  C   UNL     1      32.627 -22.904 -17.336  0.00  0.00    +0.081 C 
ATOM     26  C   UNL     1      33.266 -23.562 -16.300  0.00  0.00    +0.019 C 
ATOM     27  C   UNL     1      32.474 -24.162 -15.327  0.00  0.00    +0.003 C 
ATOM     28  C   UNL     1      30.549 -23.402 -16.500  0.00  0.00    +0.099 C 
ATOM     29  C   UNL     1      31.088 -24.086 -15.422  0.00  0.00    +0.021 C 
ENDBRANCH  21  25
ENDBRANCH  17  18
ENDBRANCH   5  17
TORSDOF 5
ENDMDL
MODEL 8
REMARK VINA RESULT:      -9.0     12.557     17.251
REMARK  Name = 491941
REMARK  5 active torsions:
REMARK  status: ('A' for Active; 'I' for Inactive)
REMARK    1  A    between atoms: C_5  and  C_17
REMARK    2  A    between atoms: C_7  and  S_11
REMARK    3  A    between atoms: S_11  and  N_14
REMARK    4  A    between atoms: C_17  and  C_18
REMARK    5  A    between atoms: C_21  and  C_25
REMARK                            x       y       z     vdW  Elec       q    Type
REMARK                         _______ _______ _______ _____ _____    ______ ____
ROOT
ATOM      1  S   UNL     1      34.707  -5.948 -25.072  0.00  0.00    -0.035 S 
ATOM      2  O   UNL     1      30.864  -7.532 -23.625  0.00  0.00    -0.274 OA
ATOM      3  N   UNL     1      33.153  -7.090 -23.297  0.00  0.00    -0.227 N 
ATOM      4  N   UNL     1      32.233  -5.325 -24.655  0.00  0.00    -0.386 NA
ATOM      5  C   UNL     1      31.927  -7.752 -23.038  0.00  0.00    +0.236 C 
ATOM      6  C   UNL     1      33.204  -6.085 -24.310  0.00  0.00    +0.217 C 
ATOM      7  C   UNL     1      34.024  -4.696 -26.023  0.00  0.00    +0.247 C 
ATOM      8  C   UNL     1      32.707  -4.506 -25.660  0.00  0.00    +0.123 C 
ATOM      9  C   UNL     1      34.375  -7.417 -22.545  0.00  0.00    +0.123 C 
ATOM     10  C   UNL     1      31.782  -3.516 -26.250  0.00  0.00    +0.064 C 
ENDROOT
BRANCH   7  11
ATOM     11  S   UNL     1      35.102  -3.962 -27.193  0.00  0.00    +0.052 S 
ATOM     12  O   UNL     1      35.020  -2.521 -26.973  0.00  0.00    -0.157 OA
ATOM     13  O   UNL     1      36.372  -4.662 -27.037  0.00  0.00    -0.157 OA
BRANCH  11  14
ATOM     14  N   UNL     1      34.504  -4.280 -28.774  0.00  0.00    -0.206 NA
ATOM     15  H   UNL     1      33.950  -5.135 -28.762  0.00  0.00    +0.144 HD
ATOM     16  H   UNL     1      35.288  -4.391 -29.418  0.00  0.00    +0.144 HD
ENDBRANCH  11  14
ENDBRANCH   7  11
BRANCH   5  17
ATOM     17  C   UNL     1      31.964  -8.848 -21.965  0.00  0.00    +0.112 C 
BRANCH  17  18
ATOM     18  C   UNL     1      32.383 -10.184 -22.477  0.00  0.00    -0.013 C 
ATOM     19  C   UNL     1      32.020 -11.342 -21.787  0.00  0.00    -0.004 C 
ATOM     20  C   UNL     1      33.138 -10.278 -23.646  0.00  0.00    -0.004 C 
ATOM     21  C   UNL     1      33.167 -12.685 -23.434  0.00  0.00    +0.018 C 
ATOM     22  C   UNL     1      32.411 -12.591 -22.265  0.00  0.00    +0.001 C 
ATOM     23  C   UNL     1      33.530 -11.529 -24.125  0.00  0.00    +0.001 C 
BRANCH  21  25
ATOM     24  N   UNL     1      33.100 -14.294 -25.156  0.00  0.00    -0.244 NA
ATOM     25  C   UNL     1      33.574 -13.982 -23.931  0.00  0.00    +0.081 C 
ATOM     26  C   UNL     1      34.388 -14.807 -23.176  0.00  0.00    +0.019 C 
ATOM     27  C   UNL     1      34.740 -16.040 -23.716  0.00  0.00    +0.003 C 
ATOM     28  C   UNL     1      33.463 -15.500 -25.648  0.00  0.00    +0.099 C 
ATOM     29  C   UNL     1      34.273 -16.400 -24.975  0.00  0.00    +0.021 C 
ENDBRANCH  21  25
ENDBRANCH  17  18
ENDBRANCH   5  17
TORSDOF 5
ENDMDL
MODEL 9
REMARK VINA RESULT:      -8.9      2.848      3.910
REMARK  Name = 491941
REMARK  5 active torsions:
REMARK  status: ('A' for Active; 'I' for Inactive)
REMARK    1  A    between atoms: C_5  and  C_17
REMARK    2  A    between atoms: C_7  and  S_11
REMARK    3  A    between atoms: S_11  and  N_14
REMARK    4  A    between atoms: C_17  and  C_18
REMARK    5  A    between atoms: C_21  and  C_25
REMARK                            x       y       z     vdW  Elec       q    Type
REMARK                         _______ _______ _______ _____ _____    ______ ____
ROOT
ATOM      1  S   UNL     1      33.106 -23.612 -14.900  0.00  0.00    -0.035 S 
ATOM      2  O   UNL     1      32.998 -22.042 -19.010  0.00  0.00    -0.274 OA
ATOM      3  N   UNL     1      34.148 -23.101 -17.250  0.00  0.00    -0.227 N 
ATOM      4  N   UNL     1      31.834 -23.766 -17.146  0.00  0.00    -0.386 NA
ATOM      5  C   UNL     1      34.053 -22.373 -18.462  0.00  0.00    +0.236 C 
ATOM      6  C   UNL     1      32.952 -23.501 -16.580  0.00  0.00    +0.217 C 
ATOM      7  C   UNL     1      31.458 -24.082 -14.858  0.00  0.00    +0.247 C 
ATOM      8  C   UNL     1      30.951 -24.109 -16.141  0.00  0.00    +0.123 C 
ATOM      9  C   UNL     1      35.452 -23.454 -16.667  0.00  0.00    +0.123 C 
ATOM     10  C   UNL     1      29.568 -24.467 -16.517  0.00  0.00    +0.064 C 
ENDROOT
BRANCH   7  11
ATOM     11  S   UNL     1      30.807 -24.415 -13.265  0.00  0.00    +0.052 S 
ATOM     12  O   UNL     1      31.163 -23.269 -12.434  0.00  0.00    -0.157 OA
ATOM     13  O   UNL     1      29.408 -24.761 -13.486  0.00  0.00    -0.157 OA
BRANCH  11  14
ATOM     14  N   UNL     1      31.606 -25.794 -12.617  0.00  0.00    -0.206 NA
ATOM     15  H   UNL     1      31.940 -26.383 -13.379  0.00  0.00    +0.144 HD
ATOM     16  H   UNL     1      30.953 -26.323 -12.037  0.00  0.00    +0.144 HD
ENDBRANCH  11  14
ENDBRANCH   7  11
BRANCH   5  17
ATOM     17  C   UNL     1      35.382 -21.943 -19.097  0.00  0.00    +0.112 C 
BRANCH  17  18
ATOM     18  C   UNL     1      35.237 -20.924 -20.176  0.00  0.00    -0.013 C 
ATOM     19  C   UNL     1      36.345 -20.181 -20.587  0.00  0.00    -0.004 C 
ATOM     20  C   UNL     1      33.995 -20.714 -20.775  0.00  0.00    -0.004 C 
ATOM     21  C   UNL     1      34.968 -19.018 -22.195  0.00  0.00    +0.018 C 
ATOM     22  C   UNL     1      36.210 -19.228 -21.596  0.00  0.00    +0.001 C 
ATOM     23  C   UNL     1      33.860 -19.760 -21.785  0.00  0.00    +0.001 C 
BRANCH  21  25
ATOM     24  N   UNL     1      34.408 -18.516 -24.430  0.00  0.00    -0.244 NA
ATOM     25  C   UNL     1      34.827 -18.029 -23.242  0.00  0.00    +0.081 C 
ATOM     26  C   UNL     1      35.109 -16.696 -23.002  0.00  0.00    +0.019 C 
ATOM     27  C   UNL     1      34.952 -15.800 -24.054  0.00  0.00    +0.003 C 
ATOM     28  C   UNL     1      34.267 -17.616 -25.430  0.00  0.00    +0.099 C 
ATOM     29  C   UNL     1      34.523 -16.261 -25.294  0.00  0.00    +0.021 C 
ENDBRANCH  21  25
ENDBRANCH  17  18
ENDBRANCH   5  17
TORSDOF 5
ENDMDL
