MODEL 1
REMARK VINA RESULT:     -12.3      0.000      0.000
REMARK  Name = 44141871
REMARK  6 active torsions:
REMARK  status: ('A' for Active; 'I' for Inactive)
REMARK    1  A    between atoms: C_1  and  C_10
REMARK    2  A    between atoms: C_4  and  O_20
REMARK    3  A    between atoms: C_9  and  C_13
REMARK    4  A    between atoms: C_13  and  C_15
REMARK    5  A    between atoms: O_20  and  C_21
REMARK    6  A    between atoms: C_21  and  C_23
REMARK                            x       y       z     vdW  Elec       q    Type
REMARK                         _______ _______ _______ _____ _____    ______ ____
ROOT
ATOM      1  C   UNL     1      34.740 -19.181 -22.524  0.00  0.00    +0.015 C 
ATOM      2  C   UNL     1      33.605 -19.775 -21.971  0.00  0.00    +0.004 C 
ATOM      3  C   UNL     1      35.988 -19.382 -21.935  0.00  0.00    +0.004 C 
ATOM      4  C   UNL     1      34.968 -20.772 -20.243  0.00  0.00    +0.139 C 
ATOM      5  C   UNL     1      33.719 -20.571 -20.831  0.00  0.00    +0.037 C 
ATOM      6  C   UNL     1      36.102 -20.178 -20.796  0.00  0.00    +0.037 C 
ENDROOT
BRANCH   1  10
ATOM      7  N   UNL     1      34.211 -18.853 -24.905  0.00  0.00    -0.236 N 
ATOM      8  N   UNL     1      34.166 -17.932 -25.884  0.00  0.00    -0.180 NA
ATOM      9  C   UNL     1      34.862 -17.022 -23.908  0.00  0.00    +0.018 C 
ATOM     10  C   UNL     1      34.621 -18.359 -23.703  0.00  0.00    +0.063 C 
ATOM     11  C   UNL     1      34.564 -16.816 -25.269  0.00  0.00    +0.115 C 
ATOM     12  H   UNL     1      33.969 -19.797 -25.044  0.00  0.00    +0.174 HD
BRANCH   9  13
ATOM     13  C   UNL     1      35.327 -16.020 -22.934  0.00  0.00    +0.056 C 
BRANCH  13  15
ATOM     14  N   UNL     1      32.443 -12.939 -22.015  0.00  0.00    -0.242 NA
ATOM     15  C   UNL     1      34.310 -14.933 -22.609  0.00  0.00    -0.015 C 
ATOM     16  C   UNL     1      33.834 -14.100 -23.617  0.00  0.00    +0.017 C 
ATOM     17  C   UNL     1      33.853 -14.771 -21.307  0.00  0.00    +0.017 C 
ATOM     18  C   UNL     1      32.910 -13.128 -23.270  0.00  0.00    +0.099 C 
ATOM     19  C   UNL     1      32.928 -13.768 -21.064  0.00  0.00    +0.099 C 
ENDBRANCH  13  15
ENDBRANCH   9  13
ENDBRANCH   1  10
BRANCH   4  20
ATOM     20  O   UNL     1      35.080 -21.556 -19.126  0.00  0.00    -0.468 OA
BRANCH  20  21
ATOM     21  C   UNL     1      34.390 -22.799 -19.142  0.00  0.00    +0.264 C 
BRANCH  21  23
ATOM     22  N   UNL     1      32.409 -22.983 -17.763  0.00  0.00    -0.406 NA
ATOM     23  C   UNL     1      33.760 -23.034 -17.810  0.00  0.00    +0.152 C 
ATOM     24  C   UNL     1      32.540 -23.454 -15.404  0.00  0.00    +0.026 C 
ATOM     25  C   UNL     1      31.805 -23.190 -16.578  0.00  0.00    +0.113 C 
ATOM     26  C   UNL     1      34.563 -23.283 -16.716  0.00  0.00    +0.031 C 
ATOM     27  C   UNL     1      33.938 -23.496 -15.496  0.00  0.00    +0.005 C 
ATOM     28  C   UNL     1      31.876 -23.665 -14.183  0.00  0.00    +0.002 C 
ATOM     29  C   UNL     1      30.416 -23.148 -16.486  0.00  0.00    +0.085 C 
ATOM     30  C   UNL     1      30.486 -23.616 -14.120  0.00  0.00    -0.004 C 
ATOM     31  C   UNL     1      29.755 -23.358 -15.272  0.00  0.00    -0.019 C 
ENDBRANCH  21  23
ENDBRANCH  20  21
ENDBRANCH   4  20
TORSDOF 6
ENDMDL
MODEL 2
REMARK VINA RESULT:     -12.3      2.787     10.524
REMARK  Name = 44141871
REMARK  6 active torsions:
REMARK  status: ('A' for Active; 'I' for Inactive)
REMARK    1  A    between atoms: C_1  and  C_10
REMARK    2  A    between atoms: C_4  and  O_20
REMARK    3  A    between atoms: C_9  and  C_13
REMARK    4  A    between atoms: C_13  and  C_15
REMARK    5  A    between atoms: O_20  and  C_21
REMARK    6  A    between atoms: C_21  and  C_23
REMARK                            x       y       z     vdW  Elec       q    Type
REMARK                         _______ _______ _______ _____ _____    ______ ____
ROOT
ATOM      1  C   UNL     1      34.311 -22.939 -17.102  0.00  0.00    +0.015 C 
ATOM      2  C   UNL     1      35.650 -22.577 -17.250  0.00  0.00    +0.004 C 
ATOM      3  C   UNL     1      33.411 -22.720 -18.145  0.00  0.00    +0.004 C 
ATOM      4  C   UNL     1      35.188 -21.778 -19.483  0.00  0.00    +0.139 C 
ATOM      5  C   UNL     1      36.088 -21.997 -18.440  0.00  0.00    +0.037 C 
ATOM      6  C   UNL     1      33.849 -22.140 -19.335  0.00  0.00    +0.037 C 
ENDROOT
BRANCH   1  10
ATOM      7  N   UNL     1      32.566 -23.928 -15.675  0.00  0.00    -0.236 N 
ATOM      8  N   UNL     1      32.338 -24.465 -14.464  0.00  0.00    -0.180 NA
ATOM      9  C   UNL     1      34.523 -23.842 -14.708  0.00  0.00    +0.018 C 
ATOM     10  C   UNL     1      33.858 -23.540 -15.871  0.00  0.00    +0.063 C 
ATOM     11  C   UNL     1      33.537 -24.410 -13.877  0.00  0.00    +0.115 C 
ATOM     12  H   UNL     1      31.864 -23.826 -16.358  0.00  0.00    +0.174 HD
BRANCH   9  13
ATOM     13  C   UNL     1      35.944 -23.627 -14.388  0.00  0.00    +0.056 C 
BRANCH  13  15
ATOM     14  N   UNL     1      38.431 -27.131 -14.822  0.00  0.00    -0.242 NA
ATOM     15  C   UNL     1      36.821 -24.863 -14.541  0.00  0.00    -0.015 C 
ATOM     16  C   UNL     1      38.132 -24.850 -14.076  0.00  0.00    +0.017 C 
ATOM     17  C   UNL     1      36.315 -26.008 -15.145  0.00  0.00    +0.017 C 
ATOM     18  C   UNL     1      38.888 -25.999 -14.240  0.00  0.00    +0.099 C 
ATOM     19  C   UNL     1      37.153 -27.105 -15.260  0.00  0.00    +0.099 C 
ENDBRANCH  13  15
ENDBRANCH   9  13
ENDBRANCH   1  10
BRANCH   4  20
ATOM     20  O   UNL     1      35.619 -21.211 -20.652  0.00  0.00    -0.468 OA
BRANCH  20  21
ATOM     21  C   UNL     1      36.529 -20.124 -20.541  0.00  0.00    +0.264 C 
BRANCH  21  23
ATOM     22  N   UNL     1      35.688 -17.859 -20.685  0.00  0.00    -0.406 NA
ATOM     23  C   UNL     1      36.035 -18.978 -21.360  0.00  0.00    +0.152 C 
ATOM     24  C   UNL     1      35.123 -16.842 -22.794  0.00  0.00    +0.026 C 
ATOM     25  C   UNL     1      35.238 -16.804 -21.389  0.00  0.00    +0.113 C 
ATOM     26  C   UNL     1      35.957 -19.110 -22.731  0.00  0.00    +0.031 C 
ATOM     27  C   UNL     1      35.492 -18.022 -23.455  0.00  0.00    +0.005 C 
ATOM     28  C   UNL     1      34.649 -15.722 -23.498  0.00  0.00    +0.002 C 
ATOM     29  C   UNL     1      34.871 -15.632 -20.733  0.00  0.00    +0.085 C 
ATOM     30  C   UNL     1      34.288 -14.563 -22.817  0.00  0.00    -0.004 C 
ATOM     31  C   UNL     1      34.400 -14.518 -21.433  0.00  0.00    -0.019 C 
ENDBRANCH  21  23
ENDBRANCH  20  21
ENDBRANCH   4  20
TORSDOF 6
ENDMDL
MODEL 3
REMARK VINA RESULT:     -12.2      1.256      1.950
REMARK  Name = 44141871
REMARK  6 active torsions:
REMARK  status: ('A' for Active; 'I' for Inactive)
REMARK    1  A    between atoms: C_1  and  C_10
REMARK    2  A    between atoms: C_4  and  O_20
REMARK    3  A    between atoms: C_9  and  C_13
REMARK    4  A    between atoms: C_13  and  C_15
REMARK    5  A    between atoms: O_20  and  C_21
REMARK    6  A    between atoms: C_21  and  C_23
REMARK                            x       y       z     vdW  Elec       q    Type
REMARK                         _______ _______ _______ _____ _____    ______ ____
ROOT
ATOM      1  C   UNL     1      35.001 -18.528 -22.895  0.00  0.00    +0.015 C 
ATOM      2  C   UNL     1      34.158 -19.419 -22.232  0.00  0.00    +0.004 C 
ATOM      3  C   UNL     1      36.303 -18.328 -22.437  0.00  0.00    +0.004 C 
ATOM      4  C   UNL     1      35.920 -19.912 -20.654  0.00  0.00    +0.139 C 
ATOM      5  C   UNL     1      34.618 -20.112 -21.112  0.00  0.00    +0.037 C 
ATOM      6  C   UNL     1      36.763 -19.020 -21.317  0.00  0.00    +0.037 C 
ENDROOT
BRANCH   1  10
ATOM      7  N   UNL     1      33.915 -18.435 -25.102  0.00  0.00    -0.236 N 
ATOM      8  N   UNL     1      33.544 -17.600 -26.089  0.00  0.00    -0.180 NA
ATOM      9  C   UNL     1      34.556 -16.477 -24.375  0.00  0.00    +0.018 C 
ATOM     10  C   UNL     1      34.525 -17.813 -24.054  0.00  0.00    +0.063 C 
ATOM     11  C   UNL     1      33.938 -16.405 -25.639  0.00  0.00    +0.115 C 
ATOM     12  H   UNL     1      33.760 -19.407 -25.134  0.00  0.00    +0.174 HD
BRANCH   9  13
ATOM     13  C   UNL     1      35.108 -15.363 -23.587  0.00  0.00    +0.056 C 
BRANCH  13  15
ATOM     14  N   UNL     1      32.182 -13.171 -21.287  0.00  0.00    -0.242 NA
ATOM     15  C   UNL     1      34.076 -14.590 -22.776  0.00  0.00    -0.015 C 
ATOM     16  C   UNL     1      33.261 -13.651 -23.398  0.00  0.00    +0.017 C 
ATOM     17  C   UNL     1      33.946 -14.820 -21.411  0.00  0.00    +0.017 C 
ATOM     18  C   UNL     1      32.339 -12.974 -22.616  0.00  0.00    +0.099 C 
ATOM     19  C   UNL     1      32.992 -14.091 -20.718  0.00  0.00    +0.099 C 
ENDBRANCH  13  15
ENDBRANCH   9  13
ENDBRANCH   1  10
BRANCH   4  20
ATOM     20  O   UNL     1      36.373 -20.594 -19.556  0.00  0.00    -0.468 OA
BRANCH  20  21
ATOM     21  C   UNL     1      36.246 -22.010 -19.584  0.00  0.00    +0.264 C 
BRANCH  21  23
ATOM     22  N   UNL     1      35.642 -22.811 -17.381  0.00  0.00    -0.406 NA
ATOM     23  C   UNL     1      35.204 -22.433 -18.603  0.00  0.00    +0.152 C 
ATOM     24  C   UNL     1      33.351 -23.222 -16.759  0.00  0.00    +0.026 C 
ATOM     25  C   UNL     1      34.731 -23.200 -16.470  0.00  0.00    +0.113 C 
ATOM     26  C   UNL     1      33.876 -22.422 -18.979  0.00  0.00    +0.031 C 
ATOM     27  C   UNL     1      32.939 -22.824 -18.038  0.00  0.00    +0.005 C 
ATOM     28  C   UNL     1      32.427 -23.634 -15.784  0.00  0.00    +0.002 C 
ATOM     29  C   UNL     1      35.139 -23.596 -15.198  0.00  0.00    +0.085 C 
ATOM     30  C   UNL     1      32.863 -24.025 -14.521  0.00  0.00    -0.004 C 
ATOM     31  C   UNL     1      34.221 -24.006 -14.228  0.00  0.00    -0.019 C 
ENDBRANCH  21  23
ENDBRANCH  20  21
ENDBRANCH   4  20
TORSDOF 6
ENDMDL
MODEL 4
REMARK VINA RESULT:     -12.2      1.763      2.477
REMARK  Name = 44141871
REMARK  6 active torsions:
REMARK  status: ('A' for Active; 'I' for Inactive)
REMARK    1  A    between atoms: C_1  and  C_10
REMARK    2  A    between atoms: C_4  and  O_20
REMARK    3  A    between atoms: C_9  and  C_13
REMARK    4  A    between atoms: C_13  and  C_15
REMARK    5  A    between atoms: O_20  and  C_21
REMARK    6  A    between atoms: C_21  and  C_23
REMARK                            x       y       z     vdW  Elec       q    Type
REMARK                         _______ _______ _______ _____ _____    ______ ____
ROOT
ATOM      1  C   UNL     1      35.162 -18.709 -22.669  0.00  0.00    +0.015 C 
ATOM      2  C   UNL     1      34.302 -19.639 -22.086  0.00  0.00    +0.004 C 
ATOM      3  C   UNL     1      36.454 -18.545 -22.168  0.00  0.00    +0.004 C 
ATOM      4  C   UNL     1      36.023 -20.241 -20.501  0.00  0.00    +0.139 C 
ATOM      5  C   UNL     1      34.732 -20.405 -21.003  0.00  0.00    +0.037 C 
ATOM      6  C   UNL     1      36.884 -19.311 -21.084  0.00  0.00    +0.037 C 
ENDROOT
BRANCH   1  10
ATOM      7  N   UNL     1      34.199 -18.473 -24.921  0.00  0.00    -0.236 N 
ATOM      8  N   UNL     1      33.842 -17.573 -25.854  0.00  0.00    -0.180 NA
ATOM      9  C   UNL     1      34.699 -16.560 -23.994  0.00  0.00    +0.018 C 
ATOM     10  C   UNL     1      34.717 -17.918 -23.789  0.00  0.00    +0.063 C 
ATOM     11  C   UNL     1      34.150 -16.406 -25.282  0.00  0.00    +0.115 C 
ATOM     12  H   UNL     1      34.094 -19.445 -25.045  0.00  0.00    +0.174 HD
BRANCH   9  13
ATOM     13  C   UNL     1      35.150 -15.494 -23.083  0.00  0.00    +0.056 C 
BRANCH  13  15
ATOM     14  N   UNL     1      32.004 -12.893 -21.671  0.00  0.00    -0.242 NA
ATOM     15  C   UNL     1      34.040 -14.577 -22.585  0.00  0.00    -0.015 C 
ATOM     16  C   UNL     1      33.618 -14.648 -21.262  0.00  0.00    +0.017 C 
ATOM     17  C   UNL     1      33.447 -13.666 -23.451  0.00  0.00    +0.017 C 
ATOM     18  C   UNL     1      32.605 -13.792 -20.859  0.00  0.00    +0.099 C 
ATOM     19  C   UNL     1      32.442 -12.854 -22.950  0.00  0.00    +0.099 C 
ENDBRANCH  13  15
ENDBRANCH   9  13
ENDBRANCH   1  10
BRANCH   4  20
ATOM     20  O   UNL     1      36.448 -20.995 -19.440  0.00  0.00    -0.468 OA
BRANCH  20  21
ATOM     21  C   UNL     1      35.610 -22.074 -19.045  0.00  0.00    +0.264 C 
BRANCH  21  23
ATOM     22  N   UNL     1      34.899 -23.057 -16.951  0.00  0.00    -0.406 NA
ATOM     23  C   UNL     1      35.887 -22.421 -17.620  0.00  0.00    +0.152 C 
ATOM     24  C   UNL     1      36.324 -23.086 -15.009  0.00  0.00    +0.026 C 
ATOM     25  C   UNL     1      35.112 -23.386 -15.663  0.00  0.00    +0.113 C 
ATOM     26  C   UNL     1      37.105 -22.085 -17.066  0.00  0.00    +0.031 C 
ATOM     27  C   UNL     1      37.321 -22.425 -15.738  0.00  0.00    +0.005 C 
ATOM     28  C   UNL     1      36.512 -23.444 -13.663  0.00  0.00    +0.002 C 
ATOM     29  C   UNL     1      34.121 -24.043 -14.937  0.00  0.00    +0.085 C 
ATOM     30  C   UNL     1      35.504 -24.099 -12.961  0.00  0.00    -0.004 C 
ATOM     31  C   UNL     1      34.308 -24.400 -13.599  0.00  0.00    -0.019 C 
ENDBRANCH  21  23
ENDBRANCH  20  21
ENDBRANCH   4  20
TORSDOF 6
ENDMDL
MODEL 5
REMARK VINA RESULT:     -12.1      2.197     10.023
REMARK  Name = 44141871
REMARK  6 active torsions:
REMARK  status: ('A' for Active; 'I' for Inactive)
REMARK    1  A    between atoms: C_1  and  C_10
REMARK    2  A    between atoms: C_4  and  O_20
REMARK    3  A    between atoms: C_9  and  C_13
REMARK    4  A    between atoms: C_13  and  C_15
REMARK    5  A    between atoms: O_20  and  C_21
REMARK    6  A    between atoms: C_21  and  C_23
REMARK                            x       y       z     vdW  Elec       q    Type
REMARK                         _______ _______ _______ _____ _____    ______ ____
ROOT
ATOM      1  C   UNL     1      34.935 -23.122 -16.897  0.00  0.00    +0.015 C 
ATOM      2  C   UNL     1      33.836 -23.129 -17.756  0.00  0.00    +0.004 C 
ATOM      3  C   UNL     1      36.098 -22.443 -17.260  0.00  0.00    +0.004 C 
ATOM      4  C   UNL     1      35.063 -21.777 -19.339  0.00  0.00    +0.139 C 
ATOM      5  C   UNL     1      33.900 -22.456 -18.976  0.00  0.00    +0.037 C 
ATOM      6  C   UNL     1      36.162 -21.770 -18.480  0.00  0.00    +0.037 C 
ENDROOT
BRANCH   1  10
ATOM      7  N   UNL     1      35.820 -24.708 -15.236  0.00  0.00    -0.236 N 
ATOM      8  N   UNL     1      35.582 -25.253 -14.030  0.00  0.00    -0.180 NA
ATOM      9  C   UNL     1      33.942 -23.777 -14.622  0.00  0.00    +0.018 C 
ATOM     10  C   UNL     1      34.868 -23.817 -15.635  0.00  0.00    +0.063 C 
ATOM     11  C   UNL     1      34.433 -24.681 -13.660  0.00  0.00    +0.115 C 
ATOM     12  H   UNL     1      36.610 -24.930 -15.780  0.00  0.00    +0.174 HD
BRANCH   9  13
ATOM     13  C   UNL     1      32.709 -22.974 -14.546  0.00  0.00    +0.056 C 
BRANCH  13  15
ATOM     14  N   UNL     1      29.114 -25.101 -15.645  0.00  0.00    -0.242 NA
ATOM     15  C   UNL     1      31.441 -23.725 -14.933  0.00  0.00    -0.015 C 
ATOM     16  C   UNL     1      30.608 -23.219 -15.925  0.00  0.00    +0.017 C 
ATOM     17  C   UNL     1      31.113 -24.916 -14.298  0.00  0.00    +0.017 C 
ATOM     18  C   UNL     1      29.466 -23.939 -16.241  0.00  0.00    +0.099 C 
ATOM     19  C   UNL     1      29.949 -25.560 -14.686  0.00  0.00    +0.099 C 
ENDBRANCH  13  15
ENDBRANCH   9  13
ENDBRANCH   1  10
BRANCH   4  20
ATOM     20  O   UNL     1      35.125 -21.114 -20.535  0.00  0.00    -0.468 OA
BRANCH  20  21
ATOM     21  C   UNL     1      36.244 -20.261 -20.738  0.00  0.00    +0.264 C 
BRANCH  21  23
ATOM     22  N   UNL     1      35.553 -17.942 -20.773  0.00  0.00    -0.406 NA
ATOM     23  C   UNL     1      35.815 -19.052 -21.500  0.00  0.00    +0.152 C 
ATOM     24  C   UNL     1      35.024 -16.802 -22.828  0.00  0.00    +0.026 C 
ATOM     25  C   UNL     1      35.163 -16.831 -21.426  0.00  0.00    +0.113 C 
ATOM     26  C   UNL     1      35.707 -19.120 -22.874  0.00  0.00    +0.031 C 
ATOM     27  C   UNL     1      35.304 -17.974 -23.544  0.00  0.00    +0.005 C 
ATOM     28  C   UNL     1      34.615 -15.624 -23.477  0.00  0.00    +0.002 C 
ATOM     29  C   UNL     1      34.884 -15.666 -20.715  0.00  0.00    +0.085 C 
ATOM     30  C   UNL     1      34.341 -14.474 -22.742  0.00  0.00    -0.004 C 
ATOM     31  C   UNL     1      34.477 -14.494 -21.360  0.00  0.00    -0.019 C 
ENDBRANCH  21  23
ENDBRANCH  20  21
ENDBRANCH   4  20
TORSDOF 6
ENDMDL
MODEL 6
REMARK VINA RESULT:     -11.9      1.418      2.656
REMARK  Name = 44141871
REMARK  6 active torsions:
REMARK  status: ('A' for Active; 'I' for Inactive)
REMARK    1  A    between atoms: C_1  and  C_10
REMARK    2  A    between atoms: C_4  and  O_20
REMARK    3  A    between atoms: C_9  and  C_13
REMARK    4  A    between atoms: C_13  and  C_15
REMARK    5  A    between atoms: O_20  and  C_21
REMARK    6  A    between atoms: C_21  and  C_23
REMARK                            x       y       z     vdW  Elec       q    Type
REMARK                         _______ _______ _______ _____ _____    ______ ____
ROOT
ATOM      1  C   UNL     1      34.883 -19.096 -22.544  0.00  0.00    +0.015 C 
ATOM      2  C   UNL     1      36.153 -19.200 -21.977  0.00  0.00    +0.004 C 
ATOM      3  C   UNL     1      33.807 -19.775 -21.973  0.00  0.00    +0.004 C 
ATOM      4  C   UNL     1      35.271 -20.663 -20.268  0.00  0.00    +0.139 C 
ATOM      5  C   UNL     1      36.347 -19.983 -20.839  0.00  0.00    +0.037 C 
ATOM      6  C   UNL     1      34.001 -20.558 -20.836  0.00  0.00    +0.037 C 
ENDROOT
BRANCH   1  10
ATOM      7  N   UNL     1      34.240 -18.802 -24.902  0.00  0.00    -0.236 N 
ATOM      8  N   UNL     1      34.118 -17.889 -25.882  0.00  0.00    -0.180 NA
ATOM      9  C   UNL     1      34.866 -16.942 -23.941  0.00  0.00    +0.018 C 
ATOM     10  C   UNL     1      34.684 -18.285 -23.720  0.00  0.00    +0.063 C 
ATOM     11  C   UNL     1      34.502 -16.755 -25.289  0.00  0.00    +0.115 C 
ATOM     12  H   UNL     1      34.027 -19.755 -25.026  0.00  0.00    +0.174 HD
BRANCH   9  13
ATOM     13  C   UNL     1      35.336 -15.917 -22.993  0.00  0.00    +0.056 C 
BRANCH  13  15
ATOM     14  N   UNL     1      32.372 -12.960 -21.936  0.00  0.00    -0.242 NA
ATOM     15  C   UNL     1      34.290 -14.874 -22.620  0.00  0.00    -0.015 C 
ATOM     16  C   UNL     1      33.738 -14.058 -23.602  0.00  0.00    +0.017 C 
ATOM     17  C   UNL     1      33.885 -14.734 -21.298  0.00  0.00    +0.017 C 
ATOM     18  C   UNL     1      32.792 -13.125 -23.211  0.00  0.00    +0.099 C 
ATOM     19  C   UNL     1      32.931 -13.771 -21.010  0.00  0.00    +0.099 C 
ENDBRANCH  13  15
ENDBRANCH   9  13
ENDBRANCH   1  10
BRANCH   4  20
ATOM     20  O   UNL     1      35.460 -21.429 -19.149  0.00  0.00    -0.468 OA
BRANCH  20  21
ATOM     21  C   UNL     1      34.554 -22.507 -18.950  0.00  0.00    +0.264 C 
BRANCH  21  23
ATOM     22  N   UNL     1      35.813 -22.853 -16.912  0.00  0.00    -0.406 NA
ATOM     23  C   UNL     1      34.611 -22.946 -17.525  0.00  0.00    +0.152 C 
ATOM     24  C   UNL     1      34.789 -23.732 -14.916  0.00  0.00    +0.026 C 
ATOM     25  C   UNL     1      35.904 -23.239 -15.625  0.00  0.00    +0.113 C 
ATOM     26  C   UNL     1      33.466 -23.416 -16.915  0.00  0.00    +0.031 C 
ATOM     27  C   UNL     1      33.563 -23.814 -15.589  0.00  0.00    +0.005 C 
ATOM     28  C   UNL     1      34.920 -24.127 -13.574  0.00  0.00    +0.002 C 
ATOM     29  C   UNL     1      37.123 -23.159 -14.956  0.00  0.00    +0.085 C 
ATOM     30  C   UNL     1      36.151 -24.037 -12.930  0.00  0.00    -0.004 C 
ATOM     31  C   UNL     1      37.253 -23.551 -13.622  0.00  0.00    -0.019 C 
ENDBRANCH  21  23
ENDBRANCH  20  21
ENDBRANCH   4  20
TORSDOF 6
ENDMDL
MODEL 7
REMARK VINA RESULT:     -11.9      2.417     10.152
REMARK  Name = 44141871
REMARK  6 active torsions:
REMARK  status: ('A' for Active; 'I' for Inactive)
REMARK    1  A    between atoms: C_1  and  C_10
REMARK    2  A    between atoms: C_4  and  O_20
REMARK    3  A    between atoms: C_9  and  C_13
REMARK    4  A    between atoms: C_13  and  C_15
REMARK    5  A    between atoms: O_20  and  C_21
REMARK    6  A    between atoms: C_21  and  C_23
REMARK                            x       y       z     vdW  Elec       q    Type
REMARK                         _______ _______ _______ _____ _____    ______ ____
ROOT
ATOM      1  C   UNL     1      34.707 -23.186 -16.738  0.00  0.00    +0.015 C 
ATOM      2  C   UNL     1      33.577 -23.148 -17.554  0.00  0.00    +0.004 C 
ATOM      3  C   UNL     1      35.894 -22.586 -17.161  0.00  0.00    +0.004 C 
ATOM      4  C   UNL     1      34.819 -21.911 -19.217  0.00  0.00    +0.139 C 
ATOM      5  C   UNL     1      33.633 -22.511 -18.794  0.00  0.00    +0.037 C 
ATOM      6  C   UNL     1      35.949 -21.949 -18.401  0.00  0.00    +0.037 C 
ENDROOT
BRANCH   1  10
ATOM      7  N   UNL     1      35.612 -24.711 -15.031  0.00  0.00    -0.236 N 
ATOM      8  N   UNL     1      35.380 -25.224 -13.810  0.00  0.00    -0.180 NA
ATOM      9  C   UNL     1      33.721 -23.786 -14.445  0.00  0.00    +0.018 C 
ATOM     10  C   UNL     1      34.649 -23.844 -15.456  0.00  0.00    +0.063 C 
ATOM     11  C   UNL     1      34.224 -24.656 -13.456  0.00  0.00    +0.115 C 
ATOM     12  H   UNL     1      36.405 -24.939 -15.567  0.00  0.00    +0.174 HD
BRANCH   9  13
ATOM     13  C   UNL     1      32.478 -22.998 -14.392  0.00  0.00    +0.056 C 
BRANCH  13  15
ATOM     14  N   UNL     1      28.956 -25.115 -15.721  0.00  0.00    -0.242 NA
ATOM     15  C   UNL     1      31.236 -23.745 -14.861  0.00  0.00    -0.015 C 
ATOM     16  C   UNL     1      30.910 -24.976 -14.302  0.00  0.00    +0.017 C 
ATOM     17  C   UNL     1      30.424 -23.198 -15.847  0.00  0.00    +0.017 C 
ATOM     18  C   UNL     1      29.770 -25.615 -14.764  0.00  0.00    +0.099 C 
ATOM     19  C   UNL     1      29.306 -23.916 -16.239  0.00  0.00    +0.099 C 
ENDBRANCH  13  15
ENDBRANCH   9  13
ENDBRANCH   1  10
BRANCH   4  20
ATOM     20  O   UNL     1      34.873 -21.282 -20.433  0.00  0.00    -0.468 OA
BRANCH  20  21
ATOM     21  C   UNL     1      35.999 -20.447 -20.673  0.00  0.00    +0.264 C 
BRANCH  21  23
ATOM     22  N   UNL     1      34.992 -19.756 -22.763  0.00  0.00    -0.406 NA
ATOM     23  C   UNL     1      35.619 -19.367 -21.630  0.00  0.00    +0.152 C 
ATOM     24  C   UNL     1      34.897 -17.443 -23.427  0.00  0.00    +0.026 C 
ATOM     25  C   UNL     1      34.634 -18.810 -23.651  0.00  0.00    +0.113 C 
ATOM     26  C   UNL     1      35.919 -18.055 -21.324  0.00  0.00    +0.031 C 
ATOM     27  C   UNL     1      35.550 -17.082 -22.240  0.00  0.00    +0.005 C 
ATOM     28  C   UNL     1      34.509 -16.481 -24.375  0.00  0.00    +0.002 C 
ATOM     29  C   UNL     1      33.986 -19.168 -24.830  0.00  0.00    +0.085 C 
ATOM     30  C   UNL     1      33.862 -16.867 -25.546  0.00  0.00    -0.004 C 
ATOM     31  C   UNL     1      33.600 -18.212 -25.773  0.00  0.00    -0.019 C 
ENDBRANCH  21  23
ENDBRANCH  20  21
ENDBRANCH   4  20
TORSDOF 6
ENDMDL
MODEL 8
REMARK VINA RESULT:     -11.9      2.856     10.667
REMARK  Name = 44141871
REMARK  6 active torsions:
REMARK  status: ('A' for Active; 'I' for Inactive)
REMARK    1  A    between atoms: C_1  and  C_10
REMARK    2  A    between atoms: C_4  and  O_20
REMARK    3  A    between atoms: C_9  and  C_13
REMARK    4  A    between atoms: C_13  and  C_15
REMARK    5  A    between atoms: O_20  and  C_21
REMARK    6  A    between atoms: C_21  and  C_23
REMARK                            x       y       z     vdW  Elec       q    Type
REMARK                         _______ _______ _______ _____ _____    ______ ____
ROOT
ATOM      1  C   UNL     1      34.163 -23.156 -16.664  0.00  0.00    +0.015 C 
ATOM      2  C   UNL     1      33.164 -23.053 -17.632  0.00  0.00    +0.004 C 
ATOM      3  C   UNL     1      35.453 -22.706 -16.942  0.00  0.00    +0.004 C 
ATOM      4  C   UNL     1      34.746 -22.046 -19.157  0.00  0.00    +0.139 C 
ATOM      5  C   UNL     1      33.456 -22.497 -18.878  0.00  0.00    +0.037 C 
ATOM      6  C   UNL     1      35.745 -22.150 -18.188  0.00  0.00    +0.037 C 
ENDROOT
BRANCH   1  10
ATOM      7  N   UNL     1      32.611 -24.156 -15.036  0.00  0.00    -0.236 N 
ATOM      8  N   UNL     1      32.528 -24.660 -13.792  0.00  0.00    -0.180 NA
ATOM      9  C   UNL     1      34.651 -23.970 -14.278  0.00  0.00    +0.018 C 
ATOM     10  C   UNL     1      33.861 -23.730 -15.376  0.00  0.00    +0.063 C 
ATOM     11  C   UNL     1      33.777 -24.543 -13.334  0.00  0.00    +0.115 C 
ATOM     12  H   UNL     1      31.840 -24.102 -15.646  0.00  0.00    +0.174 HD
BRANCH   9  13
ATOM     13  C   UNL     1      36.089 -23.694 -14.113  0.00  0.00    +0.056 C 
BRANCH  13  15
ATOM     14  N   UNL     1      38.650 -27.124 -14.684  0.00  0.00    -0.242 NA
ATOM     15  C   UNL     1      36.992 -24.904 -14.314  0.00  0.00    -0.015 C 
ATOM     16  C   UNL     1      38.294 -24.892 -13.824  0.00  0.00    +0.017 C 
ATOM     17  C   UNL     1      36.519 -26.024 -14.988  0.00  0.00    +0.017 C 
ATOM     18  C   UNL     1      39.074 -26.017 -14.034  0.00  0.00    +0.099 C 
ATOM     19  C   UNL     1      37.379 -27.098 -15.145  0.00  0.00    +0.099 C 
ENDBRANCH  13  15
ENDBRANCH   9  13
ENDBRANCH   1  10
BRANCH   4  20
ATOM     20  O   UNL     1      35.032 -21.498 -20.379  0.00  0.00    -0.468 OA
BRANCH  20  21
ATOM     21  C   UNL     1      36.052 -20.509 -20.414  0.00  0.00    +0.264 C 
BRANCH  21  23
ATOM     22  N   UNL     1      35.110 -19.890 -22.557  0.00  0.00    -0.406 NA
ATOM     23  C   UNL     1      35.691 -19.460 -21.413  0.00  0.00    +0.152 C 
ATOM     24  C   UNL     1      35.004 -17.597 -23.286  0.00  0.00    +0.026 C 
ATOM     25  C   UNL     1      34.771 -18.973 -23.482  0.00  0.00    +0.113 C 
ATOM     26  C   UNL     1      35.960 -18.136 -21.133  0.00  0.00    +0.031 C 
ATOM     27  C   UNL     1      35.609 -17.194 -22.088  0.00  0.00    +0.005 C 
ATOM     28  C   UNL     1      34.636 -16.667 -24.274  0.00  0.00    +0.002 C 
ATOM     29  C   UNL     1      34.170 -19.373 -24.673  0.00  0.00    +0.085 C 
ATOM     30  C   UNL     1      34.038 -17.094 -25.456  0.00  0.00    -0.004 C 
ATOM     31  C   UNL     1      33.804 -18.449 -25.655  0.00  0.00    -0.019 C 
ENDBRANCH  21  23
ENDBRANCH  20  21
ENDBRANCH   4  20
TORSDOF 6
ENDMDL
MODEL 9
REMARK VINA RESULT:     -11.8      3.861     11.263
REMARK  Name = 44141871
REMARK  6 active torsions:
REMARK  status: ('A' for Active; 'I' for Inactive)
REMARK    1  A    between atoms: C_1  and  C_10
REMARK    2  A    between atoms: C_4  and  O_20
REMARK    3  A    between atoms: C_9  and  C_13
REMARK    4  A    between atoms: C_13  and  C_15
REMARK    5  A    between atoms: O_20  and  C_21
REMARK    6  A    between atoms: C_21  and  C_23
REMARK                            x       y       z     vdW  Elec       q    Type
REMARK                         _______ _______ _______ _____ _____    ______ ____
ROOT
ATOM      1  C   UNL     1      34.255 -16.412 -24.060  0.00  0.00    +0.015 C 
ATOM      2  C   UNL     1      34.746 -15.830 -22.891  0.00  0.00    +0.004 C 
ATOM      3  C   UNL     1      33.583 -15.629 -24.998  0.00  0.00    +0.004 C 
ATOM      4  C   UNL     1      33.892 -13.683 -23.599  0.00  0.00    +0.139 C 
ATOM      5  C   UNL     1      34.565 -14.466 -22.661  0.00  0.00    +0.037 C 
ATOM      6  C   UNL     1      33.402 -14.265 -24.768  0.00  0.00    +0.037 C 
ENDROOT
BRANCH   1  10
ATOM      7  N   UNL     1      34.128 -18.415 -25.484  0.00  0.00    -0.236 N 
ATOM      8  N   UNL     1      34.373 -19.737 -25.512  0.00  0.00    -0.180 NA
ATOM      9  C   UNL     1      34.927 -18.823 -23.492  0.00  0.00    +0.018 C 
ATOM     10  C   UNL     1      34.443 -17.822 -24.298  0.00  0.00    +0.063 C 
ATOM     11  C   UNL     1      34.861 -19.981 -24.293  0.00  0.00    +0.115 C 
ATOM     12  H   UNL     1      33.756 -17.921 -26.251  0.00  0.00    +0.174 HD
BRANCH   9  13
ATOM     13  C   UNL     1      35.409 -18.724 -22.104  0.00  0.00    +0.056 C 
BRANCH  13  15
ATOM     14  N   UNL     1      34.109 -21.932 -19.521  0.00  0.00    -0.242 NA
ATOM     15  C   UNL     1      34.951 -19.856 -21.193  0.00  0.00    -0.015 C 
ATOM     16  C   UNL     1      33.593 -20.091 -21.003  0.00  0.00    +0.017 C 
ATOM     17  C   UNL     1      35.887 -20.657 -20.550  0.00  0.00    +0.017 C 
ATOM     18  C   UNL     1      33.228 -21.132 -20.164  0.00  0.00    +0.099 C 
ATOM     19  C   UNL     1      35.419 -21.672 -19.731  0.00  0.00    +0.099 C 
ENDBRANCH  13  15
ENDBRANCH   9  13
ENDBRANCH   1  10
BRANCH   4  20
ATOM     20  O   UNL     1      33.717 -12.344 -23.375  0.00  0.00    -0.468 OA
BRANCH  20  21
ATOM     21  C   UNL     1      33.871 -11.481 -24.495  0.00  0.00    +0.264 C 
BRANCH  21  23
ATOM     22  N   UNL     1      32.464  -9.631 -23.817  0.00  0.00    -0.406 NA
ATOM     23  C   UNL     1      33.724 -10.063 -24.052  0.00  0.00    +0.152 C 
ATOM     24  C   UNL     1      33.381  -7.480 -23.240  0.00  0.00    +0.026 C 
ATOM     25  C   UNL     1      32.292  -8.358 -23.417  0.00  0.00    +0.113 C 
ATOM     26  C   UNL     1      34.850  -9.279 -23.908  0.00  0.00    +0.031 C 
ATOM     27  C   UNL     1      34.670  -7.967 -23.495  0.00  0.00    +0.005 C 
ATOM     28  C   UNL     1      33.164  -6.156 -22.820  0.00  0.00    +0.002 C 
ATOM     29  C   UNL     1      31.011  -7.873 -23.164  0.00  0.00    +0.085 C 
ATOM     30  C   UNL     1      31.873  -5.697 -22.575  0.00  0.00    -0.004 C 
ATOM     31  C   UNL     1      30.795  -6.557 -22.746  0.00  0.00    -0.019 C 
ENDBRANCH  21  23
ENDBRANCH  20  21
ENDBRANCH   4  20
TORSDOF 6
ENDMDL
