MODEL 1
REMARK VINA RESULT:     -12.7      0.000      0.000
REMARK  Name = 72734520
REMARK  6 active torsions:
REMARK  status: ('A' for Active; 'I' for Inactive)
REMARK    1  A    between atoms: N_1  and  C_19
REMARK    2  A    between atoms: C_8  and  O_28
REMARK    3  A    between atoms: C_14  and  N_20
REMARK    4  A    between atoms: O_28  and  C_29
REMARK    5  A    between atoms: C_32  and  N_36
REMARK    6  A    between atoms: C_37  and  C_39
REMARK                            x       y       z     vdW  Elec       q    Type
REMARK                         _______ _______ _______ _____ _____    ______ ____
ROOT
ATOM      1  N   UNL     1      36.919 -21.404 -18.434  0.00  0.00    -0.238 N 
ATOM      2  N   UNL     1      37.098 -22.833 -16.598  0.00  0.00    -0.316 NA
ATOM      3  N   UNL     1      35.012 -22.616 -17.835  0.00  0.00    -0.294 NA
ATOM      4  N   UNL     1      36.943 -24.387 -14.760  0.00  0.00    -0.289 N 
ATOM      5  C   UNL     1      36.309 -22.338 -17.574  0.00  0.00    +0.207 C 
ATOM      6  C   UNL     1      35.098 -24.093 -15.980  0.00  0.00    +0.181 C 
ATOM      7  C   UNL     1      36.425 -23.710 -15.832  0.00  0.00    +0.188 C 
ATOM      8  C   UNL     1      34.391 -23.507 -17.029  0.00  0.00    +0.281 C 
ATOM      9  C   UNL     1      34.822 -25.032 -14.954  0.00  0.00    +0.008 C 
ATOM     10  C   UNL     1      35.976 -25.193 -14.217  0.00  0.00    +0.060 C 
ATOM     11  H   UNL     1      37.862 -21.223 -18.218  0.00  0.00    +0.166 HD
ATOM     12  H   UNL     1      37.867 -24.306 -14.429  0.00  0.00    +0.154 HD
ENDROOT
BRANCH   1  19
ATOM     13  F   UNL     1      33.395 -20.312 -21.494  0.00  0.00    -0.203 F 
ATOM     14  C   UNL     1      35.502 -19.246 -21.749  0.00  0.00    +0.076 C 
ATOM     15  C   UNL     1      34.659 -20.136 -21.084  0.00  0.00    +0.155 C 
ATOM     16  C   UNL     1      36.816 -19.074 -21.313  0.00  0.00    +0.018 C 
ATOM     17  C   UNL     1      35.129 -20.853 -19.983  0.00  0.00    +0.046 C 
ATOM     18  C   UNL     1      37.286 -19.790 -20.212  0.00  0.00    +0.017 C 
ATOM     19  C   UNL     1      36.443 -20.679 -19.547  0.00  0.00    +0.061 C 
BRANCH  14  20
ATOM     20  N   UNL     1      35.033 -18.527 -22.854  0.00  0.00    -0.310 N 
ATOM     21  N   UNL     1      34.324 -17.047 -25.191  0.00  0.00    +0.388 N 
ATOM     22  C   UNL     1      35.457 -17.128 -22.996  0.00  0.00    +0.068 C 
ATOM     23  C   UNL     1      34.734 -19.230 -24.105  0.00  0.00    +0.068 C 
ATOM     24  C   UNL     1      34.489 -16.364 -23.902  0.00  0.00    -0.056 C 
ATOM     25  C   UNL     1      33.790 -18.397 -24.976  0.00  0.00    -0.056 C 
ATOM     26  C   UNL     1      33.440 -16.279 -26.068  0.00  0.00    -0.101 C 
ATOM     27  H   UNL     1      35.235 -17.121 -25.643  0.00  0.00    -0.080 HD
ENDBRANCH  14  20
ENDBRANCH   1  19
BRANCH   8  28
ATOM     28  O   UNL     1      33.075 -23.801 -17.283  0.00  0.00    -0.429 OA
BRANCH  28  29
ATOM     29  C   UNL     1      32.162 -23.526 -16.284  0.00  0.00    +0.149 C 
ATOM     30  C   UNL     1      30.871 -23.115 -16.615  0.00  0.00    +0.052 C 
ATOM     31  C   UNL     1      32.530 -23.660 -14.946  0.00  0.00    +0.038 C 
ATOM     32  C   UNL     1      29.947 -22.839 -15.607  0.00  0.00    +0.054 C 
ATOM     33  C   UNL     1      30.315 -22.973 -14.268  0.00  0.00    +0.015 C 
ATOM     34  C   UNL     1      31.606 -23.385 -13.938  0.00  0.00    +0.004 C 
BRANCH  32  36
ATOM     35  O   UNL     1      27.871 -24.155 -17.332  0.00  0.00    -0.270 OA
ATOM     36  N   UNL     1      28.655 -22.428 -15.938  0.00  0.00    -0.280 N 
ATOM     37  C   UNL     1      27.722 -23.086 -16.752  0.00  0.00    +0.250 C 
ATOM     38  H   UNL     1      28.362 -21.572 -15.551  0.00  0.00    +0.155 HD
BRANCH  37  39
ATOM     39  C   UNL     1      26.448 -22.318 -16.859  0.00  0.00    +0.058 C 
ATOM     40  C   UNL     1      26.177 -21.600 -17.953  0.00  0.00    +0.005 C 
ENDBRANCH  37  39
ENDBRANCH  32  36
ENDBRANCH  28  29
ENDBRANCH   8  28
TORSDOF 6
ENDMDL
MODEL 2
REMARK VINA RESULT:     -12.2      3.985     10.377
REMARK  Name = 72734520
REMARK  6 active torsions:
REMARK  status: ('A' for Active; 'I' for Inactive)
REMARK    1  A    between atoms: N_1  and  C_19
REMARK    2  A    between atoms: C_8  and  O_28
REMARK    3  A    between atoms: C_14  and  N_20
REMARK    4  A    between atoms: O_28  and  C_29
REMARK    5  A    between atoms: C_32  and  N_36
REMARK    6  A    between atoms: C_37  and  C_39
REMARK                            x       y       z     vdW  Elec       q    Type
REMARK                         _______ _______ _______ _____ _____    ______ ____
ROOT
ATOM      1  N   UNL     1      35.018 -21.075 -21.531  0.00  0.00    -0.238 N 
ATOM      2  N   UNL     1      34.777 -19.769 -23.450  0.00  0.00    -0.316 NA
ATOM      3  N   UNL     1      35.120 -18.755 -21.264  0.00  0.00    -0.294 NA
ATOM      4  N   UNL     1      34.564 -18.143 -25.218  0.00  0.00    -0.289 N 
ATOM      5  C   UNL     1      34.970 -19.794 -22.116  0.00  0.00    +0.207 C 
ATOM      6  C   UNL     1      34.883 -17.346 -23.158  0.00  0.00    +0.181 C 
ATOM      7  C   UNL     1      34.744 -18.506 -23.910  0.00  0.00    +0.188 C 
ATOM      8  C   UNL     1      35.078 -17.509 -21.787  0.00  0.00    +0.281 C 
ATOM      9  C   UNL     1      34.782 -16.256 -24.059  0.00  0.00    +0.008 C 
ATOM     10  C   UNL     1      34.585 -16.776 -25.320  0.00  0.00    +0.060 C 
ATOM     11  H   UNL     1      34.905 -21.810 -22.176  0.00  0.00    +0.166 HD
ATOM     12  H   UNL     1      34.440 -18.767 -25.969  0.00  0.00    +0.154 HD
ENDROOT
BRANCH   1  19
ATOM     13  F   UNL     1      33.249 -22.929 -17.480  0.00  0.00    -0.203 F 
ATOM     14  C   UNL     1      35.556 -22.372 -17.571  0.00  0.00    +0.076 C 
ATOM     15  C   UNL     1      34.296 -22.447 -18.164  0.00  0.00    +0.155 C 
ATOM     16  C   UNL     1      36.637 -21.866 -18.293  0.00  0.00    +0.018 C 
ATOM     17  C   UNL     1      34.117 -22.016 -19.480  0.00  0.00    +0.046 C 
ATOM     18  C   UNL     1      36.459 -21.436 -19.608  0.00  0.00    +0.017 C 
ATOM     19  C   UNL     1      35.199 -21.511 -20.201  0.00  0.00    +0.061 C 
BRANCH  14  20
ATOM     20  N   UNL     1      35.738 -22.802 -16.252  0.00  0.00    -0.310 N 
ATOM     21  N   UNL     1      36.083 -23.431 -13.488  0.00  0.00    +0.388 N 
ATOM     22  C   UNL     1      36.935 -22.342 -15.537  0.00  0.00    +0.068 C 
ATOM     23  C   UNL     1      34.571 -23.094 -15.415  0.00  0.00    +0.068 C 
ATOM     24  C   UNL     1      37.250 -23.274 -14.364  0.00  0.00    -0.056 C 
ATOM     25  C   UNL     1      34.963 -24.001 -14.245  0.00  0.00    -0.056 C 
ATOM     26  C   UNL     1      36.412 -24.279 -12.342  0.00  0.00    -0.101 C 
ATOM     27  H   UNL     1      35.810 -22.514 -13.137  0.00  0.00    -0.080 HD
ENDBRANCH  14  20
ENDBRANCH   1  19
BRANCH   8  28
ATOM     28  O   UNL     1      35.230 -16.444 -20.936  0.00  0.00    -0.429 OA
BRANCH  28  29
ATOM     29  C   UNL     1      34.369 -15.378 -21.096  0.00  0.00    +0.149 C 
ATOM     30  C   UNL     1      34.631 -14.410 -22.066  0.00  0.00    +0.052 C 
ATOM     31  C   UNL     1      33.236 -15.268 -20.290  0.00  0.00    +0.038 C 
ATOM     32  C   UNL     1      33.760 -13.333 -22.229  0.00  0.00    +0.054 C 
ATOM     33  C   UNL     1      32.627 -13.223 -21.424  0.00  0.00    +0.015 C 
ATOM     34  C   UNL     1      32.364 -14.191 -20.455  0.00  0.00    +0.004 C 
BRANCH  32  36
ATOM     35  O   UNL     1      33.347 -13.399 -25.203  0.00  0.00    -0.270 OA
ATOM     36  N   UNL     1      34.023 -12.365 -23.200  0.00  0.00    -0.280 N 
ATOM     37  C   UNL     1      33.809 -12.448 -24.583  0.00  0.00    +0.250 C 
ATOM     38  H   UNL     1      34.404 -11.518 -22.873  0.00  0.00    +0.155 HD
BRANCH  37  39
ATOM     39  C   UNL     1      34.221 -11.196 -25.280  0.00  0.00    +0.058 C 
ATOM     40  C   UNL     1      34.935 -10.265 -24.639  0.00  0.00    +0.005 C 
ENDBRANCH  37  39
ENDBRANCH  32  36
ENDBRANCH  28  29
ENDBRANCH   8  28
TORSDOF 6
ENDMDL
MODEL 3
REMARK VINA RESULT:     -11.4      4.920      9.393
REMARK  Name = 72734520
REMARK  6 active torsions:
REMARK  status: ('A' for Active; 'I' for Inactive)
REMARK    1  A    between atoms: N_1  and  C_19
REMARK    2  A    between atoms: C_8  and  O_28
REMARK    3  A    between atoms: C_14  and  N_20
REMARK    4  A    between atoms: O_28  and  C_29
REMARK    5  A    between atoms: C_32  and  N_36
REMARK    6  A    between atoms: C_37  and  C_39
REMARK                            x       y       z     vdW  Elec       q    Type
REMARK                         _______ _______ _______ _____ _____    ______ ____
ROOT
ATOM      1  N   UNL     1      33.292 -14.835 -25.490  0.00  0.00    -0.238 N 
ATOM      2  N   UNL     1      33.686 -17.105 -25.862  0.00  0.00    -0.316 NA
ATOM      3  N   UNL     1      34.272 -16.047 -23.749  0.00  0.00    -0.294 NA
ATOM      4  N   UNL     1      34.227 -19.455 -25.919  0.00  0.00    -0.289 N 
ATOM      5  C   UNL     1      33.776 -16.066 -25.007  0.00  0.00    +0.207 C 
ATOM      6  C   UNL     1      34.713 -18.361 -24.035  0.00  0.00    +0.181 C 
ATOM      7  C   UNL     1      34.175 -18.229 -25.309  0.00  0.00    +0.188 C 
ATOM      8  C   UNL     1      34.749 -17.210 -23.249  0.00  0.00    +0.281 C 
ATOM      9  C   UNL     1      35.097 -19.719 -23.887  0.00  0.00    +0.008 C 
ATOM     10  C   UNL     1      34.786 -20.368 -25.063  0.00  0.00    +0.060 C 
ATOM     11  H   UNL     1      32.938 -14.881 -26.408  0.00  0.00    +0.166 HD
ATOM     12  H   UNL     1      33.911 -19.650 -26.830  0.00  0.00    +0.154 HD
ENDROOT
BRANCH   1  19
ATOM     13  F   UNL     1      32.322 -11.998 -21.751  0.00  0.00    -0.203 F 
ATOM     14  C   UNL     1      33.052 -11.005 -23.781  0.00  0.00    +0.076 C 
ATOM     15  C   UNL     1      32.720 -12.128 -23.024  0.00  0.00    +0.155 C 
ATOM     16  C   UNL     1      33.462 -11.154 -25.106  0.00  0.00    +0.018 C 
ATOM     17  C   UNL     1      32.800 -13.401 -23.592  0.00  0.00    +0.046 C 
ATOM     18  C   UNL     1      33.542 -12.426 -25.673  0.00  0.00    +0.017 C 
ATOM     19  C   UNL     1      33.211 -13.549 -24.916  0.00  0.00    +0.061 C 
BRANCH  14  20
ATOM     20  N   UNL     1      32.971  -9.728 -23.215  0.00  0.00    -0.310 N 
ATOM     21  N   UNL     1      32.776  -7.029 -22.302  0.00  0.00    +0.388 N 
ATOM     22  C   UNL     1      34.030  -8.763 -23.537  0.00  0.00    +0.068 C 
ATOM     23  C   UNL     1      31.659  -9.150 -22.906  0.00  0.00    +0.068 C 
ATOM     24  C   UNL     1      34.090  -7.659 -22.480  0.00  0.00    -0.056 C 
ATOM     25  C   UNL     1      31.796  -8.032 -21.870  0.00  0.00    -0.056 C 
ATOM     26  C   UNL     1      32.857  -5.939 -21.329  0.00  0.00    -0.101 C 
ATOM     27  H   UNL     1      32.475  -6.638 -23.194  0.00  0.00    -0.080 HD
ENDBRANCH  14  20
ENDBRANCH   1  19
BRANCH   8  28
ATOM     28  O   UNL     1      35.253 -17.208 -21.973  0.00  0.00    -0.429 OA
BRANCH  28  29
ATOM     29  C   UNL     1      35.719 -18.408 -21.475  0.00  0.00    +0.149 C 
ATOM     30  C   UNL     1      34.826 -19.323 -20.917  0.00  0.00    +0.052 C 
ATOM     31  C   UNL     1      37.080 -18.706 -21.530  0.00  0.00    +0.038 C 
ATOM     32  C   UNL     1      35.295 -20.537 -20.415  0.00  0.00    +0.054 C 
ATOM     33  C   UNL     1      36.656 -20.835 -20.470  0.00  0.00    +0.015 C 
ATOM     34  C   UNL     1      37.549 -19.920 -21.028  0.00  0.00    +0.004 C 
BRANCH  32  36
ATOM     35  O   UNL     1      35.637 -22.431 -18.110  0.00  0.00    -0.270 OA
ATOM     36  N   UNL     1      34.402 -21.453 -19.858  0.00  0.00    -0.280 N 
ATOM     37  C   UNL     1      34.615 -22.318 -18.775  0.00  0.00    +0.250 C 
ATOM     38  H   UNL     1      33.512 -21.496 -20.276  0.00  0.00    +0.155 HD
BRANCH  37  39
ATOM     39  C   UNL     1      33.407 -23.143 -18.485  0.00  0.00    +0.058 C 
ATOM     40  C   UNL     1      32.857 -23.139 -17.267  0.00  0.00    +0.005 C 
ENDBRANCH  37  39
ENDBRANCH  32  36
ENDBRANCH  28  29
ENDBRANCH   8  28
TORSDOF 6
ENDMDL
MODEL 4
REMARK VINA RESULT:     -11.1      9.702     14.877
REMARK  Name = 72734520
REMARK  6 active torsions:
REMARK  status: ('A' for Active; 'I' for Inactive)
REMARK    1  A    between atoms: N_1  and  C_19
REMARK    2  A    between atoms: C_8  and  O_28
REMARK    3  A    between atoms: C_14  and  N_20
REMARK    4  A    between atoms: O_28  and  C_29
REMARK    5  A    between atoms: C_32  and  N_36
REMARK    6  A    between atoms: C_37  and  C_39
REMARK                            x       y       z     vdW  Elec       q    Type
REMARK                         _______ _______ _______ _____ _____    ______ ____
ROOT
ATOM      1  N   UNL     1      32.220  -7.014 -23.555  0.00  0.00    -0.238 N 
ATOM      2  N   UNL     1      31.410  -8.743 -22.214  0.00  0.00    -0.316 NA
ATOM      3  N   UNL     1      33.273  -9.092 -23.742  0.00  0.00    -0.294 NA
ATOM      4  N   UNL     1      30.821 -10.729 -20.980  0.00  0.00    -0.289 N 
ATOM      5  C   UNL     1      32.305  -8.359 -23.146  0.00  0.00    +0.207 C 
ATOM      6  C   UNL     1      32.517 -10.911 -22.419  0.00  0.00    +0.181 C 
ATOM      7  C   UNL     1      31.572 -10.039 -21.894  0.00  0.00    +0.188 C 
ATOM      8  C   UNL     1      33.385 -10.389 -23.377  0.00  0.00    +0.281 C 
ATOM      9  C   UNL     1      32.315 -12.167 -21.790  0.00  0.00    +0.008 C 
ATOM     10  C   UNL     1      31.264 -12.025 -20.909  0.00  0.00    +0.060 C 
ATOM     11  H   UNL     1      31.507  -6.507 -23.104  0.00  0.00    +0.166 HD
ATOM     12  H   UNL     1      30.078 -10.354 -20.454  0.00  0.00    +0.154 HD
ENDROOT
BRANCH   1  19
ATOM     13  F   UNL     1      32.383  -3.794 -27.102  0.00  0.00    -0.203 F 
ATOM     14  C   UNL     1      34.417  -4.740 -26.322  0.00  0.00    +0.076 C 
ATOM     15  C   UNL     1      33.028  -4.625 -26.272  0.00  0.00    +0.155 C 
ATOM     16  C   UNL     1      35.076  -5.611 -25.453  0.00  0.00    +0.018 C 
ATOM     17  C   UNL     1      32.298  -5.380 -25.352  0.00  0.00    +0.046 C 
ATOM     18  C   UNL     1      34.347  -6.365 -24.535  0.00  0.00    +0.017 C 
ATOM     19  C   UNL     1      32.958  -6.250 -24.484  0.00  0.00    +0.061 C 
BRANCH  14  20
ATOM     20  N   UNL     1      35.151  -3.985 -27.243  0.00  0.00    -0.310 N 
ATOM     21  N   UNL     1      36.426  -2.398 -29.246  0.00  0.00    +0.388 N 
ATOM     22  C   UNL     1      35.213  -4.461 -28.630  0.00  0.00    +0.068 C 
ATOM     23  C   UNL     1      35.272  -2.535 -27.064  0.00  0.00    +0.068 C 
ATOM     24  C   UNL     1      36.423  -3.862 -29.351  0.00  0.00    -0.056 C 
ATOM     25  C   UNL     1      36.480  -1.998 -27.835  0.00  0.00    -0.056 C 
ATOM     26  C   UNL     1      37.556  -1.833 -29.984  0.00  0.00    -0.101 C 
ATOM     27  H   UNL     1      35.565  -2.037 -29.657  0.00  0.00    -0.080 HD
ENDBRANCH  14  20
ENDBRANCH   1  19
BRANCH   8  28
ATOM     28  O   UNL     1      34.363 -11.147 -23.971  0.00  0.00    -0.429 OA
BRANCH  28  29
ATOM     29  C   UNL     1      33.959 -12.265 -24.671  0.00  0.00    +0.149 C 
ATOM     30  C   UNL     1      34.157 -13.536 -24.129  0.00  0.00    +0.052 C 
ATOM     31  C   UNL     1      33.351 -12.126 -25.919  0.00  0.00    +0.038 C 
ATOM     32  C   UNL     1      33.747 -14.666 -24.836  0.00  0.00    +0.054 C 
ATOM     33  C   UNL     1      33.140 -14.527 -26.083  0.00  0.00    +0.015 C 
ATOM     34  C   UNL     1      32.941 -13.257 -26.625  0.00  0.00    +0.004 C 
BRANCH  32  36
ATOM     35  O   UNL     1      34.710 -17.202 -26.124  0.00  0.00    -0.270 OA
ATOM     36  N   UNL     1      33.944 -15.937 -24.293  0.00  0.00    -0.280 N 
ATOM     37  C   UNL     1      34.399 -17.093 -24.944  0.00  0.00    +0.250 C 
ATOM     38  H   UNL     1      33.740 -16.033 -23.335  0.00  0.00    +0.155 HD
BRANCH  37  39
ATOM     39  C   UNL     1      34.475 -18.255 -24.012  0.00  0.00    +0.058 C 
ATOM     40  C   UNL     1      35.344 -18.256 -22.997  0.00  0.00    +0.005 C 
ENDBRANCH  37  39
ENDBRANCH  32  36
ENDBRANCH  28  29
ENDBRANCH   8  28
TORSDOF 6
ENDMDL
MODEL 5
REMARK VINA RESULT:     -11.0      2.990      7.893
REMARK  Name = 72734520
REMARK  6 active torsions:
REMARK  status: ('A' for Active; 'I' for Inactive)
REMARK    1  A    between atoms: N_1  and  C_19
REMARK    2  A    between atoms: C_8  and  O_28
REMARK    3  A    between atoms: C_14  and  N_20
REMARK    4  A    between atoms: O_28  and  C_29
REMARK    5  A    between atoms: C_32  and  N_36
REMARK    6  A    between atoms: C_37  and  C_39
REMARK                            x       y       z     vdW  Elec       q    Type
REMARK                         _______ _______ _______ _____ _____    ______ ____
ROOT
ATOM      1  N   UNL     1      34.187 -25.074 -13.453  0.00  0.00    -0.238 N 
ATOM      2  N   UNL     1      36.449 -25.520 -13.089  0.00  0.00    -0.316 NA
ATOM      3  N   UNL     1      35.714 -24.133 -14.950  0.00  0.00    -0.294 NA
ATOM      4  N   UNL     1      38.844 -25.784 -13.001  0.00  0.00    -0.289 N 
ATOM      5  C   UNL     1      35.526 -24.899 -13.852  0.00  0.00    +0.207 C 
ATOM      6  C   UNL     1      38.036 -24.533 -14.662  0.00  0.00    +0.181 C 
ATOM      7  C   UNL     1      37.690 -25.294 -13.553  0.00  0.00    +0.188 C 
ATOM      8  C   UNL     1      36.987 -23.943 -15.366  0.00  0.00    +0.281 C 
ATOM      9  C   UNL     1      39.449 -24.575 -14.769  0.00  0.00    +0.008 C 
ATOM     10  C   UNL     1      39.920 -25.354 -13.733  0.00  0.00    +0.060 C 
ATOM     11  H   UNL     1      34.083 -25.636 -12.652  0.00  0.00    +0.166 HD
ATOM     12  H   UNL     1      38.893 -26.358 -12.202  0.00  0.00    +0.154 HD
ENDROOT
BRANCH   1  19
ATOM     13  F   UNL     1      29.743 -25.895 -15.049  0.00  0.00    -0.203 F 
ATOM     14  C   UNL     1      30.549 -23.661 -15.009  0.00  0.00    +0.076 C 
ATOM     15  C   UNL     1      30.726 -25.025 -14.778  0.00  0.00    +0.155 C 
ATOM     16  C   UNL     1      31.581 -22.767 -14.724  0.00  0.00    +0.018 C 
ATOM     17  C   UNL     1      31.934 -25.494 -14.260  0.00  0.00    +0.046 C 
ATOM     18  C   UNL     1      32.789 -23.236 -14.207  0.00  0.00    +0.017 C 
ATOM     19  C   UNL     1      32.965 -24.600 -13.975  0.00  0.00    +0.061 C 
BRANCH  14  20
ATOM     20  N   UNL     1      29.340 -23.188 -15.528  0.00  0.00    -0.310 N 
ATOM     21  N   UNL     1      26.974 -21.983 -16.582  0.00  0.00    +0.388 N 
ATOM     22  C   UNL     1      28.529 -22.298 -14.687  0.00  0.00    +0.068 C 
ATOM     23  C   UNL     1      29.193 -23.001 -16.975  0.00  0.00    +0.068 C 
ATOM     24  C   UNL     1      27.071 -22.300 -15.152  0.00  0.00    -0.056 C 
ATOM     25  C   UNL     1      27.713 -22.979 -17.366  0.00  0.00    -0.056 C 
ATOM     26  C   UNL     1      25.574 -21.934 -17.003  0.00  0.00    -0.101 C 
ATOM     27  H   UNL     1      27.387 -21.065 -16.744  0.00  0.00    -0.080 HD
ENDBRANCH  14  20
ENDBRANCH   1  19
BRANCH   8  28
ATOM     28  O   UNL     1      37.195 -23.166 -16.479  0.00  0.00    -0.429 OA
BRANCH  28  29
ATOM     29  C   UNL     1      36.095 -22.868 -17.257  0.00  0.00    +0.149 C 
ATOM     30  C   UNL     1      36.223 -21.998 -18.340  0.00  0.00    +0.052 C 
ATOM     31  C   UNL     1      34.856 -23.437 -16.962  0.00  0.00    +0.038 C 
ATOM     32  C   UNL     1      35.111 -21.697 -19.127  0.00  0.00    +0.054 C 
ATOM     33  C   UNL     1      33.873 -22.266 -18.833  0.00  0.00    +0.015 C 
ATOM     34  C   UNL     1      33.745 -23.137 -17.751  0.00  0.00    +0.004 C 
BRANCH  32  36
ATOM     35  O   UNL     1      33.014 -20.437 -20.867  0.00  0.00    -0.270 OA
ATOM     36  N   UNL     1      35.239 -20.827 -20.211  0.00  0.00    -0.280 N 
ATOM     37  C   UNL     1      34.220 -20.265 -20.992  0.00  0.00    +0.250 C 
ATOM     38  H   UNL     1      36.159 -20.577 -20.457  0.00  0.00    +0.155 HD
BRANCH  37  39
ATOM     39  C   UNL     1      34.770 -19.382 -22.061  0.00  0.00    +0.058 C 
ATOM     40  C   UNL     1      35.979 -18.828 -21.929  0.00  0.00    +0.005 C 
ENDBRANCH  37  39
ENDBRANCH  32  36
ENDBRANCH  28  29
ENDBRANCH   8  28
TORSDOF 6
ENDMDL
MODEL 6
REMARK VINA RESULT:     -10.9     10.779     17.550
REMARK  Name = 72734520
REMARK  6 active torsions:
REMARK  status: ('A' for Active; 'I' for Inactive)
REMARK    1  A    between atoms: N_1  and  C_19
REMARK    2  A    between atoms: C_8  and  O_28
REMARK    3  A    between atoms: C_14  and  N_20
REMARK    4  A    between atoms: O_28  and  C_29
REMARK    5  A    between atoms: C_32  and  N_36
REMARK    6  A    between atoms: C_37  and  C_39
REMARK                            x       y       z     vdW  Elec       q    Type
REMARK                         _______ _______ _______ _____ _____    ______ ____
ROOT
ATOM      1  N   UNL     1      31.773  -8.260 -21.884  0.00  0.00    -0.238 N 
ATOM      2  N   UNL     1      31.203  -5.998 -21.821  0.00  0.00    -0.316 NA
ATOM      3  N   UNL     1      31.998  -7.047 -23.868  0.00  0.00    -0.294 NA
ATOM      4  N   UNL     1      30.706  -3.655 -22.097  0.00  0.00    -0.289 N 
ATOM      5  C   UNL     1      31.650  -7.032 -22.562  0.00  0.00    +0.207 C 
ATOM      6  C   UNL     1      31.445  -4.740 -23.901  0.00  0.00    +0.181 C 
ATOM      7  C   UNL     1      31.124  -4.875 -22.556  0.00  0.00    +0.188 C 
ATOM      8  C   UNL     1      31.896  -5.886 -24.554  0.00  0.00    +0.281 C 
ATOM      9  C   UNL     1      31.207  -3.385 -24.248  0.00  0.00    +0.008 C 
ATOM     10  C   UNL     1      30.753  -2.741 -23.117  0.00  0.00    +0.060 C 
ATOM     11  H   UNL     1      31.512  -8.217 -20.935  0.00  0.00    +0.166 HD
ATOM     12  H   UNL     1      30.416  -3.463 -21.175  0.00  0.00    +0.154 HD
ENDROOT
BRANCH   1  19
ATOM     13  F   UNL     1      31.584 -13.034 -21.491  0.00  0.00    -0.203 F 
ATOM     14  C   UNL     1      33.027 -12.076 -23.116  0.00  0.00    +0.076 C 
ATOM     15  C   UNL     1      32.090 -11.947 -22.091  0.00  0.00    +0.155 C 
ATOM     16  C   UNL     1      33.548 -10.937 -23.731  0.00  0.00    +0.018 C 
ATOM     17  C   UNL     1      31.673 -10.680 -21.682  0.00  0.00    +0.046 C 
ATOM     18  C   UNL     1      33.131  -9.671 -23.322  0.00  0.00    +0.017 C 
ATOM     19  C   UNL     1      32.194  -9.542 -22.298  0.00  0.00    +0.061 C 
BRANCH  14  20
ATOM     20  N   UNL     1      33.448 -13.345 -23.527  0.00  0.00    -0.310 N 
ATOM     21  N   UNL     1      34.493 -15.817 -24.504  0.00  0.00    +0.388 N 
ATOM     22  C   UNL     1      33.331 -13.682 -24.951  0.00  0.00    +0.068 C 
ATOM     23  C   UNL     1      34.524 -14.026 -22.800  0.00  0.00    +0.068 C 
ATOM     24  C   UNL     1      33.325 -15.200 -25.146  0.00  0.00    -0.056 C 
ATOM     25  C   UNL     1      34.481 -15.533 -23.065  0.00  0.00    -0.056 C 
ATOM     26  C   UNL     1      34.506 -17.260 -24.743  0.00  0.00    -0.101 C 
ATOM     27  H   UNL     1      35.340 -15.420 -24.911  0.00  0.00    -0.080 HD
ENDBRANCH  14  20
ENDBRANCH   1  19
BRANCH   8  28
ATOM     28  O   UNL     1      32.244  -5.885 -25.882  0.00  0.00    -0.429 OA
BRANCH  28  29
ATOM     29  C   UNL     1      33.152  -4.932 -26.297  0.00  0.00    +0.149 C 
ATOM     30  C   UNL     1      34.502  -5.262 -26.420  0.00  0.00    +0.052 C 
ATOM     31  C   UNL     1      32.720  -3.640 -26.594  0.00  0.00    +0.038 C 
ATOM     32  C   UNL     1      35.419  -4.300 -26.841  0.00  0.00    +0.054 C 
ATOM     33  C   UNL     1      34.988  -3.008 -27.138  0.00  0.00    +0.015 C 
ATOM     34  C   UNL     1      33.638  -2.677 -27.016  0.00  0.00    +0.004 C 
BRANCH  32  36
ATOM     35  O   UNL     1      37.035  -4.998 -29.274  0.00  0.00    -0.270 OA
ATOM     36  N   UNL     1      36.770  -4.631 -26.965  0.00  0.00    -0.280 N 
ATOM     37  C   UNL     1      37.477  -4.949 -28.132  0.00  0.00    +0.250 C 
ATOM     38  H   UNL     1      37.289  -4.640 -26.129  0.00  0.00    +0.155 HD
BRANCH  37  39
ATOM     39  C   UNL     1      38.910  -5.245 -27.844  0.00  0.00    +0.058 C 
ATOM     40  C   UNL     1      39.515  -6.293 -28.410  0.00  0.00    +0.005 C 
ENDBRANCH  37  39
ENDBRANCH  32  36
ENDBRANCH  28  29
ENDBRANCH   8  28
TORSDOF 6
ENDMDL
MODEL 7
REMARK VINA RESULT:     -10.8      4.985     11.269
REMARK  Name = 72734520
REMARK  6 active torsions:
REMARK  status: ('A' for Active; 'I' for Inactive)
REMARK    1  A    between atoms: N_1  and  C_19
REMARK    2  A    between atoms: C_8  and  O_28
REMARK    3  A    between atoms: C_14  and  N_20
REMARK    4  A    between atoms: O_28  and  C_29
REMARK    5  A    between atoms: C_32  and  N_36
REMARK    6  A    between atoms: C_37  and  C_39
REMARK                            x       y       z     vdW  Elec       q    Type
REMARK                         _______ _______ _______ _____ _____    ______ ____
ROOT
ATOM      1  N   UNL     1      34.209 -18.501 -24.135  0.00  0.00    -0.238 N 
ATOM      2  N   UNL     1      33.794 -16.825 -25.704  0.00  0.00    -0.316 NA
ATOM      3  N   UNL     1      34.369 -16.289 -23.400  0.00  0.00    -0.294 NA
ATOM      4  N   UNL     1      33.427 -14.866 -27.062  0.00  0.00    -0.289 N 
ATOM      5  C   UNL     1      34.120 -17.127 -24.431  0.00  0.00    +0.207 C 
ATOM      6  C   UNL     1      33.962 -14.516 -24.924  0.00  0.00    +0.181 C 
ATOM      7  C   UNL     1      33.732 -15.494 -25.884  0.00  0.00    +0.188 C 
ATOM      8  C   UNL     1      34.291 -14.961 -23.644  0.00  0.00    +0.281 C 
ATOM      9  C   UNL     1      33.785 -13.261 -25.562  0.00  0.00    +0.008 C 
ATOM     10  C   UNL     1      33.456 -13.508 -26.878  0.00  0.00    +0.060 C 
ATOM     11  H   UNL     1      34.022 -19.086 -24.905  0.00  0.00    +0.166 HD
ATOM     12  H   UNL     1      33.219 -15.320 -27.911  0.00  0.00    +0.154 HD
ENDROOT
BRANCH   1  19
ATOM     13  F   UNL     1      32.799 -20.880 -20.220  0.00  0.00    -0.203 F 
ATOM     14  C   UNL     1      35.125 -20.595 -20.610  0.00  0.00    +0.076 C 
ATOM     15  C   UNL     1      33.794 -20.403 -20.981  0.00  0.00    +0.155 C 
ATOM     16  C   UNL     1      36.151 -20.091 -21.409  0.00  0.00    +0.018 C 
ATOM     17  C   UNL     1      33.490 -19.708 -22.152  0.00  0.00    +0.046 C 
ATOM     18  C   UNL     1      35.847 -19.396 -22.580  0.00  0.00    +0.017 C 
ATOM     19  C   UNL     1      34.517 -19.205 -22.951  0.00  0.00    +0.061 C 
BRANCH  14  20
ATOM     20  N   UNL     1      35.433 -21.291 -19.436  0.00  0.00    -0.310 N 
ATOM     21  N   UNL     1      36.105 -22.919 -17.187  0.00  0.00    +0.388 N 
ATOM     22  C   UNL     1      34.553 -22.396 -19.038  0.00  0.00    +0.068 C 
ATOM     23  C   UNL     1      36.829 -21.404 -19.002  0.00  0.00    +0.068 C 
ATOM     24  C   UNL     1      34.699 -22.689 -17.544  0.00  0.00    -0.056 C 
ATOM     25  C   UNL     1      36.902 -21.729 -17.508  0.00  0.00    -0.056 C 
ATOM     26  C   UNL     1      36.226 -23.251 -15.768  0.00  0.00    -0.101 C 
ATOM     27  H   UNL     1      36.457 -23.707 -17.730  0.00  0.00    -0.080 HD
ENDBRANCH  14  20
ENDBRANCH   1  19
BRANCH   8  28
ATOM     28  O   UNL     1      34.542 -14.096 -22.609  0.00  0.00    -0.429 OA
BRANCH  28  29
ATOM     29  C   UNL     1      33.506 -13.282 -22.198  0.00  0.00    +0.149 C 
ATOM     30  C   UNL     1      33.355 -12.013 -22.756  0.00  0.00    +0.052 C 
ATOM     31  C   UNL     1      32.610 -13.729 -21.227  0.00  0.00    +0.038 C 
ATOM     32  C   UNL     1      32.307 -11.190 -22.342  0.00  0.00    +0.054 C 
ATOM     33  C   UNL     1      31.411 -11.637 -21.372  0.00  0.00    +0.015 C 
ATOM     34  C   UNL     1      31.561 -12.907 -20.815  0.00  0.00    +0.004 C 
BRANCH  32  36
ATOM     35  O   UNL     1      32.767  -8.473 -21.149  0.00  0.00    -0.270 OA
ATOM     36  N   UNL     1      32.155  -9.920 -22.901  0.00  0.00    -0.280 N 
ATOM     37  C   UNL     1      32.386  -8.677 -22.295  0.00  0.00    +0.250 C 
ATOM     38  H   UNL     1      31.849  -9.894 -23.836  0.00  0.00    +0.155 HD
BRANCH  37  39
ATOM     39  C   UNL     1      32.107  -7.549 -23.230  0.00  0.00    +0.058 C 
ATOM     40  C   UNL     1      30.880  -7.367 -23.728  0.00  0.00    +0.005 C 
ENDBRANCH  37  39
ENDBRANCH  32  36
ENDBRANCH  28  29
ENDBRANCH   8  28
TORSDOF 6
ENDMDL
MODEL 8
REMARK VINA RESULT:      -9.9      4.876      9.489
REMARK  Name = 72734520
REMARK  6 active torsions:
REMARK  status: ('A' for Active; 'I' for Inactive)
REMARK    1  A    between atoms: N_1  and  C_19
REMARK    2  A    between atoms: C_8  and  O_28
REMARK    3  A    between atoms: C_14  and  N_20
REMARK    4  A    between atoms: O_28  and  C_29
REMARK    5  A    between atoms: C_32  and  N_36
REMARK    6  A    between atoms: C_37  and  C_39
REMARK                            x       y       z     vdW  Elec       q    Type
REMARK                         _______ _______ _______ _____ _____    ______ ____
ROOT
ATOM      1  N   UNL     1      33.253 -15.018 -25.266  0.00  0.00    -0.238 N 
ATOM      2  N   UNL     1      33.663 -17.227 -25.900  0.00  0.00    -0.316 NA
ATOM      3  N   UNL     1      34.278 -16.408 -23.691  0.00  0.00    -0.294 NA
ATOM      4  N   UNL     1      34.226 -19.547 -26.233  0.00  0.00    -0.289 N 
ATOM      5  C   UNL     1      33.759 -16.290 -24.934  0.00  0.00    +0.207 C 
ATOM      6  C   UNL     1      34.736 -18.670 -24.247  0.00  0.00    +0.181 C 
ATOM      7  C   UNL     1      34.174 -18.400 -25.488  0.00  0.00    +0.188 C 
ATOM      8  C   UNL     1      34.775 -17.615 -23.336  0.00  0.00    +0.281 C 
ATOM      9  C   UNL     1      35.136 -20.030 -24.261  0.00  0.00    +0.008 C 
ATOM     10  C   UNL     1      34.810 -20.546 -25.497  0.00  0.00    +0.060 C 
ATOM     11  H   UNL     1      32.884 -14.964 -26.177  0.00  0.00    +0.166 HD
ATOM     12  H   UNL     1      33.895 -19.642 -27.156  0.00  0.00    +0.154 HD
ENDROOT
BRANCH   1  19
ATOM     13  F   UNL     1      34.281 -10.357 -24.834  0.00  0.00    -0.203 F 
ATOM     14  C   UNL     1      33.010 -11.410 -23.127  0.00  0.00    +0.076 C 
ATOM     15  C   UNL     1      33.695 -11.457 -24.341  0.00  0.00    +0.155 C 
ATOM     16  C   UNL     1      32.406 -12.563 -22.624  0.00  0.00    +0.018 C 
ATOM     17  C   UNL     1      33.776 -12.655 -25.052  0.00  0.00    +0.046 C 
ATOM     18  C   UNL     1      32.486 -13.761 -23.334  0.00  0.00    +0.017 C 
ATOM     19  C   UNL     1      33.171 -13.806 -24.548  0.00  0.00    +0.061 C 
BRANCH  14  20
ATOM     20  N   UNL     1      32.928 -10.211 -22.412  0.00  0.00    -0.310 N 
ATOM     21  N   UNL     1      32.568  -7.693 -21.111  0.00  0.00    +0.388 N 
ATOM     22  C   UNL     1      33.259  -8.965 -23.115  0.00  0.00    +0.068 C 
ATOM     23  C   UNL     1      31.966 -10.083 -21.313  0.00  0.00    +0.068 C 
ATOM     24  C   UNL     1      33.625  -7.865 -22.116  0.00  0.00    -0.056 C 
ATOM     25  C   UNL     1      32.374  -8.946 -20.372  0.00  0.00    -0.056 C 
ATOM     26  C   UNL     1      32.904  -6.604 -20.195  0.00  0.00    -0.101 C 
ATOM     27  H   UNL     1      31.699  -7.453 -21.586  0.00  0.00    -0.080 HD
ENDBRANCH  14  20
ENDBRANCH   1  19
BRANCH   8  28
ATOM     28  O   UNL     1      35.304 -17.751 -22.076  0.00  0.00    -0.429 OA
BRANCH  28  29
ATOM     29  C   UNL     1      34.993 -18.902 -21.381  0.00  0.00    +0.149 C 
ATOM     30  C   UNL     1      35.937 -19.479 -20.532  0.00  0.00    +0.052 C 
ATOM     31  C   UNL     1      33.735 -19.487 -21.527  0.00  0.00    +0.038 C 
ATOM     32  C   UNL     1      35.623 -20.642 -19.828  0.00  0.00    +0.054 C 
ATOM     33  C   UNL     1      34.365 -21.227 -19.973  0.00  0.00    +0.015 C 
ATOM     34  C   UNL     1      33.421 -20.650 -20.822  0.00  0.00    +0.004 C 
BRANCH  32  36
ATOM     35  O   UNL     1      35.271 -22.584 -17.565  0.00  0.00    -0.270 OA
ATOM     36  N   UNL     1      36.567 -21.219 -18.977  0.00  0.00    -0.280 N 
ATOM     37  C   UNL     1      36.347 -22.125 -17.931  0.00  0.00    +0.250 C 
ATOM     38  H   UNL     1      37.503 -20.957 -19.132  0.00  0.00    +0.155 HD
BRANCH  37  39
ATOM     39  C   UNL     1      37.621 -22.508 -17.257  0.00  0.00    +0.058 C 
ATOM     40  C   UNL     1      37.633 -22.835 -15.962  0.00  0.00    +0.005 C 
ENDBRANCH  37  39
ENDBRANCH  32  36
ENDBRANCH  28  29
ENDBRANCH   8  28
TORSDOF 6
ENDMDL
MODEL 9
REMARK VINA RESULT:      -9.8      8.745     13.614
REMARK  Name = 72734520
REMARK  6 active torsions:
REMARK  status: ('A' for Active; 'I' for Inactive)
REMARK    1  A    between atoms: N_1  and  C_19
REMARK    2  A    between atoms: C_8  and  O_28
REMARK    3  A    between atoms: C_14  and  N_20
REMARK    4  A    between atoms: O_28  and  C_29
REMARK    5  A    between atoms: C_32  and  N_36
REMARK    6  A    between atoms: C_37  and  C_39
REMARK                            x       y       z     vdW  Elec       q    Type
REMARK                         _______ _______ _______ _____ _____    ______ ____
ROOT
ATOM      1  N   UNL     1      31.607  -8.713 -22.281  0.00  0.00    -0.238 N 
ATOM      2  N   UNL     1      31.405 -10.718 -21.103  0.00  0.00    -0.316 NA
ATOM      3  N   UNL     1      32.939 -10.501 -22.982  0.00  0.00    -0.294 NA
ATOM      4  N   UNL     1      31.438 -12.915 -20.111  0.00  0.00    -0.289 N 
ATOM      5  C   UNL     1      32.006 -10.053 -22.111  0.00  0.00    +0.207 C 
ATOM      6  C   UNL     1      32.801 -12.581 -21.846  0.00  0.00    +0.181 C 
ATOM      7  C   UNL     1      31.851 -11.984 -21.026  0.00  0.00    +0.188 C 
ATOM      8  C   UNL     1      33.347 -11.784 -22.852  0.00  0.00    +0.281 C 
ATOM      9  C   UNL     1      32.954 -13.917 -21.397  0.00  0.00    +0.008 C 
ATOM     10  C   UNL     1      32.102 -14.095 -20.327  0.00  0.00    +0.060 C 
ATOM     11  H   UNL     1      30.928  -8.417 -21.633  0.00  0.00    +0.166 HD
ATOM     12  H   UNL     1      30.768 -12.762 -19.406  0.00  0.00    +0.154 HD
ENDROOT
BRANCH   1  19
ATOM     13  F   UNL     1      35.007  -6.017 -24.317  0.00  0.00    -0.203 F 
ATOM     14  C   UNL     1      32.753  -5.729 -25.007  0.00  0.00    +0.076 C 
ATOM     15  C   UNL     1      33.715  -6.357 -24.216  0.00  0.00    +0.155 C 
ATOM     16  C   UNL     1      31.410  -6.091 -24.891  0.00  0.00    +0.018 C 
ATOM     17  C   UNL     1      33.334  -7.349 -23.311  0.00  0.00    +0.046 C 
ATOM     18  C   UNL     1      31.030  -7.082 -23.987  0.00  0.00    +0.017 C 
ATOM     19  C   UNL     1      31.992  -7.711 -23.197  0.00  0.00    +0.061 C 
BRANCH  14  20
ATOM     20  N   UNL     1      33.131  -4.733 -25.914  0.00  0.00    -0.310 N 
ATOM     21  N   UNL     1      33.988  -2.564 -27.563  0.00  0.00    +0.388 N 
ATOM     22  C   UNL     1      32.445  -3.437 -25.841  0.00  0.00    +0.068 C 
ATOM     23  C   UNL     1      34.506  -4.696 -26.422  0.00  0.00    +0.068 C 
ATOM     24  C   UNL     1      32.580  -2.682 -27.165  0.00  0.00    -0.056 C 
ATOM     25  C   UNL     1      34.574  -3.899 -27.728  0.00  0.00    -0.056 C 
ATOM     26  C   UNL     1      34.109  -1.794 -28.801  0.00  0.00    -0.101 C 
ATOM     27  H   UNL     1      34.497  -2.070 -26.830  0.00  0.00    -0.080 HD
ENDBRANCH  14  20
ENDBRANCH   1  19
BRANCH   8  28
ATOM     28  O   UNL     1      34.294 -12.254 -23.727  0.00  0.00    -0.429 OA
BRANCH  28  29
ATOM     29  C   UNL     1      33.988 -13.397 -24.436  0.00  0.00    +0.149 C 
ATOM     30  C   UNL     1      34.384 -14.644 -23.952  0.00  0.00    +0.052 C 
ATOM     31  C   UNL     1      33.283 -13.307 -25.636  0.00  0.00    +0.038 C 
ATOM     32  C   UNL     1      34.074 -15.801 -24.667  0.00  0.00    +0.054 C 
ATOM     33  C   UNL     1      33.369 -15.710 -25.867  0.00  0.00    +0.015 C 
ATOM     34  C   UNL     1      32.973 -14.464 -26.351  0.00  0.00    +0.004 C 
BRANCH  32  36
ATOM     35  O   UNL     1      33.638 -18.551 -25.791  0.00  0.00    -0.270 OA
ATOM     36  N   UNL     1      34.468 -17.048 -24.182  0.00  0.00    -0.280 N 
ATOM     37  C   UNL     1      34.237 -18.309 -24.750  0.00  0.00    +0.250 C 
ATOM     38  H   UNL     1      34.972 -17.042 -23.336  0.00  0.00    +0.155 HD
BRANCH  37  39
ATOM     39  C   UNL     1      34.824 -19.402 -23.922  0.00  0.00    +0.058 C 
ATOM     40  C   UNL     1      35.008 -19.235 -22.609  0.00  0.00    +0.005 C 
ENDBRANCH  37  39
ENDBRANCH  32  36
ENDBRANCH  28  29
ENDBRANCH   8  28
TORSDOF 6
ENDMDL
