MODEL 1
REMARK VINA RESULT:     -12.1      0.000      0.000
REMARK  Name = 25243853
REMARK  6 active torsions:
REMARK  status: ('A' for Active; 'I' for Inactive)
REMARK    1  A    between atoms: N_1  and  C_6
REMARK    2  A    between atoms: N_1  and  C_21
REMARK    3  A    between atoms: C_3  and  C_16
REMARK    4  A    between atoms: C_11  and  C_18
REMARK    5  A    between atoms: C_18  and  O_19
REMARK    6  A    between atoms: C_21  and  C_28
REMARK                            x       y       z     vdW  Elec       q    Type
REMARK                         _______ _______ _______ _____ _____    ______ ____
ROOT
ATOM      1  N   UNL     1      35.232 -19.227 -22.210  0.00  0.00    -0.327 N 
ATOM      2  H   UNL     1      35.709 -18.397 -21.978  0.00  0.00    +0.147 HD
ENDROOT
BRANCH   1   6
ATOM      3  C   UNL     1      34.252 -21.904 -19.125  0.00  0.00    +0.054 C 
ATOM      4  C   UNL     1      33.240 -21.257 -19.834  0.00  0.00    +0.006 C 
ATOM      5  C   UNL     1      35.589 -21.662 -19.441  0.00  0.00    +0.006 C 
ATOM      6  C   UNL     1      34.902 -20.126 -21.174  0.00  0.00    +0.045 C 
ATOM      7  C   UNL     1      33.565 -20.368 -20.859  0.00  0.00    +0.014 C 
ATOM      8  C   UNL     1      35.914 -20.773 -20.465  0.00  0.00    +0.014 C 
BRANCH   3  16
ATOM      9  O   UNL     1      32.746 -23.235 -18.021  0.00  0.00    -0.270 OA
ATOM     10  N   UNL     1      34.916 -23.205 -17.149  0.00  0.00    -0.276 N 
ATOM     11  C   UNL     1      36.331 -22.897 -14.631  0.00  0.00    +0.102 C 
ATOM     12  C   UNL     1      34.910 -23.463 -14.701  0.00  0.00    +0.033 C 
ATOM     13  C   UNL     1      36.676 -22.052 -15.861  0.00  0.00    +0.033 C 
ATOM     14  C   UNL     1      34.607 -24.115 -16.049  0.00  0.00    +0.094 C 
ATOM     15  C   UNL     1      36.304 -22.730 -17.180  0.00  0.00    +0.094 C 
ATOM     16  C   UNL     1      33.910 -22.839 -18.046  0.00  0.00    +0.249 C 
BRANCH  11  18
ATOM     17  O   UNL     1      38.432 -24.032 -14.962  0.00  0.00    -0.250 OA
ATOM     18  C   UNL     1      37.325 -24.008 -14.441  0.00  0.00    +0.317 C 
BRANCH  18  19
ATOM     19  O   UNL     1      36.797 -24.955 -13.615  0.00  0.00    -0.444 OA
ATOM     20  C   UNL     1      37.285 -26.285 -13.816  0.00  0.00    +0.256 C 
ENDBRANCH  18  19
ENDBRANCH  11  18
ENDBRANCH   3  16
ENDBRANCH   1   6
BRANCH   1  21
ATOM     21  C   UNL     1      34.902 -19.466 -23.580  0.00  0.00    +0.145 C 
BRANCH  21  28
ATOM     22  N   UNL     1      34.564 -17.051 -23.549  0.00  0.00    -0.392 NA
ATOM     23  N   UNL     1      33.582 -17.065 -26.137  0.00  0.00    -0.200 NA
ATOM     24  N   UNL     1      33.283 -14.771 -26.051  0.00  0.00    -0.271 NA
ATOM     25  N   UNL     1      33.851 -13.525 -24.081  0.00  0.00    -0.310 NA
ATOM     26  N   UNL     1      34.727 -14.653 -22.199  0.00  0.00    -0.329 N 
ATOM     27  N   UNL     1      32.978 -12.445 -25.966  0.00  0.00    -0.283 N 
ATOM     28  C   UNL     1      34.464 -18.192 -24.248  0.00  0.00    +0.133 C 
ATOM     29  C   UNL     1      33.979 -18.198 -25.528  0.00  0.00    +0.193 C 
ATOM     30  C   UNL     1      34.167 -15.918 -24.160  0.00  0.00    +0.248 C 
ATOM     31  C   UNL     1      33.670 -15.910 -25.466  0.00  0.00    +0.131 C 
ATOM     32  C   UNL     1      34.230 -14.692 -23.528  0.00  0.00    +0.231 C 
ATOM     33  C   UNL     1      33.392 -13.636 -25.333  0.00  0.00    +0.207 C 
ATOM     34  H   UNL     1      34.784 -13.796 -21.719  0.00  0.00    +0.145 HD
ATOM     35  H   UNL     1      35.013 -15.484 -21.756  0.00  0.00    +0.145 HD
ATOM     36  H   UNL     1      32.631 -12.472 -26.887  0.00  0.00    +0.156 HD
ATOM     37  H   UNL     1      33.036 -11.586 -25.487  0.00  0.00    +0.156 HD
ENDBRANCH  21  28
ENDBRANCH   1  21
TORSDOF 6
ENDMDL
MODEL 2
REMARK VINA RESULT:     -12.1      1.452      2.755
REMARK  Name = 25243853
REMARK  6 active torsions:
REMARK  status: ('A' for Active; 'I' for Inactive)
REMARK    1  A    between atoms: N_1  and  C_6
REMARK    2  A    between atoms: N_1  and  C_21
REMARK    3  A    between atoms: C_3  and  C_16
REMARK    4  A    between atoms: C_11  and  C_18
REMARK    5  A    between atoms: C_18  and  O_19
REMARK    6  A    between atoms: C_21  and  C_28
REMARK                            x       y       z     vdW  Elec       q    Type
REMARK                         _______ _______ _______ _____ _____    ______ ____
ROOT
ATOM      1  N   UNL     1      35.378 -20.670 -21.056  0.00  0.00    -0.327 N 
ATOM      2  H   UNL     1      35.023 -20.984 -21.918  0.00  0.00    +0.147 HD
ENDROOT
BRANCH   1   6
ATOM      3  C   UNL     1      34.383 -22.810 -17.581  0.00  0.00    +0.054 C 
ATOM      4  C   UNL     1      35.708 -22.444 -17.819  0.00  0.00    +0.006 C 
ATOM      5  C   UNL     1      33.389 -22.464 -18.497  0.00  0.00    +0.006 C 
ATOM      6  C   UNL     1      35.044 -21.389 -19.888  0.00  0.00    +0.045 C 
ATOM      7  C   UNL     1      36.038 -21.733 -18.973  0.00  0.00    +0.014 C 
ATOM      8  C   UNL     1      33.719 -21.754 -19.650  0.00  0.00    +0.014 C 
BRANCH   3  16
ATOM      9  O   UNL     1      32.835 -23.755 -16.177  0.00  0.00    -0.270 OA
ATOM     10  N   UNL     1      35.073 -23.985 -15.536  0.00  0.00    -0.276 N 
ATOM     11  C   UNL     1      36.806 -23.647 -13.230  0.00  0.00    +0.102 C 
ATOM     12  C   UNL     1      35.317 -23.979 -13.087  0.00  0.00    +0.033 C 
ATOM     13  C   UNL     1      37.125 -23.003 -14.582  0.00  0.00    +0.033 C 
ATOM     14  C   UNL     1      34.763 -24.712 -14.307  0.00  0.00    +0.094 C 
ATOM     15  C   UNL     1      36.503 -23.748 -15.764  0.00  0.00    +0.094 C 
ATOM     16  C   UNL     1      34.034 -23.558 -16.367  0.00  0.00    +0.249 C 
BRANCH  11  18
ATOM     17  O   UNL     1      37.206 -25.915 -12.520  0.00  0.00    -0.250 OA
ATOM     18  C   UNL     1      37.637 -24.877 -13.005  0.00  0.00    +0.317 C 
BRANCH  18  19
ATOM     19  O   UNL     1      38.915 -24.645 -13.419  0.00  0.00    -0.444 OA
ATOM     20  C   UNL     1      39.600 -25.780 -13.959  0.00  0.00    +0.256 C 
ENDBRANCH  18  19
ENDBRANCH  11  18
ENDBRANCH   3  16
ENDBRANCH   1   6
BRANCH   1  21
ATOM     21  C   UNL     1      36.212 -19.509 -21.041  0.00  0.00    +0.145 C 
BRANCH  21  28
ATOM     22  N   UNL     1      35.156 -18.804 -23.122  0.00  0.00    -0.392 NA
ATOM     23  N   UNL     1      35.106 -16.159 -22.306  0.00  0.00    -0.200 NA
ATOM     24  N   UNL     1      34.103 -15.547 -24.301  0.00  0.00    -0.271 NA
ATOM     25  N   UNL     1      33.601 -17.182 -25.982  0.00  0.00    -0.310 NA
ATOM     26  N   UNL     1      34.137 -19.451 -25.601  0.00  0.00    -0.329 N 
ATOM     27  N   UNL     1      33.088 -14.923 -26.323  0.00  0.00    -0.283 N 
ATOM     28  C   UNL     1      35.640 -18.437 -21.926  0.00  0.00    +0.133 C 
ATOM     29  C   UNL     1      35.615 -17.129 -21.523  0.00  0.00    +0.193 C 
ATOM     30  C   UNL     1      34.647 -17.832 -23.904  0.00  0.00    +0.248 C 
ATOM     31  C   UNL     1      34.615 -16.494 -23.505  0.00  0.00    +0.131 C 
ATOM     32  C   UNL     1      34.123 -18.105 -25.153  0.00  0.00    +0.231 C 
ATOM     33  C   UNL     1      33.622 -15.935 -25.497  0.00  0.00    +0.207 C 
ATOM     34  H   UNL     1      33.773 -19.680 -26.486  0.00  0.00    +0.145 HD
ATOM     35  H   UNL     1      34.513 -20.157 -25.027  0.00  0.00    +0.145 HD
ATOM     36  H   UNL     1      33.080 -13.989 -26.013  0.00  0.00    +0.156 HD
ATOM     37  H   UNL     1      32.722 -15.151 -27.208  0.00  0.00    +0.156 HD
ENDBRANCH  21  28
ENDBRANCH   1  21
TORSDOF 6
ENDMDL
MODEL 3
REMARK VINA RESULT:     -11.8      6.552     12.377
REMARK  Name = 25243853
REMARK  6 active torsions:
REMARK  status: ('A' for Active; 'I' for Inactive)
REMARK    1  A    between atoms: N_1  and  C_6
REMARK    2  A    between atoms: N_1  and  C_21
REMARK    3  A    between atoms: C_3  and  C_16
REMARK    4  A    between atoms: C_11  and  C_18
REMARK    5  A    between atoms: C_18  and  O_19
REMARK    6  A    between atoms: C_21  and  C_28
REMARK                            x       y       z     vdW  Elec       q    Type
REMARK                         _______ _______ _______ _____ _____    ______ ____
ROOT
ATOM      1  N   UNL     1      32.749 -15.217 -25.549  0.00  0.00    -0.327 N 
ATOM      2  H   UNL     1      31.808 -15.449 -25.376  0.00  0.00    +0.147 HD
ENDROOT
BRANCH   1   6
ATOM      3  C   UNL     1      34.105 -11.392 -24.463  0.00  0.00    +0.054 C 
ATOM      4  C   UNL     1      33.932 -11.715 -25.809  0.00  0.00    +0.006 C 
ATOM      5  C   UNL     1      33.827 -12.340 -23.478  0.00  0.00    +0.006 C 
ATOM      6  C   UNL     1      33.204 -13.932 -25.184  0.00  0.00    +0.045 C 
ATOM      7  C   UNL     1      33.481 -12.985 -26.169  0.00  0.00    +0.014 C 
ATOM      8  C   UNL     1      33.377 -13.610 -23.838  0.00  0.00    +0.014 C 
BRANCH   3  16
ATOM      9  O   UNL     1      35.796  -9.879 -24.129  0.00  0.00    -0.270 OA
ATOM     10  N   UNL     1      33.630  -9.102 -23.708  0.00  0.00    -0.276 N 
ATOM     11  C   UNL     1      32.096  -7.675 -21.697  0.00  0.00    +0.102 C 
ATOM     12  C   UNL     1      33.600  -7.453 -21.882  0.00  0.00    +0.033 C 
ATOM     13  C   UNL     1      31.641  -9.029 -22.251  0.00  0.00    +0.033 C 
ATOM     14  C   UNL     1      34.066  -7.769 -23.302  0.00  0.00    +0.094 C 
ATOM     15  C   UNL     1      32.179  -9.316 -23.654  0.00  0.00    +0.094 C 
ATOM     16  C   UNL     1      34.579 -10.056 -24.083  0.00  0.00    +0.249 C 
BRANCH  11  18
ATOM     17  O   UNL     1      30.322  -6.701 -23.006  0.00  0.00    -0.250 OA
ATOM     18  C   UNL     1      31.323  -6.548 -22.319  0.00  0.00    +0.317 C 
BRANCH  18  19
ATOM     19  O   UNL     1      31.910  -5.361 -21.997  0.00  0.00    -0.444 OA
ATOM     20  C   UNL     1      31.659  -4.285 -22.906  0.00  0.00    +0.256 C 
ENDBRANCH  18  19
ENDBRANCH  11  18
ENDBRANCH   3  16
ENDBRANCH   1   6
BRANCH   1  21
ATOM     21  C   UNL     1      33.594 -16.196 -26.156  0.00  0.00    +0.145 C 
BRANCH  21  28
ATOM     22  N   UNL     1      34.448 -16.730 -23.935  0.00  0.00    -0.392 NA
ATOM     23  N   UNL     1      34.523 -19.435 -24.516  0.00  0.00    -0.200 NA
ATOM     24  N   UNL     1      35.332 -19.883 -22.393  0.00  0.00    -0.271 NA
ATOM     25  N   UNL     1      35.713 -18.114 -20.819  0.00  0.00    -0.310 NA
ATOM     26  N   UNL     1      35.258 -15.880 -21.441  0.00  0.00    -0.329 N 
ATOM     27  N   UNL     1      36.153 -20.340 -20.242  0.00  0.00    -0.283 N 
ATOM     28  C   UNL     1      34.065 -17.194 -25.135  0.00  0.00    +0.133 C 
ATOM     29  C   UNL     1      34.102 -18.532 -25.421  0.00  0.00    +0.193 C 
ATOM     30  C   UNL     1      34.868 -17.635 -23.031  0.00  0.00    +0.248 C 
ATOM     31  C   UNL     1      34.911 -19.003 -23.309  0.00  0.00    +0.131 C 
ATOM     32  C   UNL     1      35.282 -17.261 -21.767  0.00  0.00    +0.231 C 
ATOM     33  C   UNL     1      35.711 -19.398 -21.196  0.00  0.00    +0.207 C 
ATOM     34  H   UNL     1      35.547 -15.580 -20.550  0.00  0.00    +0.145 HD
ATOM     35  H   UNL     1      34.953 -15.222 -22.106  0.00  0.00    +0.145 HD
ATOM     36  H   UNL     1      36.172 -21.298 -20.469  0.00  0.00    +0.156 HD
ATOM     37  H   UNL     1      36.442 -20.040 -19.350  0.00  0.00    +0.156 HD
ENDBRANCH  21  28
ENDBRANCH   1  21
TORSDOF 6
ENDMDL
MODEL 4
REMARK VINA RESULT:     -11.4      5.031     11.205
REMARK  Name = 25243853
REMARK  6 active torsions:
REMARK  status: ('A' for Active; 'I' for Inactive)
REMARK    1  A    between atoms: N_1  and  C_6
REMARK    2  A    between atoms: N_1  and  C_21
REMARK    3  A    between atoms: C_3  and  C_16
REMARK    4  A    between atoms: C_11  and  C_18
REMARK    5  A    between atoms: C_18  and  O_19
REMARK    6  A    between atoms: C_21  and  C_28
REMARK                            x       y       z     vdW  Elec       q    Type
REMARK                         _______ _______ _______ _____ _____    ______ ____
ROOT
ATOM      1  N   UNL     1      34.929 -19.775 -22.914  0.00  0.00    -0.327 N 
ATOM      2  H   UNL     1      34.716 -20.650 -23.310  0.00  0.00    +0.147 HD
ENDROOT
BRANCH   1   6
ATOM      3  C   UNL     1      34.055 -16.309 -25.120  0.00  0.00    +0.054 C 
ATOM      4  C   UNL     1      34.861 -16.228 -23.985  0.00  0.00    +0.006 C 
ATOM      5  C   UNL     1      33.539 -17.541 -25.522  0.00  0.00    +0.006 C 
ATOM      6  C   UNL     1      34.636 -18.610 -23.655  0.00  0.00    +0.045 C 
ATOM      7  C   UNL     1      35.152 -17.379 -23.252  0.00  0.00    +0.014 C 
ATOM      8  C   UNL     1      33.829 -18.692 -24.790  0.00  0.00    +0.014 C 
BRANCH   3  16
ATOM      9  O   UNL     1      33.824 -15.200 -27.114  0.00  0.00    -0.270 OA
ATOM     10  N   UNL     1      33.396 -13.942 -25.189  0.00  0.00    -0.276 N 
ATOM     11  C   UNL     1      34.058 -11.392 -23.967  0.00  0.00    +0.102 C 
ATOM     12  C   UNL     1      34.044 -11.587 -25.486  0.00  0.00    +0.033 C 
ATOM     13  C   UNL     1      34.232 -12.717 -23.218  0.00  0.00    +0.033 C 
ATOM     14  C   UNL     1      33.108 -12.712 -25.922  0.00  0.00    +0.094 C 
ATOM     15  C   UNL     1      33.307 -13.822 -23.729  0.00  0.00    +0.094 C 
ATOM     16  C   UNL     1      33.748 -15.098 -25.891  0.00  0.00    +0.249 C 
BRANCH  11  18
ATOM     17  O   UNL     1      32.395  -9.649 -24.036  0.00  0.00    -0.250 OA
ATOM     18  C   UNL     1      32.814 -10.677 -23.522  0.00  0.00    +0.317 C 
BRANCH  18  19
ATOM     19  O   UNL     1      32.251 -11.350 -22.479  0.00  0.00    -0.444 OA
ATOM     20  C   UNL     1      31.444 -10.558 -21.602  0.00  0.00    +0.256 C 
ENDBRANCH  18  19
ENDBRANCH  11  18
ENDBRANCH   3  16
ENDBRANCH   1   6
BRANCH   1  21
ATOM     21  C   UNL     1      35.520 -19.739 -21.613  0.00  0.00    +0.145 C 
BRANCH  21  28
ATOM     22  N   UNL     1      35.374 -21.158 -19.635  0.00  0.00    -0.392 NA
ATOM     23  N   UNL     1      32.639 -21.453 -19.938  0.00  0.00    -0.200 NA
ATOM     24  N   UNL     1      32.560 -22.794 -18.053  0.00  0.00    -0.271 NA
ATOM     25  N   UNL     1      34.550 -23.298 -16.813  0.00  0.00    -0.310 NA
ATOM     26  N   UNL     1      36.623 -22.416 -17.524  0.00  0.00    -0.329 N 
ATOM     27  N   UNL     1      32.477 -24.155 -16.143  0.00  0.00    -0.283 N 
ATOM     28  C   UNL     1      34.720 -20.567 -20.646  0.00  0.00    +0.133 C 
ATOM     29  C   UNL     1      33.367 -20.713 -20.795  0.00  0.00    +0.193 C 
ATOM     30  C   UNL     1      34.644 -21.897 -18.778  0.00  0.00    +0.248 C 
ATOM     31  C   UNL     1      33.263 -22.054 -18.918  0.00  0.00    +0.131 C 
ATOM     32  C   UNL     1      35.221 -22.546 -17.704  0.00  0.00    +0.231 C 
ATOM     33  C   UNL     1      33.235 -23.379 -17.045  0.00  0.00    +0.207 C 
ATOM     34  H   UNL     1      37.066 -22.866 -16.769  0.00  0.00    +0.145 HD
ATOM     35  H   UNL     1      37.153 -21.877 -18.154  0.00  0.00    +0.145 HD
ATOM     36  H   UNL     1      31.505 -24.248 -16.269  0.00  0.00    +0.156 HD
ATOM     37  H   UNL     1      32.920 -24.606 -15.387  0.00  0.00    +0.156 HD
ENDBRANCH  21  28
ENDBRANCH   1  21
TORSDOF 6
ENDMDL
MODEL 5
REMARK VINA RESULT:     -11.3      1.319      2.114
REMARK  Name = 25243853
REMARK  6 active torsions:
REMARK  status: ('A' for Active; 'I' for Inactive)
REMARK    1  A    between atoms: N_1  and  C_6
REMARK    2  A    between atoms: N_1  and  C_21
REMARK    3  A    between atoms: C_3  and  C_16
REMARK    4  A    between atoms: C_11  and  C_18
REMARK    5  A    between atoms: C_18  and  O_19
REMARK    6  A    between atoms: C_21  and  C_28
REMARK                            x       y       z     vdW  Elec       q    Type
REMARK                         _______ _______ _______ _____ _____    ______ ____
ROOT
ATOM      1  N   UNL     1      34.755 -19.779 -21.877  0.00  0.00    -0.327 N 
ATOM      2  H   UNL     1      34.136 -19.825 -22.641  0.00  0.00    +0.147 HD
ENDROOT
BRANCH   1   6
ATOM      3  C   UNL     1      34.071 -22.294 -18.583  0.00  0.00    +0.054 C 
ATOM      4  C   UNL     1      32.994 -21.697 -19.240  0.00  0.00    +0.006 C 
ATOM      5  C   UNL     1      35.373 -22.056 -19.021  0.00  0.00    +0.006 C 
ATOM      6  C   UNL     1      34.525 -20.624 -20.771  0.00  0.00    +0.045 C 
ATOM      7  C   UNL     1      33.222 -20.862 -20.334  0.00  0.00    +0.014 C 
ATOM      8  C   UNL     1      35.601 -21.221 -20.114  0.00  0.00    +0.014 C 
BRANCH   3  16
ATOM      9  O   UNL     1      32.677 -23.567 -17.281  0.00  0.00    -0.270 OA
ATOM     10  N   UNL     1      34.916 -23.491 -16.610  0.00  0.00    -0.276 N 
ATOM     11  C   UNL     1      36.551 -23.054 -14.250  0.00  0.00    +0.102 C 
ATOM     12  C   UNL     1      35.132 -23.623 -14.162  0.00  0.00    +0.033 C 
ATOM     13  C   UNL     1      36.779 -22.273 -15.547  0.00  0.00    +0.033 C 
ATOM     14  C   UNL     1      34.712 -24.344 -15.442  0.00  0.00    +0.094 C 
ATOM     15  C   UNL     1      36.294 -23.018 -16.791  0.00  0.00    +0.094 C 
ATOM     16  C   UNL     1      33.832 -23.173 -17.431  0.00  0.00    +0.249 C 
BRANCH  11  18
ATOM     17  O   UNL     1      37.595 -25.157 -14.791  0.00  0.00    -0.250 OA
ATOM     18  C   UNL     1      37.563 -24.152 -14.094  0.00  0.00    +0.317 C 
BRANCH  18  19
ATOM     19  O   UNL     1      38.413 -23.847 -13.073  0.00  0.00    -0.444 OA
ATOM     20  C   UNL     1      37.942 -24.177 -11.762  0.00  0.00    +0.256 C 
ENDBRANCH  18  19
ENDBRANCH  11  18
ENDBRANCH   3  16
ENDBRANCH   1   6
BRANCH   1  21
ATOM     21  C   UNL     1      35.849 -18.860 -21.937  0.00  0.00    +0.145 C 
BRANCH  21  28
ATOM     22  N   UNL     1      34.904 -17.023 -23.234  0.00  0.00    -0.392 NA
ATOM     23  N   UNL     1      34.893 -15.352 -21.027  0.00  0.00    -0.200 NA
ATOM     24  N   UNL     1      33.995 -13.644 -22.306  0.00  0.00    -0.271 NA
ATOM     25  N   UNL     1      33.521 -13.966 -24.635  0.00  0.00    -0.310 NA
ATOM     26  N   UNL     1      33.977 -16.054 -25.642  0.00  0.00    -0.329 N 
ATOM     27  N   UNL     1      33.086 -11.911 -23.602  0.00  0.00    -0.283 N 
ATOM     28  C   UNL     1      35.345 -17.447 -22.040  0.00  0.00    +0.133 C 
ATOM     29  C   UNL     1      35.339 -16.620 -20.949  0.00  0.00    +0.193 C 
ATOM     30  C   UNL     1      34.457 -15.755 -23.310  0.00  0.00    +0.248 C 
ATOM     31  C   UNL     1      34.445 -14.901 -22.205  0.00  0.00    +0.131 C 
ATOM     32  C   UNL     1      33.981 -15.222 -24.492  0.00  0.00    +0.231 C 
ATOM     33  C   UNL     1      33.556 -13.238 -23.513  0.00  0.00    +0.207 C 
ATOM     34  H   UNL     1      33.645 -15.706 -26.501  0.00  0.00    +0.145 HD
ATOM     35  H   UNL     1      34.307 -16.979 -25.582  0.00  0.00    +0.145 HD
ATOM     36  H   UNL     1      33.091 -11.333 -22.805  0.00  0.00    +0.156 HD
ATOM     37  H   UNL     1      32.753 -11.562 -24.460  0.00  0.00    +0.156 HD
ENDBRANCH  21  28
ENDBRANCH   1  21
TORSDOF 6
ENDMDL
MODEL 6
REMARK VINA RESULT:     -11.3      5.060      8.730
REMARK  Name = 25243853
REMARK  6 active torsions:
REMARK  status: ('A' for Active; 'I' for Inactive)
REMARK    1  A    between atoms: N_1  and  C_6
REMARK    2  A    between atoms: N_1  and  C_21
REMARK    3  A    between atoms: C_3  and  C_16
REMARK    4  A    between atoms: C_11  and  C_18
REMARK    5  A    between atoms: C_18  and  O_19
REMARK    6  A    between atoms: C_21  and  C_28
REMARK                            x       y       z     vdW  Elec       q    Type
REMARK                         _______ _______ _______ _____ _____    ______ ____
ROOT
ATOM      1  N   UNL     1      33.402 -11.420 -24.838  0.00  0.00    -0.327 N 
ATOM      2  H   UNL     1      32.736 -11.041 -25.457  0.00  0.00    +0.147 HD
ENDROOT
BRANCH   1   6
ATOM      3  C   UNL     1      33.917 -15.588 -24.756  0.00  0.00    +0.054 C 
ATOM      4  C   UNL     1      34.151 -14.833 -23.606  0.00  0.00    +0.006 C 
ATOM      5  C   UNL     1      33.511 -14.958 -25.932  0.00  0.00    +0.006 C 
ATOM      6  C   UNL     1      33.574 -12.820 -24.810  0.00  0.00    +0.045 C 
ATOM      7  C   UNL     1      33.979 -13.449 -23.633  0.00  0.00    +0.014 C 
ATOM      8  C   UNL     1      33.340 -13.574 -25.960  0.00  0.00    +0.014 C 
BRANCH   3  16
ATOM      9  O   UNL     1      33.507 -17.681 -25.599  0.00  0.00    -0.270 OA
ATOM     10  N   UNL     1      34.914 -17.587 -23.733  0.00  0.00    -0.276 N 
ATOM     11  C   UNL     1      35.299 -18.823 -21.133  0.00  0.00    +0.102 C 
ATOM     12  C   UNL     1      34.650 -19.572 -22.302  0.00  0.00    +0.033 C 
ATOM     13  C   UNL     1      35.207 -17.304 -21.300  0.00  0.00    +0.033 C 
ATOM     14  C   UNL     1      35.098 -19.035 -23.659  0.00  0.00    +0.094 C 
ATOM     15  C   UNL     1      35.617 -16.826 -22.694  0.00  0.00    +0.094 C 
ATOM     16  C   UNL     1      34.097 -17.044 -24.727  0.00  0.00    +0.249 C 
BRANCH  11  18
ATOM     17  O   UNL     1      37.632 -18.957 -21.720  0.00  0.00    -0.250 OA
ATOM     18  C   UNL     1      36.724 -19.264 -20.960  0.00  0.00    +0.317 C 
BRANCH  18  19
ATOM     19  O   UNL     1      36.828 -20.041 -19.845  0.00  0.00    -0.444 OA
ATOM     20  C   UNL     1      36.321 -21.373 -19.975  0.00  0.00    +0.256 C 
ENDBRANCH  18  19
ENDBRANCH  11  18
ENDBRANCH   3  16
ENDBRANCH   1   6
BRANCH   1  21
ATOM     21  C   UNL     1      34.152 -10.528 -24.010  0.00  0.00    +0.145 C 
BRANCH  21  28
ATOM     22  N   UNL     1      33.594  -8.155 -23.946  0.00  0.00    -0.392 NA
ATOM     23  N   UNL     1      31.435  -8.616 -22.276  0.00  0.00    -0.200 NA
ATOM     24  N   UNL     1      30.953  -6.352 -22.251  0.00  0.00    -0.271 NA
ATOM     25  N   UNL     1      32.297  -4.790 -23.478  0.00  0.00    -0.310 NA
ATOM     26  N   UNL     1      34.143  -5.570 -24.730  0.00  0.00    -0.329 N 
ATOM     27  N   UNL     1      30.461  -4.057 -22.224  0.00  0.00    -0.283 N 
ATOM     28  C   UNL     1      33.286  -9.395 -23.535  0.00  0.00    +0.133 C 
ATOM     29  C   UNL     1      32.218  -9.622 -22.710  0.00  0.00    +0.193 C 
ATOM     30  C   UNL     1      32.810  -7.150 -23.511  0.00  0.00    +0.248 C 
ATOM     31  C   UNL     1      31.717  -7.368 -22.669  0.00  0.00    +0.131 C 
ATOM     32  C   UNL     1      33.041  -5.838 -23.877  0.00  0.00    +0.231 C 
ATOM     33  C   UNL     1      31.278  -5.116 -22.675  0.00  0.00    +0.207 C 
ATOM     34  H   UNL     1      34.336  -4.646 -25.009  0.00  0.00    +0.145 HD
ATOM     35  H   UNL     1      34.714  -6.308 -25.043  0.00  0.00    +0.145 HD
ATOM     36  H   UNL     1      29.698  -4.242 -21.630  0.00  0.00    +0.156 HD
ATOM     37  H   UNL     1      30.654  -3.132 -22.503  0.00  0.00    +0.156 HD
ENDBRANCH  21  28
ENDBRANCH   1  21
TORSDOF 6
ENDMDL
MODEL 7
REMARK VINA RESULT:     -10.8      7.819     13.852
REMARK  Name = 25243853
REMARK  6 active torsions:
REMARK  status: ('A' for Active; 'I' for Inactive)
REMARK    1  A    between atoms: N_1  and  C_6
REMARK    2  A    between atoms: N_1  and  C_21
REMARK    3  A    between atoms: C_3  and  C_16
REMARK    4  A    between atoms: C_11  and  C_18
REMARK    5  A    between atoms: C_18  and  O_19
REMARK    6  A    between atoms: C_21  and  C_28
REMARK                            x       y       z     vdW  Elec       q    Type
REMARK                         _______ _______ _______ _____ _____    ______ ____
ROOT
ATOM      1  N   UNL     1      32.616 -13.295 -23.416  0.00  0.00    -0.327 N 
ATOM      2  H   UNL     1      31.815 -13.859 -23.513  0.00  0.00    +0.147 HD
ENDROOT
BRANCH   1   6
ATOM      3  C   UNL     1      32.211  -9.530 -21.598  0.00  0.00    +0.054 C 
ATOM      4  C   UNL     1      33.000  -9.671 -22.740  0.00  0.00    +0.006 C 
ATOM      5  C   UNL     1      31.556 -10.638 -21.061  0.00  0.00    +0.006 C 
ATOM      6  C   UNL     1      32.480 -12.030 -22.806  0.00  0.00    +0.045 C 
ATOM      7  C   UNL     1      33.134 -10.922 -23.344  0.00  0.00    +0.014 C 
ATOM      8  C   UNL     1      31.690 -11.888 -21.664  0.00  0.00    +0.014 C 
BRANCH   3  16
ATOM      9  O   UNL     1      31.940  -8.214 -19.740  0.00  0.00    -0.270 OA
ATOM     10  N   UNL     1      32.097  -7.081 -21.780  0.00  0.00    -0.276 N 
ATOM     11  C   UNL     1      30.768  -5.005 -23.316  0.00  0.00    +0.102 C 
ATOM     12  C   UNL     1      30.731  -5.034 -21.785  0.00  0.00    +0.033 C 
ATOM     13  C   UNL     1      31.068  -6.384 -23.911  0.00  0.00    +0.033 C 
ATOM     14  C   UNL     1      31.935  -5.757 -21.185  0.00  0.00    +0.094 C 
ATOM     15  C   UNL     1      32.251  -7.084 -23.240  0.00  0.00    +0.094 C 
ATOM     16  C   UNL     1      32.070  -8.214 -20.963  0.00  0.00    +0.249 C 
BRANCH  11  18
ATOM     17  O   UNL     1      32.610  -4.197 -24.644  0.00  0.00    -0.250 OA
ATOM     18  C   UNL     1      31.758  -3.981 -23.793  0.00  0.00    +0.317 C 
BRANCH  18  19
ATOM     19  O   UNL     1      31.551  -2.806 -23.134  0.00  0.00    -0.444 OA
ATOM     20  C   UNL     1      30.813  -1.817 -23.860  0.00  0.00    +0.256 C 
ENDBRANCH  18  19
ENDBRANCH  11  18
ENDBRANCH   3  16
ENDBRANCH   1   6
BRANCH   1  21
ATOM     21  C   UNL     1      33.866 -13.793 -23.898  0.00  0.00    +0.145 C 
BRANCH  21  28
ATOM     22  N   UNL     1      34.474 -16.137 -23.604  0.00  0.00    -0.392 NA
ATOM     23  N   UNL     1      35.082 -15.737 -20.934  0.00  0.00    -0.200 NA
ATOM     24  N   UNL     1      35.646 -17.972 -20.713  0.00  0.00    -0.271 NA
ATOM     25  N   UNL     1      35.497 -19.472 -22.578  0.00  0.00    -0.310 NA
ATOM     26  N   UNL     1      34.763 -18.662 -24.672  0.00  0.00    -0.329 N 
ATOM     27  N   UNL     1      36.218 -20.237 -20.486  0.00  0.00    -0.283 N 
ATOM     28  C   UNL     1      34.349 -14.927 -23.037  0.00  0.00    +0.133 C 
ATOM     29  C   UNL     1      34.650 -14.730 -21.716  0.00  0.00    +0.193 C 
ATOM     30  C   UNL     1      34.907 -17.143 -22.820  0.00  0.00    +0.248 C 
ATOM     31  C   UNL     1      35.218 -16.956 -21.471  0.00  0.00    +0.131 C 
ATOM     32  C   UNL     1      35.070 -18.425 -23.307  0.00  0.00    +0.231 C 
ATOM     33  C   UNL     1      35.765 -19.177 -21.301  0.00  0.00    +0.207 C 
ATOM     34  H   UNL     1      34.868 -19.564 -25.052  0.00  0.00    +0.145 HD
ATOM     35  H   UNL     1      34.445 -17.924 -25.241  0.00  0.00    +0.145 HD
ATOM     36  H   UNL     1      36.428 -20.074 -19.538  0.00  0.00    +0.156 HD
ATOM     37  H   UNL     1      36.323 -21.140 -20.865  0.00  0.00    +0.156 HD
ENDBRANCH  21  28
ENDBRANCH   1  21
TORSDOF 6
ENDMDL
MODEL 8
REMARK VINA RESULT:     -10.8      4.324     11.008
REMARK  Name = 25243853
REMARK  6 active torsions:
REMARK  status: ('A' for Active; 'I' for Inactive)
REMARK    1  A    between atoms: N_1  and  C_6
REMARK    2  A    between atoms: N_1  and  C_21
REMARK    3  A    between atoms: C_3  and  C_16
REMARK    4  A    between atoms: C_11  and  C_18
REMARK    5  A    between atoms: C_18  and  O_19
REMARK    6  A    between atoms: C_21  and  C_28
REMARK                            x       y       z     vdW  Elec       q    Type
REMARK                         _______ _______ _______ _____ _____    ______ ____
ROOT
ATOM      1  N   UNL     1      36.167 -20.152 -20.318  0.00  0.00    -0.327 N 
ATOM      2  H   UNL     1      36.629 -19.786 -19.529  0.00  0.00    +0.147 HD
ENDROOT
BRANCH   1   6
ATOM      3  C   UNL     1      34.863 -17.492 -23.296  0.00  0.00    +0.054 C 
ATOM      4  C   UNL     1      35.616 -17.020 -22.220  0.00  0.00    +0.006 C 
ATOM      5  C   UNL     1      34.545 -18.847 -23.382  0.00  0.00    +0.006 C 
ATOM      6  C   UNL     1      35.730 -19.258 -21.318  0.00  0.00    +0.045 C 
ATOM      7  C   UNL     1      36.049 -17.904 -21.231  0.00  0.00    +0.014 C 
ATOM      8  C   UNL     1      34.977 -19.730 -22.394  0.00  0.00    +0.014 C 
BRANCH   3  16
ATOM      9  O   UNL     1      34.540 -16.943 -25.499  0.00  0.00    -0.270 OA
ATOM     10  N   UNL     1      33.862 -15.340 -23.935  0.00  0.00    -0.276 N 
ATOM     11  C   UNL     1      34.094 -12.501 -23.369  0.00  0.00    +0.102 C 
ATOM     12  C   UNL     1      34.162 -13.055 -24.796  0.00  0.00    +0.033 C 
ATOM     13  C   UNL     1      34.437 -13.565 -22.322  0.00  0.00    +0.033 C 
ATOM     14  C   UNL     1      33.419 -14.381 -24.943  0.00  0.00    +0.094 C 
ATOM     15  C   UNL     1      33.705 -14.889 -22.547  0.00  0.00    +0.094 C 
ATOM     16  C   UNL     1      34.407 -16.563 -24.336  0.00  0.00    +0.249 C 
BRANCH  11  18
ATOM     17  O   UNL     1      31.901 -12.400 -22.374  0.00  0.00    -0.250 OA
ATOM     18  C   UNL     1      32.743 -11.900 -23.107  0.00  0.00    +0.317 C 
BRANCH  18  19
ATOM     19  O   UNL     1      32.620 -10.736 -23.807  0.00  0.00    -0.444 OA
ATOM     20  C   UNL     1      32.846  -9.540 -23.054  0.00  0.00    +0.256 C 
ENDBRANCH  18  19
ENDBRANCH  11  18
ENDBRANCH   3  16
ENDBRANCH   1   6
BRANCH   1  21
ATOM     21  C   UNL     1      35.971 -21.566 -20.400  0.00  0.00    +0.145 C 
BRANCH  21  28
ATOM     22  N   UNL     1      35.304 -22.527 -18.260  0.00  0.00    -0.392 NA
ATOM     23  N   UNL     1      32.618 -22.277 -18.883  0.00  0.00    -0.200 NA
ATOM     24  N   UNL     1      32.043 -23.196 -16.837  0.00  0.00    -0.271 NA
ATOM     25  N   UNL     1      33.729 -23.877 -15.273  0.00  0.00    -0.310 NA
ATOM     26  N   UNL     1      36.010 -23.610 -15.826  0.00  0.00    -0.329 N 
ATOM     27  N   UNL     1      31.457 -24.127 -14.764  0.00  0.00    -0.283 N 
ATOM     28  C   UNL     1      34.908 -22.008 -19.432  0.00  0.00    +0.133 C 
ATOM     29  C   UNL     1      33.580 -21.884 -19.739  0.00  0.00    +0.193 C 
ATOM     30  C   UNL     1      34.340 -22.920 -17.404  0.00  0.00    +0.248 C 
ATOM     31  C   UNL     1      32.981 -22.799 -17.705  0.00  0.00    +0.131 C 
ATOM     32  C   UNL     1      34.642 -23.466 -16.172  0.00  0.00    +0.231 C 
ATOM     33  C   UNL     1      32.460 -23.714 -15.667  0.00  0.00    +0.207 C 
ATOM     34  H   UNL     1      36.260 -23.997 -14.956  0.00  0.00    +0.145 HD
ATOM     35  H   UNL     1      36.710 -23.324 -16.456  0.00  0.00    +0.145 HD
ATOM     36  H   UNL     1      30.508 -24.030 -15.005  0.00  0.00    +0.156 HD
ATOM     37  H   UNL     1      31.706 -24.514 -13.893  0.00  0.00    +0.156 HD
ENDBRANCH  21  28
ENDBRANCH   1  21
TORSDOF 6
ENDMDL
MODEL 9
REMARK VINA RESULT:     -10.6      4.331      8.002
REMARK  Name = 25243853
REMARK  6 active torsions:
REMARK  status: ('A' for Active; 'I' for Inactive)
REMARK    1  A    between atoms: N_1  and  C_6
REMARK    2  A    between atoms: N_1  and  C_21
REMARK    3  A    between atoms: C_3  and  C_16
REMARK    4  A    between atoms: C_11  and  C_18
REMARK    5  A    between atoms: C_18  and  O_19
REMARK    6  A    between atoms: C_21  and  C_28
REMARK                            x       y       z     vdW  Elec       q    Type
REMARK                         _______ _______ _______ _____ _____    ______ ____
ROOT
ATOM      1  N   UNL     1      33.306 -12.037 -25.581  0.00  0.00    -0.327 N 
ATOM      2  H   UNL     1      32.407 -11.719 -25.823  0.00  0.00    +0.147 HD
ENDROOT
BRANCH   1   6
ATOM      3  C   UNL     1      33.885 -16.156 -24.991  0.00  0.00    +0.054 C 
ATOM      4  C   UNL     1      33.563 -15.672 -26.259  0.00  0.00    +0.006 C 
ATOM      5  C   UNL     1      34.014 -15.272 -23.919  0.00  0.00    +0.006 C 
ATOM      6  C   UNL     1      33.501 -13.421 -25.383  0.00  0.00    +0.045 C 
ATOM      7  C   UNL     1      33.372 -14.304 -26.455  0.00  0.00    +0.014 C 
ATOM      8  C   UNL     1      33.822 -13.905 -24.115  0.00  0.00    +0.014 C 
BRANCH   3  16
ATOM      9  O   UNL     1      33.476 -18.343 -25.545  0.00  0.00    -0.270 OA
ATOM     10  N   UNL     1      34.945 -17.999 -23.758  0.00  0.00    -0.276 N 
ATOM     11  C   UNL     1      35.435 -18.889 -21.037  0.00  0.00    +0.102 C 
ATOM     12  C   UNL     1      34.758 -19.787 -22.077  0.00  0.00    +0.033 C 
ATOM     13  C   UNL     1      35.316 -17.404 -21.393  0.00  0.00    +0.033 C 
ATOM     14  C   UNL     1      35.151 -19.423 -23.507  0.00  0.00    +0.094 C 
ATOM     15  C   UNL     1      35.672 -17.104 -22.850  0.00  0.00    +0.094 C 
ATOM     16  C   UNL     1      34.086 -17.595 -24.784  0.00  0.00    +0.249 C 
BRANCH  11  18
ATOM     17  O   UNL     1      37.777 -18.937 -21.603  0.00  0.00    -0.250 OA
ATOM     18  C   UNL     1      36.872 -19.290 -20.860  0.00  0.00    +0.317 C 
BRANCH  18  19
ATOM     19  O   UNL     1      36.989 -20.091 -19.763  0.00  0.00    -0.444 OA
ATOM     20  C   UNL     1      36.429 -21.401 -19.897  0.00  0.00    +0.256 C 
ENDBRANCH  18  19
ENDBRANCH  11  18
ENDBRANCH   3  16
ENDBRANCH   1   6
BRANCH   1  21
ATOM     21  C   UNL     1      34.359 -11.079 -25.448  0.00  0.00    +0.145 C 
BRANCH  21  28
ATOM     22  N   UNL     1      33.110 -10.468 -23.444  0.00  0.00    -0.392 NA
ATOM     23  N   UNL     1      34.493  -8.082 -23.201  0.00  0.00    -0.200 NA
ATOM     24  N   UNL     1      33.277  -7.554 -21.303  0.00  0.00    -0.271 NA
ATOM     25  N   UNL     1      31.594  -9.042 -20.463  0.00  0.00    -0.310 NA
ATOM     26  N   UNL     1      31.167 -11.076 -21.586  0.00  0.00    -0.329 N 
ATOM     27  N   UNL     1      32.045  -7.015 -19.379  0.00  0.00    -0.283 N 
ATOM     28  C   UNL     1      34.064 -10.125 -24.324  0.00  0.00    +0.133 C 
ATOM     29  C   UNL     1      34.748  -8.946 -24.203  0.00  0.00    +0.193 C 
ATOM     30  C   UNL     1      32.857  -9.603 -22.443  0.00  0.00    +0.248 C 
ATOM     31  C   UNL     1      33.547  -8.396 -22.308  0.00  0.00    +0.131 C 
ATOM     32  C   UNL     1      31.895  -9.862 -21.486  0.00  0.00    +0.231 C 
ATOM     33  C   UNL     1      32.316  -7.916 -20.432  0.00  0.00    +0.207 C 
ATOM     34  H   UNL     1      30.474 -11.290 -20.921  0.00  0.00    +0.145 HD
ATOM     35  H   UNL     1      31.354 -11.703 -22.321  0.00  0.00    +0.145 HD
ATOM     36  H   UNL     1      32.548  -6.172 -19.311  0.00  0.00    +0.156 HD
ATOM     37  H   UNL     1      31.352  -7.230 -18.713  0.00  0.00    +0.156 HD
ENDBRANCH  21  28
ENDBRANCH   1  21
TORSDOF 6
ENDMDL
