MODEL 1
REMARK VINA RESULT:     -11.8      0.000      0.000
REMARK  Name = 24812719
REMARK  3 active torsions:
REMARK  status: ('A' for Active; 'I' for Inactive)
REMARK    1  A    between atoms: N_2  and  C_22
REMARK    2  A    between atoms: C_3  and  C_12
REMARK    3  A    between atoms: C_25  and  C_31
REMARK                            x       y       z     vdW  Elec       q    Type
REMARK                         _______ _______ _______ _____ _____    ______ ____
ROOT
ATOM      1  O   UNL     1      34.553 -15.367 -22.160  0.00  0.00    -0.269 OA
ATOM      2  N   UNL     1      33.764 -14.826 -24.312  0.00  0.00    -0.233 N 
ATOM      3  C   UNL     1      34.534 -17.129 -23.722  0.00  0.00    +0.046 C 
ATOM      4  C   UNL     1      34.169 -17.558 -24.948  0.00  0.00    -0.016 C 
ATOM      5  C   UNL     1      34.301 -15.686 -23.323  0.00  0.00    +0.256 C 
ATOM      6  C   UNL     1      33.401 -15.344 -25.550  0.00  0.00    +0.072 C 
ATOM      7  C   UNL     1      33.573 -16.627 -25.877  0.00  0.00    +0.012 C 
ATOM      8  C   UNL     1      34.328 -18.956 -25.484  0.00  0.00    +0.031 C 
ENDROOT
BRANCH   3  12
ATOM      9  N   UNL     1      36.903 -20.596 -19.952  0.00  0.00    -0.342 NA
ATOM     10  N   UNL     1      34.764 -21.602 -19.485  0.00  0.00    -0.170 NA
ATOM     11  N   UNL     1      36.699 -22.326 -18.380  0.00  0.00    -0.293 N 
ATOM     12  C   UNL     1      35.146 -18.038 -22.735  0.00  0.00    -0.017 C 
ATOM     13  C   UNL     1      34.361 -18.958 -22.048  0.00  0.00    +0.056 C 
ATOM     14  C   UNL     1      36.513 -17.980 -22.485  0.00  0.00    -0.022 C 
ATOM     15  C   UNL     1      34.950 -19.822 -21.110  0.00  0.00    +0.029 C 
ATOM     16  C   UNL     1      36.329 -19.774 -20.848  0.00  0.00    +0.124 C 
ATOM     17  C   UNL     1      37.091 -18.843 -21.550  0.00  0.00    +0.085 C 
ATOM     18  C   UNL     1      34.221 -20.765 -20.389  0.00  0.00    +0.110 C 
ATOM     19  C   UNL     1      36.089 -21.465 -19.319  0.00  0.00    +0.141 C 
ATOM     20  H   UNL     1      37.668 -22.270 -18.218  0.00  0.00    +0.155 HD
ATOM     21  H   UNL     1      36.154 -22.982 -17.888  0.00  0.00    +0.155 HD
ENDBRANCH   3  12
BRANCH   2  22
ATOM     22  C   UNL     1      33.571 -13.418 -24.020  0.00  0.00    +0.058 C 
ATOM     23  C   UNL     1      32.791 -13.033 -22.932  0.00  0.00    +0.019 C 
ATOM     24  C   UNL     1      34.164 -12.451 -24.831  0.00  0.00    +0.015 C 
ATOM     25  C   UNL     1      32.604 -11.680 -22.652  0.00  0.00    +0.073 C 
ATOM     26  C   UNL     1      33.978 -11.097 -24.551  0.00  0.00    +0.001 C 
ATOM     27  C   UNL     1      33.197 -10.711 -23.462  0.00  0.00    +0.004 C 
BRANCH  25  31
ATOM     28  F   UNL     1      30.432 -11.214 -21.764  0.00  0.00    -0.166 F 
ATOM     29  F   UNL     1      31.877 -12.101 -20.412  0.00  0.00    -0.166 F 
ATOM     30  F   UNL     1      32.095 -10.025 -21.022  0.00  0.00    -0.166 F 
ATOM     31  C   UNL     1      31.768 -11.266 -21.488  0.00  0.00    +0.419 C 
ENDBRANCH  25  31
ENDBRANCH   2  22
TORSDOF 3
ENDMDL
MODEL 2
REMARK VINA RESULT:     -11.4      3.913      8.543
REMARK  Name = 24812719
REMARK  3 active torsions:
REMARK  status: ('A' for Active; 'I' for Inactive)
REMARK    1  A    between atoms: N_2  and  C_22
REMARK    2  A    between atoms: C_3  and  C_12
REMARK    3  A    between atoms: C_25  and  C_31
REMARK                            x       y       z     vdW  Elec       q    Type
REMARK                         _______ _______ _______ _____ _____    ______ ____
ROOT
ATOM      1  O   UNL     1      34.842 -15.671 -21.733  0.00  0.00    -0.269 OA
ATOM      2  N   UNL     1      34.903 -17.473 -23.247  0.00  0.00    -0.233 N 
ATOM      3  C   UNL     1      33.951 -15.249 -23.872  0.00  0.00    +0.046 C 
ATOM      4  C   UNL     1      33.762 -15.691 -25.132  0.00  0.00    -0.016 C 
ATOM      5  C   UNL     1      34.593 -16.153 -22.839  0.00  0.00    +0.256 C 
ATOM      6  C   UNL     1      34.690 -17.853 -24.568  0.00  0.00    +0.072 C 
ATOM      7  C   UNL     1      34.161 -17.034 -25.480  0.00  0.00    +0.012 C 
ATOM      8  C   UNL     1      33.146 -14.912 -26.264  0.00  0.00    +0.031 C 
ENDROOT
BRANCH   3  12
ATOM      9  N   UNL     1      32.443 -10.045 -22.292  0.00  0.00    -0.342 NA
ATOM     10  N   UNL     1      34.039  -9.084 -23.819  0.00  0.00    -0.170 NA
ATOM     11  N   UNL     1      32.686  -7.719 -22.479  0.00  0.00    -0.293 N 
ATOM     12  C   UNL     1      33.562 -13.886 -23.463  0.00  0.00    -0.017 C 
ATOM     13  C   UNL     1      34.179 -12.779 -24.037  0.00  0.00    +0.056 C 
ATOM     14  C   UNL     1      32.575 -13.699 -22.501  0.00  0.00    -0.022 C 
ATOM     15  C   UNL     1      33.804 -11.483 -23.645  0.00  0.00    +0.029 C 
ATOM     16  C   UNL     1      32.809 -11.281 -22.675  0.00  0.00    +0.124 C 
ATOM     17  C   UNL     1      32.208 -12.407 -22.117  0.00  0.00    +0.085 C 
ATOM     18  C   UNL     1      34.382 -10.335 -24.180  0.00  0.00    +0.110 C 
ATOM     19  C   UNL     1      33.078  -9.015 -22.885  0.00  0.00    +0.141 C 
ATOM     20  H   UNL     1      31.986  -7.609 -21.797  0.00  0.00    +0.155 HD
ATOM     21  H   UNL     1      33.115  -6.928 -22.878  0.00  0.00    +0.155 HD
ENDBRANCH   3  12
BRANCH   2  22
ATOM     22  C   UNL     1      35.464 -18.412 -22.295  0.00  0.00    +0.058 C 
ATOM     23  C   UNL     1      34.645 -19.362 -21.687  0.00  0.00    +0.019 C 
ATOM     24  C   UNL     1      36.823 -18.363 -21.987  0.00  0.00    +0.015 C 
ATOM     25  C   UNL     1      35.185 -20.265 -20.771  0.00  0.00    +0.073 C 
ATOM     26  C   UNL     1      37.364 -19.266 -21.070  0.00  0.00    +0.001 C 
ATOM     27  C   UNL     1      36.544 -20.216 -20.462  0.00  0.00    +0.004 C 
BRANCH  25  31
ATOM     28  F   UNL     1      34.558 -22.561 -20.525  0.00  0.00    -0.166 F 
ATOM     29  F   UNL     1      34.426 -21.310 -18.758  0.00  0.00    -0.166 F 
ATOM     30  F   UNL     1      32.984 -21.068 -20.367  0.00  0.00    -0.166 F 
ATOM     31  C   UNL     1      34.309 -21.281 -20.119  0.00  0.00    +0.419 C 
ENDBRANCH  25  31
ENDBRANCH   2  22
TORSDOF 3
ENDMDL
MODEL 3
REMARK VINA RESULT:     -10.9      1.718      2.251
REMARK  Name = 24812719
REMARK  3 active torsions:
REMARK  status: ('A' for Active; 'I' for Inactive)
REMARK    1  A    between atoms: N_2  and  C_22
REMARK    2  A    between atoms: C_3  and  C_12
REMARK    3  A    between atoms: C_25  and  C_31
REMARK                            x       y       z     vdW  Elec       q    Type
REMARK                         _______ _______ _______ _____ _____    ______ ____
ROOT
ATOM      1  O   UNL     1      34.541 -15.570 -21.936  0.00  0.00    -0.269 OA
ATOM      2  N   UNL     1      33.778 -15.010 -24.092  0.00  0.00    -0.233 N 
ATOM      3  C   UNL     1      34.615 -17.297 -23.536  0.00  0.00    +0.046 C 
ATOM      4  C   UNL     1      34.290 -17.711 -24.777  0.00  0.00    -0.016 C 
ATOM      5  C   UNL     1      34.325 -15.872 -23.111  0.00  0.00    +0.256 C 
ATOM      6  C   UNL     1      33.457 -15.512 -25.348  0.00  0.00    +0.072 C 
ATOM      7  C   UNL     1      33.681 -16.781 -25.699  0.00  0.00    +0.012 C 
ATOM      8  C   UNL     1      34.509 -19.090 -25.340  0.00  0.00    +0.031 C 
ENDROOT
BRANCH   3  12
ATOM      9  N   UNL     1      37.028 -20.763 -19.792  0.00  0.00    -0.342 NA
ATOM     10  N   UNL     1      34.896 -21.773 -19.305  0.00  0.00    -0.170 NA
ATOM     11  N   UNL     1      36.843 -22.495 -18.220  0.00  0.00    -0.293 N 
ATOM     12  C   UNL     1      35.239 -18.205 -22.555  0.00  0.00    -0.017 C 
ATOM     13  C   UNL     1      34.463 -19.128 -21.861  0.00  0.00    +0.056 C 
ATOM     14  C   UNL     1      36.608 -18.146 -22.319  0.00  0.00    -0.022 C 
ATOM     15  C   UNL     1      35.063 -19.992 -20.930  0.00  0.00    +0.029 C 
ATOM     16  C   UNL     1      36.444 -19.941 -20.682  0.00  0.00    +0.124 C 
ATOM     17  C   UNL     1      37.197 -19.008 -21.390  0.00  0.00    +0.085 C 
ATOM     18  C   UNL     1      34.343 -20.936 -20.202  0.00  0.00    +0.110 C 
ATOM     19  C   UNL     1      36.222 -21.634 -19.152  0.00  0.00    +0.141 C 
ATOM     20  H   UNL     1      37.813 -22.437 -18.067  0.00  0.00    +0.155 HD
ATOM     21  H   UNL     1      36.304 -23.152 -17.723  0.00  0.00    +0.155 HD
ENDBRANCH   3  12
BRANCH   2  22
ATOM     22  C   UNL     1      33.530 -13.616 -23.774  0.00  0.00    +0.058 C 
ATOM     23  C   UNL     1      34.267 -12.615 -24.405  0.00  0.00    +0.019 C 
ATOM     24  C   UNL     1      32.555 -13.278 -22.836  0.00  0.00    +0.015 C 
ATOM     25  C   UNL     1      34.029 -11.276 -24.099  0.00  0.00    +0.073 C 
ATOM     26  C   UNL     1      32.316 -11.938 -22.530  0.00  0.00    +0.001 C 
ATOM     27  C   UNL     1      33.054 -10.937 -23.161  0.00  0.00    +0.004 C 
BRANCH  25  31
ATOM     28  F   UNL     1      35.044 -10.441 -26.098  0.00  0.00    -0.166 F 
ATOM     29  F   UNL     1      34.223  -8.976 -24.726  0.00  0.00    -0.166 F 
ATOM     30  F   UNL     1      36.053 -10.033 -24.215  0.00  0.00    -0.166 F 
ATOM     31  C   UNL     1      34.819 -10.204 -24.772  0.00  0.00    +0.419 C 
ENDBRANCH  25  31
ENDBRANCH   2  22
TORSDOF 3
ENDMDL
MODEL 4
REMARK VINA RESULT:     -10.4      4.410      6.680
REMARK  Name = 24812719
REMARK  3 active torsions:
REMARK  status: ('A' for Active; 'I' for Inactive)
REMARK    1  A    between atoms: N_2  and  C_22
REMARK    2  A    between atoms: C_3  and  C_12
REMARK    3  A    between atoms: C_25  and  C_31
REMARK                            x       y       z     vdW  Elec       q    Type
REMARK                         _______ _______ _______ _____ _____    ______ ____
ROOT
ATOM      1  O   UNL     1      34.200 -10.535 -24.071  0.00  0.00    -0.269 OA
ATOM      2  N   UNL     1      32.843  -9.133 -22.751  0.00  0.00    -0.233 N 
ATOM      3  C   UNL     1      32.845 -11.616 -22.476  0.00  0.00    +0.046 C 
ATOM      4  C   UNL     1      32.004 -11.494 -21.428  0.00  0.00    -0.016 C 
ATOM      5  C   UNL     1      33.352 -10.380 -23.190  0.00  0.00    +0.256 C 
ATOM      6  C   UNL     1      31.987  -9.085 -21.656  0.00  0.00    +0.072 C 
ATOM      7  C   UNL     1      31.580 -10.180 -21.008  0.00  0.00    +0.012 C 
ATOM      8  C   UNL     1      31.425 -12.623 -20.618  0.00  0.00    +0.031 C 
ENDROOT
BRANCH   3  12
ATOM      9  N   UNL     1      34.642 -16.663 -24.252  0.00  0.00    -0.342 NA
ATOM     10  N   UNL     1      33.354 -16.445 -26.276  0.00  0.00    -0.170 NA
ATOM     11  N   UNL     1      34.652 -18.354 -25.878  0.00  0.00    -0.293 N 
ATOM     12  C   UNL     1      33.310 -12.935 -22.946  0.00  0.00    -0.017 C 
ATOM     13  C   UNL     1      32.882 -13.432 -24.172  0.00  0.00    +0.056 C 
ATOM     14  C   UNL     1      34.181 -13.688 -22.165  0.00  0.00    -0.022 C 
ATOM     15  C   UNL     1      33.330 -14.689 -24.616  0.00  0.00    +0.029 C 
ATOM     16  C   UNL     1      34.208 -15.459 -23.837  0.00  0.00    +0.124 C 
ATOM     17  C   UNL     1      34.621 -14.937 -22.614  0.00  0.00    +0.085 C 
ATOM     18  C   UNL     1      32.939 -15.244 -25.832  0.00  0.00    +0.110 C 
ATOM     19  C   UNL     1      34.191 -17.089 -25.449  0.00  0.00    +0.141 C 
ATOM     20  H   UNL     1      35.268 -18.871 -25.311  0.00  0.00    +0.155 HD
ATOM     21  H   UNL     1      34.357 -18.717 -26.745  0.00  0.00    +0.155 HD
ENDBRANCH   3  12
BRANCH   2  22
ATOM     22  C   UNL     1      33.236  -7.912 -23.428  0.00  0.00    +0.058 C 
ATOM     23  C   UNL     1      32.359  -6.830 -23.482  0.00  0.00    +0.019 C 
ATOM     24  C   UNL     1      34.493  -7.821 -24.027  0.00  0.00    +0.015 C 
ATOM     25  C   UNL     1      32.737  -5.657 -24.132  0.00  0.00    +0.073 C 
ATOM     26  C   UNL     1      34.871  -6.647 -24.678  0.00  0.00    +0.001 C 
ATOM     27  C   UNL     1      33.993  -5.565 -24.732  0.00  0.00    +0.004 C 
BRANCH  25  31
ATOM     28  F   UNL     1      30.494  -4.839 -23.965  0.00  0.00    -0.166 F 
ATOM     29  F   UNL     1      32.074  -3.523 -23.276  0.00  0.00    -0.166 F 
ATOM     30  F   UNL     1      31.808  -3.875 -25.405  0.00  0.00    -0.166 F 
ATOM     31  C   UNL     1      31.797  -4.499 -24.191  0.00  0.00    +0.419 C 
ENDBRANCH  25  31
ENDBRANCH   2  22
TORSDOF 3
ENDMDL
MODEL 5
REMARK VINA RESULT:     -10.4      4.769     10.289
REMARK  Name = 24812719
REMARK  3 active torsions:
REMARK  status: ('A' for Active; 'I' for Inactive)
REMARK    1  A    between atoms: N_2  and  C_22
REMARK    2  A    between atoms: C_3  and  C_12
REMARK    3  A    between atoms: C_25  and  C_31
REMARK                            x       y       z     vdW  Elec       q    Type
REMARK                         _______ _______ _______ _____ _____    ______ ____
ROOT
ATOM      1  O   UNL     1      33.524 -11.484 -24.581  0.00  0.00    -0.269 OA
ATOM      2  N   UNL     1      32.924 -13.060 -22.937  0.00  0.00    -0.233 N 
ATOM      3  C   UNL     1      32.658 -10.602 -22.576  0.00  0.00    +0.046 C 
ATOM      4  C   UNL     1      32.073 -10.847 -21.386  0.00  0.00    -0.016 C 
ATOM      5  C   UNL     1      33.094 -11.754 -23.459  0.00  0.00    +0.256 C 
ATOM      6  C   UNL     1      32.302 -13.234 -21.706  0.00  0.00    +0.072 C 
ATOM      7  C   UNL     1      31.885 -12.212 -20.955  0.00  0.00    +0.012 C 
ATOM      8  C   UNL     1      31.583  -9.813 -20.407  0.00  0.00    +0.031 C 
ENDROOT
BRANCH   3  12
ATOM      9  N   UNL     1      33.513  -5.346 -24.443  0.00  0.00    -0.342 NA
ATOM     10  N   UNL     1      31.154  -4.878 -24.304  0.00  0.00    -0.170 NA
ATOM     11  N   UNL     1      32.662  -3.242 -25.039  0.00  0.00    -0.293 N 
ATOM     12  C   UNL     1      32.874  -9.227 -23.064  0.00  0.00    -0.017 C 
ATOM     13  C   UNL     1      31.796  -8.361 -23.219  0.00  0.00    +0.056 C 
ATOM     14  C   UNL     1      34.157  -8.788 -23.372  0.00  0.00    -0.022 C 
ATOM     15  C   UNL     1      32.009  -7.052 -23.683  0.00  0.00    +0.029 C 
ATOM     16  C   UNL     1      33.300  -6.596 -23.998  0.00  0.00    +0.124 C 
ATOM     17  C   UNL     1      34.360  -7.484 -23.833  0.00  0.00    +0.085 C 
ATOM     18  C   UNL     1      30.975  -6.136 -23.861  0.00  0.00    +0.110 C 
ATOM     19  C   UNL     1      32.429  -4.555 -24.572  0.00  0.00    +0.141 C 
ATOM     20  H   UNL     1      33.578  -2.951 -25.251  0.00  0.00    +0.155 HD
ATOM     21  H   UNL     1      31.908  -2.619 -25.152  0.00  0.00    +0.155 HD
ENDBRANCH   3  12
BRANCH   2  22
ATOM     22  C   UNL     1      33.374 -14.209 -23.700  0.00  0.00    +0.058 C 
ATOM     23  C   UNL     1      34.109 -15.216 -23.077  0.00  0.00    +0.019 C 
ATOM     24  C   UNL     1      33.073 -14.304 -25.059  0.00  0.00    +0.015 C 
ATOM     25  C   UNL     1      34.542 -16.319 -23.811  0.00  0.00    +0.073 C 
ATOM     26  C   UNL     1      33.506 -15.408 -25.793  0.00  0.00    +0.001 C 
ATOM     27  C   UNL     1      34.242 -16.415 -25.169  0.00  0.00    +0.004 C 
BRANCH  25  31
ATOM     28  F   UNL     1      36.464 -16.947 -22.530  0.00  0.00    -0.166 F 
ATOM     29  F   UNL     1      34.637 -18.059 -22.171  0.00  0.00    -0.166 F 
ATOM     30  F   UNL     1      35.744 -18.361 -24.018  0.00  0.00    -0.166 F 
ATOM     31  C   UNL     1      35.330 -17.397 -23.145  0.00  0.00    +0.419 C 
ENDBRANCH  25  31
ENDBRANCH   2  22
TORSDOF 3
ENDMDL
MODEL 6
REMARK VINA RESULT:     -10.3      5.017      7.637
REMARK  Name = 24812719
REMARK  3 active torsions:
REMARK  status: ('A' for Active; 'I' for Inactive)
REMARK    1  A    between atoms: N_2  and  C_22
REMARK    2  A    between atoms: C_3  and  C_12
REMARK    3  A    between atoms: C_25  and  C_31
REMARK                            x       y       z     vdW  Elec       q    Type
REMARK                         _______ _______ _______ _____ _____    ______ ____
ROOT
ATOM      1  O   UNL     1      36.451 -20.775 -19.342  0.00  0.00    -0.269 OA
ATOM      2  N   UNL     1      34.364 -20.638 -20.425  0.00  0.00    -0.233 N 
ATOM      3  C   UNL     1      34.714 -22.054 -18.396  0.00  0.00    +0.046 C 
ATOM      4  C   UNL     1      33.401 -22.359 -18.390  0.00  0.00    -0.016 C 
ATOM      5  C   UNL     1      35.269 -21.107 -19.441  0.00  0.00    +0.256 C 
ATOM      6  C   UNL     1      33.020 -20.987 -20.347  0.00  0.00    +0.072 C 
ATOM      7  C   UNL     1      32.535 -21.790 -19.397  0.00  0.00    +0.012 C 
ATOM      8  C   UNL     1      32.705 -23.274 -17.418  0.00  0.00    +0.031 C 
ENDROOT
BRANCH   3  12
ATOM      9  N   UNL     1      38.284 -24.156 -14.564  0.00  0.00    -0.342 NA
ATOM     10  N   UNL     1      36.595 -25.684 -13.780  0.00  0.00    -0.170 NA
ATOM     11  N   UNL     1      38.729 -25.655 -12.815  0.00  0.00    -0.293 N 
ATOM     12  C   UNL     1      35.642 -22.608 -17.392  0.00  0.00    -0.017 C 
ATOM     13  C   UNL     1      35.226 -23.625 -16.539  0.00  0.00    +0.056 C 
ATOM     14  C   UNL     1      36.939 -22.116 -17.292  0.00  0.00    -0.022 C 
ATOM     15  C   UNL     1      36.115 -24.149 -15.585  0.00  0.00    +0.029 C 
ATOM     16  C   UNL     1      37.427 -23.661 -15.474  0.00  0.00    +0.124 C 
ATOM     17  C   UNL     1      37.817 -22.643 -16.340  0.00  0.00    +0.085 C 
ATOM     18  C   UNL     1      35.761 -25.167 -14.702  0.00  0.00    +0.110 C 
ATOM     19  C   UNL     1      37.822 -25.140 -13.767  0.00  0.00    +0.141 C 
ATOM     20  H   UNL     1      39.643 -25.294 -12.761  0.00  0.00    +0.155 HD
ATOM     21  H   UNL     1      38.447 -26.376 -12.206  0.00  0.00    +0.155 HD
ENDBRANCH   3  12
BRANCH   2  22
ATOM     22  C   UNL     1      34.837 -19.776 -21.491  0.00  0.00    +0.058 C 
ATOM     23  C   UNL     1      34.253 -19.846 -22.755  0.00  0.00    +0.019 C 
ATOM     24  C   UNL     1      35.878 -18.880 -21.253  0.00  0.00    +0.015 C 
ATOM     25  C   UNL     1      34.709 -19.019 -23.781  0.00  0.00    +0.073 C 
ATOM     26  C   UNL     1      36.334 -18.051 -22.278  0.00  0.00    +0.001 C 
ATOM     27  C   UNL     1      35.750 -18.121 -23.543  0.00  0.00    +0.004 C 
BRANCH  25  31
ATOM     28  F   UNL     1      34.418 -20.221 -25.829  0.00  0.00    -0.166 F 
ATOM     29  F   UNL     1      32.719 -19.083 -25.108  0.00  0.00    -0.166 F 
ATOM     30  F   UNL     1      34.444 -18.049 -25.936  0.00  0.00    -0.166 F 
ATOM     31  C   UNL     1      34.085 -19.094 -25.134  0.00  0.00    +0.419 C 
ENDBRANCH  25  31
ENDBRANCH   2  22
TORSDOF 3
ENDMDL
MODEL 7
REMARK VINA RESULT:     -10.2      3.903      8.515
REMARK  Name = 24812719
REMARK  3 active torsions:
REMARK  status: ('A' for Active; 'I' for Inactive)
REMARK    1  A    between atoms: N_2  and  C_22
REMARK    2  A    between atoms: C_3  and  C_12
REMARK    3  A    between atoms: C_25  and  C_31
REMARK                            x       y       z     vdW  Elec       q    Type
REMARK                         _______ _______ _______ _____ _____    ______ ____
ROOT
ATOM      1  O   UNL     1      34.003 -14.929 -22.792  0.00  0.00    -0.269 OA
ATOM      2  N   UNL     1      34.011 -16.011 -24.883  0.00  0.00    -0.233 N 
ATOM      3  C   UNL     1      33.322 -13.623 -24.630  0.00  0.00    +0.046 C 
ATOM      4  C   UNL     1      33.190 -13.526 -25.969  0.00  0.00    -0.016 C 
ATOM      5  C   UNL     1      33.796 -14.920 -24.007  0.00  0.00    +0.256 C 
ATOM      6  C   UNL     1      33.866 -15.832 -26.255  0.00  0.00    +0.072 C 
ATOM      7  C   UNL     1      33.487 -14.672 -26.796  0.00  0.00    +0.012 C 
ATOM      8  C   UNL     1      32.739 -12.309 -26.732  0.00  0.00    +0.031 C 
ENDROOT
BRANCH   3  12
ATOM      9  N   UNL     1      32.194  -9.280 -21.208  0.00  0.00    -0.342 NA
ATOM     10  N   UNL     1      33.608  -7.837 -22.520  0.00  0.00    -0.170 NA
ATOM     11  N   UNL     1      32.484  -7.024 -20.632  0.00  0.00    -0.293 N 
ATOM     12  C   UNL     1      33.032 -12.484 -23.739  0.00  0.00    -0.017 C 
ATOM     13  C   UNL     1      33.604 -11.239 -23.985  0.00  0.00    +0.056 C 
ATOM     14  C   UNL     1      32.184 -12.647 -22.649  0.00  0.00    -0.022 C 
ATOM     15  C   UNL     1      33.323 -10.157 -23.133  0.00  0.00    +0.029 C 
ATOM     16  C   UNL     1      32.469 -10.309 -22.029  0.00  0.00    +0.124 C 
ATOM     17  C   UNL     1      31.910 -11.565 -21.807  0.00  0.00    +0.085 C 
ATOM     18  C   UNL     1      33.862  -8.887 -23.322  0.00  0.00    +0.110 C 
ATOM     19  C   UNL     1      32.778  -8.101 -21.498  0.00  0.00    +0.141 C 
ATOM     20  H   UNL     1      31.881  -7.160 -19.866  0.00  0.00    +0.155 HD
ATOM     21  H   UNL     1      32.881  -6.138 -20.795  0.00  0.00    +0.155 HD
ENDBRANCH   3  12
BRANCH   2  22
ATOM     22  C   UNL     1      34.407 -17.301 -24.351  0.00  0.00    +0.058 C 
ATOM     23  C   UNL     1      35.115 -17.373 -23.152  0.00  0.00    +0.019 C 
ATOM     24  C   UNL     1      34.082 -18.469 -25.039  0.00  0.00    +0.015 C 
ATOM     25  C   UNL     1      35.497 -18.612 -22.641  0.00  0.00    +0.073 C 
ATOM     26  C   UNL     1      34.463 -19.710 -24.528  0.00  0.00    +0.001 C 
ATOM     27  C   UNL     1      35.172 -19.781 -23.329  0.00  0.00    +0.004 C 
BRANCH  25  31
ATOM     28  F   UNL     1      35.961 -19.796 -20.613  0.00  0.00    -0.166 F 
ATOM     29  F   UNL     1      37.611 -18.726 -21.527  0.00  0.00    -0.166 F 
ATOM     30  F   UNL     1      36.017 -17.623 -20.542  0.00  0.00    -0.166 F 
ATOM     31  C   UNL     1      36.256 -18.690 -21.358  0.00  0.00    +0.419 C 
ENDBRANCH  25  31
ENDBRANCH   2  22
TORSDOF 3
ENDMDL
MODEL 8
REMARK VINA RESULT:      -9.9      2.295      3.557
REMARK  Name = 24812719
REMARK  3 active torsions:
REMARK  status: ('A' for Active; 'I' for Inactive)
REMARK    1  A    between atoms: N_2  and  C_22
REMARK    2  A    between atoms: C_3  and  C_12
REMARK    3  A    between atoms: C_25  and  C_31
REMARK                            x       y       z     vdW  Elec       q    Type
REMARK                         _______ _______ _______ _____ _____    ______ ____
ROOT
ATOM      1  O   UNL     1      34.278 -12.403 -22.416  0.00  0.00    -0.269 OA
ATOM      2  N   UNL     1      33.596 -11.582 -24.515  0.00  0.00    -0.233 N 
ATOM      3  C   UNL     1      33.968 -14.018 -24.103  0.00  0.00    +0.046 C 
ATOM      4  C   UNL     1      33.539 -14.288 -25.353  0.00  0.00    -0.016 C 
ATOM      5  C   UNL     1      33.979 -12.589 -23.597  0.00  0.00    +0.256 C 
ATOM      6  C   UNL     1      33.154 -11.938 -25.785  0.00  0.00    +0.072 C 
ATOM      7  C   UNL     1      33.109 -13.205 -26.206  0.00  0.00    +0.012 C 
ATOM      8  C   UNL     1      33.463 -15.649 -25.992  0.00  0.00    +0.031 C 
ENDROOT
BRANCH   3  12
ATOM      9  N   UNL     1      35.687 -18.088 -20.592  0.00  0.00    -0.342 NA
ATOM     10  N   UNL     1      36.031 -19.587 -22.446  0.00  0.00    -0.170 NA
ATOM     11  N   UNL     1      36.470 -20.273 -20.250  0.00  0.00    -0.293 N 
ATOM     12  C   UNL     1      34.417 -15.086 -23.191  0.00  0.00    -0.017 C 
ATOM     13  C   UNL     1      34.796 -16.326 -23.697  0.00  0.00    +0.056 C 
ATOM     14  C   UNL     1      34.466 -14.861 -21.820  0.00  0.00    -0.022 C 
ATOM     15  C   UNL     1      35.225 -17.340 -22.823  0.00  0.00    +0.029 C 
ATOM     16  C   UNL     1      35.278 -17.124 -21.437  0.00  0.00    +0.124 C 
ATOM     17  C   UNL     1      34.893 -15.875 -20.958  0.00  0.00    +0.085 C 
ATOM     18  C   UNL     1      35.618 -18.601 -23.264  0.00  0.00    +0.110 C 
ATOM     19  C   UNL     1      36.041 -19.266 -21.143  0.00  0.00    +0.141 C 
ATOM     20  H   UNL     1      36.497 -20.093 -19.283  0.00  0.00    +0.155 HD
ATOM     21  H   UNL     1      36.741 -21.154 -20.595  0.00  0.00    +0.155 HD
ENDBRANCH   3  12
BRANCH   2  22
ATOM     22  C   UNL     1      33.640 -10.187 -24.120  0.00  0.00    +0.058 C 
ATOM     23  C   UNL     1      32.459  -9.507 -23.828  0.00  0.00    +0.019 C 
ATOM     24  C   UNL     1      34.865  -9.526 -24.034  0.00  0.00    +0.015 C 
ATOM     25  C   UNL     1      32.502  -8.166 -23.449  0.00  0.00    +0.073 C 
ATOM     26  C   UNL     1      34.909  -8.184 -23.655  0.00  0.00    +0.001 C 
ATOM     27  C   UNL     1      33.727  -7.503 -23.363  0.00  0.00    +0.004 C 
BRANCH  25  31
ATOM     28  F   UNL     1      31.141  -7.042 -21.833  0.00  0.00    -0.166 F 
ATOM     29  F   UNL     1      31.071  -6.295 -23.868  0.00  0.00    -0.166 F 
ATOM     30  F   UNL     1      30.125  -8.190 -23.376  0.00  0.00    -0.166 F 
ATOM     31  C   UNL     1      31.238  -7.437 -23.137  0.00  0.00    +0.419 C 
ENDBRANCH  25  31
ENDBRANCH   2  22
TORSDOF 3
ENDMDL
MODEL 9
REMARK VINA RESULT:      -9.8      4.641     10.228
REMARK  Name = 24812719
REMARK  3 active torsions:
REMARK  status: ('A' for Active; 'I' for Inactive)
REMARK    1  A    between atoms: N_2  and  C_22
REMARK    2  A    between atoms: C_3  and  C_12
REMARK    3  A    between atoms: C_25  and  C_31
REMARK                            x       y       z     vdW  Elec       q    Type
REMARK                         _______ _______ _______ _____ _____    ______ ____
ROOT
ATOM      1  O   UNL     1      33.366 -11.654 -23.885  0.00  0.00    -0.269 OA
ATOM      2  N   UNL     1      33.027 -12.982 -21.970  0.00  0.00    -0.233 N 
ATOM      3  C   UNL     1      32.330 -10.585 -22.059  0.00  0.00    +0.046 C 
ATOM      4  C   UNL     1      31.780 -10.706 -20.834  0.00  0.00    -0.016 C 
ATOM      5  C   UNL     1      32.973 -11.785 -22.724  0.00  0.00    +0.256 C 
ATOM      6  C   UNL     1      32.427 -13.034 -20.717  0.00  0.00    +0.072 C 
ATOM      7  C   UNL     1      31.827 -11.981 -20.158  0.00  0.00    +0.012 C 
ATOM      8  C   UNL     1      31.103  -9.612 -20.052  0.00  0.00    +0.031 C 
ENDROOT
BRANCH   3  12
ATOM      9  N   UNL     1      32.224  -5.695 -24.874  0.00  0.00    -0.342 NA
ATOM     10  N   UNL     1      34.630  -5.577 -24.825  0.00  0.00    -0.170 NA
ATOM     11  N   UNL     1      33.366  -3.894 -25.855  0.00  0.00    -0.293 N 
ATOM     12  C   UNL     1      32.309  -9.306 -22.794  0.00  0.00    -0.017 C 
ATOM     13  C   UNL     1      33.500  -8.659 -23.108  0.00  0.00    +0.056 C 
ATOM     14  C   UNL     1      31.099  -8.739 -23.178  0.00  0.00    -0.022 C 
ATOM     15  C   UNL     1      33.475  -7.442 -23.810  0.00  0.00    +0.029 C 
ATOM     16  C   UNL     1      32.259  -6.859 -24.203  0.00  0.00    +0.124 C 
ATOM     17  C   UNL     1      31.082  -7.528 -23.876  0.00  0.00    +0.085 C 
ATOM     18  C   UNL     1      34.630  -6.744 -24.154  0.00  0.00    +0.110 C 
ATOM     19  C   UNL     1      33.411  -5.117 -25.148  0.00  0.00    +0.141 C 
ATOM     20  H   UNL     1      32.499  -3.511 -26.118  0.00  0.00    +0.155 HD
ATOM     21  H   UNL     1      34.202  -3.427 -26.084  0.00  0.00    +0.155 HD
ENDBRANCH   3  12
BRANCH   2  22
ATOM     22  C   UNL     1      33.681 -14.155 -22.519  0.00  0.00    +0.058 C 
ATOM     23  C   UNL     1      33.417 -14.552 -23.829  0.00  0.00    +0.019 C 
ATOM     24  C   UNL     1      34.573 -14.886 -21.735  0.00  0.00    +0.015 C 
ATOM     25  C   UNL     1      34.046 -15.680 -24.356  0.00  0.00    +0.073 C 
ATOM     26  C   UNL     1      35.202 -16.014 -22.262  0.00  0.00    +0.001 C 
ATOM     27  C   UNL     1      34.938 -16.412 -23.572  0.00  0.00    +0.004 C 
BRANCH  25  31
ATOM     28  F   UNL     1      32.577 -16.770 -25.899  0.00  0.00    -0.166 F 
ATOM     29  F   UNL     1      33.697 -15.068 -26.642  0.00  0.00    -0.166 F 
ATOM     30  F   UNL     1      34.716 -16.949 -26.252  0.00  0.00    -0.166 F 
ATOM     31  C   UNL     1      33.762 -16.106 -25.757  0.00  0.00    +0.419 C 
ENDBRANCH  25  31
ENDBRANCH   2  22
TORSDOF 3
ENDMDL
