MODEL 1
REMARK VINA RESULT:      -9.2      0.000      0.000
REMARK  Name = 97226
REMARK  3 active torsions:
REMARK  status: ('A' for Active; 'I' for Inactive)
REMARK    1  A    between atoms: C_6  and  O_24
REMARK    2  A    between atoms: C_6  and  C_28
REMARK    3  A    between atoms: C_22  and  O_26
REMARK                            x       y       z     vdW  Elec       q    Type
REMARK                         _______ _______ _______ _____ _____    ______ ____
ROOT
ATOM      1  O   UNL     1      32.170 -24.984 -12.763  0.00  0.00    -0.442 OA
ATOM      2  O   UNL     1      35.855 -24.514 -14.790  0.00  0.00    -0.270 OA
ATOM      3  O   UNL     1      30.091 -24.161 -12.559  0.00  0.00    -0.247 OA
ATOM      4  N   UNL     1      34.828 -23.341 -16.498  0.00  0.00    -0.249 N 
ATOM      5  N   UNL     1      33.211 -21.561 -19.174  0.00  0.00    -0.405 NA
ATOM      6  C   UNL     1      31.013 -24.215 -14.791  0.00  0.00    +0.196 C 
ATOM      7  C   UNL     1      32.369 -23.898 -15.360  0.00  0.00    +0.017 C 
ATOM      8  C   UNL     1      33.671 -22.885 -17.107  0.00  0.00    +0.084 C 
ATOM      9  C   UNL     1      33.476 -24.366 -14.756  0.00  0.00    +0.074 C 
ATOM     10  C   UNL     1      36.026 -22.938 -17.263  0.00  0.00    +0.128 C 
ATOM     11  C   UNL     1      32.463 -23.134 -16.595  0.00  0.00    +0.016 C 
ATOM     12  C   UNL     1      35.431 -22.183 -18.407  0.00  0.00    +0.029 C 
ATOM     13  C   UNL     1      34.046 -22.156 -18.311  0.00  0.00    +0.142 C 
ATOM     14  C   UNL     1      34.839 -24.089 -15.334  0.00  0.00    +0.252 C 
ATOM     15  C   UNL     1      33.390 -25.181 -13.511  0.00  0.00    +0.239 C 
ATOM     16  C   UNL     1      31.049 -24.431 -13.283  0.00  0.00    +0.346 C 
ATOM     17  C   UNL     1      36.026 -21.554 -19.473  0.00  0.00    +0.002 C 
ATOM     18  C   UNL     1      35.201 -20.914 -20.411  0.00  0.00    +0.029 C 
ATOM     19  C   UNL     1      33.790 -20.942 -20.222  0.00  0.00    +0.114 C 
ATOM     20  C   UNL     1      35.748 -20.253 -21.523  0.00  0.00    +0.038 C 
ATOM     21  C   UNL     1      32.992 -20.301 -21.166  0.00  0.00    +0.088 C 
ATOM     22  C   UNL     1      34.921 -19.621 -22.447  0.00  0.00    +0.130 C 
ATOM     23  C   UNL     1      33.544 -19.645 -22.269  0.00  0.00    +0.018 C 
ENDROOT
BRANCH   6  24
ATOM     24  O   UNL     1      30.141 -23.097 -14.972  0.00  0.00    -0.373 OA
ATOM     25  H   UNL     1      29.225 -23.409 -15.040  0.00  0.00    +0.211 HD
ENDBRANCH   6  24
BRANCH  22  26
ATOM     26  O   UNL     1      35.459 -18.982 -23.521  0.00  0.00    -0.506 OA
ATOM     27  H   UNL     1      35.329 -19.324 -24.383  0.00  0.00    +0.292 HD
ENDBRANCH  22  26
BRANCH   6  28
ATOM     28  C   UNL     1      30.391 -25.443 -15.461  0.00  0.00    +0.042 C 
ATOM     29  C   UNL     1      29.072 -25.099 -16.122  0.00  0.00    +0.003 C 
ENDBRANCH   6  28
TORSDOF 3
ENDMDL
MODEL 2
REMARK VINA RESULT:      -9.2      3.533      6.415
REMARK  Name = 97226
REMARK  3 active torsions:
REMARK  status: ('A' for Active; 'I' for Inactive)
REMARK    1  A    between atoms: C_6  and  O_24
REMARK    2  A    between atoms: C_6  and  C_28
REMARK    3  A    between atoms: C_22  and  O_26
REMARK                            x       y       z     vdW  Elec       q    Type
REMARK                         _______ _______ _______ _____ _____    ______ ____
ROOT
ATOM      1  O   UNL     1      39.111 -24.493 -13.376  0.00  0.00    -0.442 OA
ATOM      2  O   UNL     1      37.317 -22.844 -16.836  0.00  0.00    -0.270 OA
ATOM      3  O   UNL     1      38.733 -25.105 -11.249  0.00  0.00    -0.247 OA
ATOM      4  N   UNL     1      35.209 -23.424 -16.084  0.00  0.00    -0.249 N 
ATOM      5  N   UNL     1      31.937 -24.375 -14.928  0.00  0.00    -0.405 NA
ATOM      6  C   UNL     1      36.966 -25.560 -12.831  0.00  0.00    +0.196 C 
ATOM      7  C   UNL     1      36.368 -24.780 -13.970  0.00  0.00    +0.017 C 
ATOM      8  C   UNL     1      34.405 -24.081 -15.168  0.00  0.00    +0.084 C 
ATOM      9  C   UNL     1      37.172 -24.163 -14.855  0.00  0.00    +0.074 C 
ATOM     10  C   UNL     1      34.396 -22.767 -17.129  0.00  0.00    +0.128 C 
ATOM     11  C   UNL     1      34.923 -24.751 -14.135  0.00  0.00    +0.016 C 
ATOM     12  C   UNL     1      33.005 -23.120 -16.714  0.00  0.00    +0.029 C 
ATOM     13  C   UNL     1      33.016 -23.893 -15.561  0.00  0.00    +0.142 C 
ATOM     14  C   UNL     1      36.590 -23.409 -16.022  0.00  0.00    +0.252 C 
ATOM     15  C   UNL     1      38.655 -24.217 -14.718  0.00  0.00    +0.239 C 
ATOM     16  C   UNL     1      38.328 -25.024 -12.408  0.00  0.00    +0.346 C 
ATOM     17  C   UNL     1      31.792 -22.805 -17.280  0.00  0.00    +0.002 C 
ATOM     18  C   UNL     1      30.627 -23.284 -16.661  0.00  0.00    +0.029 C 
ATOM     19  C   UNL     1      30.745 -24.070 -15.480  0.00  0.00    +0.114 C 
ATOM     20  C   UNL     1      29.359 -22.997 -17.191  0.00  0.00    +0.038 C 
ATOM     21  C   UNL     1      29.576 -24.533 -14.884  0.00  0.00    +0.088 C 
ATOM     22  C   UNL     1      28.208 -23.476 -16.569  0.00  0.00    +0.130 C 
ATOM     23  C   UNL     1      28.317 -24.243 -15.417  0.00  0.00    +0.018 C 
ENDROOT
BRANCH   6  24
ATOM     24  O   UNL     1      36.147 -25.416 -11.668  0.00  0.00    -0.373 OA
ATOM     25  H   UNL     1      35.795 -24.513 -11.630  0.00  0.00    +0.211 HD
ENDBRANCH   6  24
BRANCH  22  26
ATOM     26  O   UNL     1      26.983 -23.193 -17.088  0.00  0.00    -0.506 OA
ATOM     27  H   UNL     1      26.226 -23.206 -16.536  0.00  0.00    +0.292 HD
ENDBRANCH  22  26
BRANCH   6  28
ATOM     28  C   UNL     1      37.091 -27.047 -13.169  0.00  0.00    +0.042 C 
ATOM     29  C   UNL     1      37.237 -27.262 -14.661  0.00  0.00    +0.003 C 
ENDBRANCH   6  28
TORSDOF 3
ENDMDL
MODEL 3
REMARK VINA RESULT:      -8.1     13.787     19.150
REMARK  Name = 97226
REMARK  3 active torsions:
REMARK  status: ('A' for Active; 'I' for Inactive)
REMARK    1  A    between atoms: C_6  and  O_24
REMARK    2  A    between atoms: C_6  and  C_28
REMARK    3  A    between atoms: C_22  and  O_26
REMARK                            x       y       z     vdW  Elec       q    Type
REMARK                         _______ _______ _______ _____ _____    ______ ____
ROOT
ATOM      1  O   UNL     1      33.260  -1.788 -25.949  0.00  0.00    -0.442 OA
ATOM      2  O   UNL     1      30.668  -3.684 -23.193  0.00  0.00    -0.270 OA
ATOM      3  O   UNL     1      35.238  -1.961 -26.997  0.00  0.00    -0.247 OA
ATOM      4  N   UNL     1      31.687  -5.727 -23.558  0.00  0.00    -0.249 N 
ATOM      5  N   UNL     1      33.247  -8.910 -24.170  0.00  0.00    -0.405 NA
ATOM      6  C   UNL     1      33.984  -4.006 -26.719  0.00  0.00    +0.196 C 
ATOM      7  C   UNL     1      33.183  -4.584 -25.585  0.00  0.00    +0.017 C 
ATOM      8  C   UNL     1      32.584  -6.505 -24.270  0.00  0.00    +0.084 C 
ATOM      9  C   UNL     1      32.308  -3.810 -24.919  0.00  0.00    +0.074 C 
ATOM     10  C   UNL     1      30.993  -6.525 -22.526  0.00  0.00    +0.128 C 
ATOM     11  C   UNL     1      33.323  -5.996 -25.259  0.00  0.00    +0.016 C 
ATOM     12  C   UNL     1      31.594  -7.879 -22.718  0.00  0.00    +0.029 C 
ATOM     13  C   UNL     1      32.528  -7.862 -23.745  0.00  0.00    +0.142 C 
ATOM     14  C   UNL     1      31.471  -4.383 -23.805  0.00  0.00    +0.252 C 
ATOM     15  C   UNL     1      32.129  -2.372 -25.268  0.00  0.00    +0.239 C 
ATOM     16  C   UNL     1      34.229  -2.511 -26.558  0.00  0.00    +0.346 C 
ATOM     17  C   UNL     1      31.365  -9.065 -22.061  0.00  0.00    +0.002 C 
ATOM     18  C   UNL     1      32.089 -10.198 -22.464  0.00  0.00    +0.029 C 
ATOM     19  C   UNL     1      33.026 -10.075 -23.530  0.00  0.00    +0.114 C 
ATOM     20  C   UNL     1      31.899 -11.437 -21.833  0.00  0.00    +0.038 C 
ATOM     21  C   UNL     1      33.732 -11.213 -23.911  0.00  0.00    +0.088 C 
ATOM     22  C   UNL     1      32.623 -12.555 -22.240  0.00  0.00    +0.130 C 
ATOM     23  C   UNL     1      33.538 -12.443 -23.278  0.00  0.00    +0.018 C 
ENDROOT
BRANCH   6  24
ATOM     24  O   UNL     1      35.293  -4.584 -26.728  0.00  0.00    -0.373 OA
ATOM     25  H   UNL     1      35.419  -5.085 -27.549  0.00  0.00    +0.211 HD
ENDBRANCH   6  24
BRANCH  22  26
ATOM     26  O   UNL     1      32.434 -13.752 -21.622  0.00  0.00    -0.506 OA
ATOM     27  H   UNL     1      32.241 -13.782 -20.706  0.00  0.00    +0.292 HD
ENDBRANCH  22  26
BRANCH   6  28
ATOM     28  C   UNL     1      33.318  -4.265 -28.072  0.00  0.00    +0.042 C 
ATOM     29  C   UNL     1      34.349  -4.407 -29.173  0.00  0.00    +0.003 C 
ENDBRANCH   6  28
TORSDOF 3
ENDMDL
MODEL 4
REMARK VINA RESULT:      -7.2      3.253      6.140
REMARK  Name = 97226
REMARK  3 active torsions:
REMARK  status: ('A' for Active; 'I' for Inactive)
REMARK    1  A    between atoms: C_6  and  O_24
REMARK    2  A    between atoms: C_6  and  C_28
REMARK    3  A    between atoms: C_22  and  O_26
REMARK                            x       y       z     vdW  Elec       q    Type
REMARK                         _______ _______ _______ _____ _____    ______ ____
ROOT
ATOM      1  O   UNL     1      28.768 -23.748 -16.640  0.00  0.00    -0.442 OA
ATOM      2  O   UNL     1      32.342 -22.087 -18.181  0.00  0.00    -0.270 OA
ATOM      3  O   UNL     1      27.923 -25.452 -15.448  0.00  0.00    -0.247 OA
ATOM      4  N   UNL     1      33.612 -23.252 -16.639  0.00  0.00    -0.249 N 
ATOM      5  N   UNL     1      35.573 -25.033 -14.205  0.00  0.00    -0.405 NA
ATOM      6  C   UNL     1      30.040 -24.561 -14.701  0.00  0.00    +0.196 C 
ATOM      7  C   UNL     1      31.284 -24.109 -15.415  0.00  0.00    +0.017 C 
ATOM      8  C   UNL     1      33.684 -24.063 -15.519  0.00  0.00    +0.084 C 
ATOM      9  C   UNL     1      31.185 -23.310 -16.493  0.00  0.00    +0.074 C 
ATOM     10  C   UNL     1      34.961 -22.910 -17.135  0.00  0.00    +0.128 C 
ATOM     11  C   UNL     1      32.587 -24.495 -14.894  0.00  0.00    +0.016 C 
ATOM     12  C   UNL     1      35.844 -23.622 -16.164  0.00  0.00    +0.029 C 
ATOM     13  C   UNL     1      35.089 -24.297 -15.215  0.00  0.00    +0.142 C 
ATOM     14  C   UNL     1      32.423 -22.818 -17.197  0.00  0.00    +0.252 C 
ATOM     15  C   UNL     1      29.858 -22.877 -17.013  0.00  0.00    +0.239 C 
ATOM     16  C   UNL     1      28.832 -24.643 -15.627  0.00  0.00    +0.346 C 
ATOM     17  C   UNL     1      37.215 -23.694 -16.083  0.00  0.00    +0.002 C 
ATOM     18  C   UNL     1      37.779 -24.451 -15.044  0.00  0.00    +0.029 C 
ATOM     19  C   UNL     1      36.917 -25.107 -14.121  0.00  0.00    +0.114 C 
ATOM     20  C   UNL     1      39.172 -24.564 -14.908  0.00  0.00    +0.038 C 
ATOM     21  C   UNL     1      37.500 -25.851 -13.099  0.00  0.00    +0.088 C 
ATOM     22  C   UNL     1      39.722 -25.316 -13.874  0.00  0.00    +0.130 C 
ATOM     23  C   UNL     1      38.887 -25.959 -12.971  0.00  0.00    +0.018 C 
ENDROOT
BRANCH   6  24
ATOM     24  O   UNL     1      30.217 -25.898 -14.225  0.00  0.00    -0.373 OA
ATOM     25  H   UNL     1      30.266 -26.506 -14.979  0.00  0.00    +0.211 HD
ENDBRANCH   6  24
BRANCH  22  26
ATOM     26  O   UNL     1      41.072 -25.422 -13.750  0.00  0.00    -0.506 OA
ATOM     27  H   UNL     1      41.480 -26.266 -13.765  0.00  0.00    +0.292 HD
ENDBRANCH  22  26
BRANCH   6  28
ATOM     28  C   UNL     1      29.706 -23.653 -13.516  0.00  0.00    +0.042 C 
ATOM     29  C   UNL     1      30.408 -24.113 -12.255  0.00  0.00    +0.003 C 
ENDBRANCH   6  28
TORSDOF 3
ENDMDL
MODEL 5
REMARK VINA RESULT:      -7.1      1.807      7.840
REMARK  Name = 97226
REMARK  3 active torsions:
REMARK  status: ('A' for Active; 'I' for Inactive)
REMARK    1  A    between atoms: C_6  and  O_24
REMARK    2  A    between atoms: C_6  and  C_28
REMARK    3  A    between atoms: C_22  and  O_26
REMARK                            x       y       z     vdW  Elec       q    Type
REMARK                         _______ _______ _______ _____ _____    ______ ____
ROOT
ATOM      1  O   UNL     1      36.664 -19.999 -21.977  0.00  0.00    -0.442 OA
ATOM      2  O   UNL     1      37.194 -22.231 -18.421  0.00  0.00    -0.270 OA
ATOM      3  O   UNL     1      35.217 -19.530 -23.629  0.00  0.00    -0.247 OA
ATOM      4  N   UNL     1      34.907 -22.428 -18.140  0.00  0.00    -0.249 N 
ATOM      5  N   UNL     1      31.348 -22.687 -17.687  0.00  0.00    -0.405 NA
ATOM      6  C   UNL     1      34.284 -19.758 -21.413  0.00  0.00    +0.196 C 
ATOM      7  C   UNL     1      34.527 -20.716 -20.280  0.00  0.00    +0.017 C 
ATOM      8  C   UNL     1      33.622 -22.086 -18.525  0.00  0.00    +0.084 C 
ATOM      9  C   UNL     1      35.787 -21.020 -19.917  0.00  0.00    +0.074 C 
ATOM     10  C   UNL     1      34.889 -23.347 -16.983  0.00  0.00    +0.128 C 
ATOM     11  C   UNL     1      33.393 -21.260 -19.549  0.00  0.00    +0.016 C 
ATOM     12  C   UNL     1      33.425 -23.507 -16.731  0.00  0.00    +0.029 C 
ATOM     13  C   UNL     1      32.685 -22.762 -17.639  0.00  0.00    +0.142 C 
ATOM     14  C   UNL     1      36.047 -21.949 -18.760  0.00  0.00    +0.252 C 
ATOM     15  C   UNL     1      36.957 -20.440 -20.634  0.00  0.00    +0.239 C 
ATOM     16  C   UNL     1      35.412 -19.767 -22.438  0.00  0.00    +0.346 C 
ATOM     17  C   UNL     1      32.753 -24.240 -15.782  0.00  0.00    +0.002 C 
ATOM     18  C   UNL     1      31.349 -24.199 -15.783  0.00  0.00    +0.029 C 
ATOM     19  C   UNL     1      30.683 -23.404 -16.759  0.00  0.00    +0.114 C 
ATOM     20  C   UNL     1      30.605 -24.926 -14.841  0.00  0.00    +0.038 C 
ATOM     21  C   UNL     1      29.291 -23.379 -16.740  0.00  0.00    +0.088 C 
ATOM     22  C   UNL     1      29.214 -24.878 -14.850  0.00  0.00    +0.130 C 
ATOM     23  C   UNL     1      28.558 -24.105 -15.799  0.00  0.00    +0.018 C 
ENDROOT
BRANCH   6  24
ATOM     24  O   UNL     1      33.129 -20.166 -22.149  0.00  0.00    -0.373 OA
ATOM     25  H   UNL     1      32.363 -19.642 -21.866  0.00  0.00    +0.211 HD
ENDBRANCH   6  24
BRANCH  22  26
ATOM     26  O   UNL     1      28.500 -25.587 -13.934  0.00  0.00    -0.506 OA
ATOM     27  H   UNL     1      27.846 -25.159 -13.417  0.00  0.00    +0.292 HD
ENDBRANCH  22  26
BRANCH   6  28
ATOM     28  C   UNL     1      34.072 -18.328 -20.909  0.00  0.00    +0.042 C 
ATOM     29  C   UNL     1      35.310 -17.481 -21.124  0.00  0.00    +0.003 C 
ENDBRANCH   6  28
TORSDOF 3
ENDMDL
MODEL 6
REMARK VINA RESULT:      -7.0     10.931     14.450
REMARK  Name = 97226
REMARK  3 active torsions:
REMARK  status: ('A' for Active; 'I' for Inactive)
REMARK    1  A    between atoms: C_6  and  O_24
REMARK    2  A    between atoms: C_6  and  C_28
REMARK    3  A    between atoms: C_22  and  O_26
REMARK                            x       y       z     vdW  Elec       q    Type
REMARK                         _______ _______ _______ _____ _____    ______ ____
ROOT
ATOM      1  O   UNL     1      31.974  -6.227 -20.489  0.00  0.00    -0.442 OA
ATOM      2  O   UNL     1      31.975 -10.217 -19.077  0.00  0.00    -0.270 OA
ATOM      3  O   UNL     1      32.678  -4.886 -22.146  0.00  0.00    -0.247 OA
ATOM      4  N   UNL     1      32.433 -11.023 -21.195  0.00  0.00    -0.249 N 
ATOM      5  N   UNL     1      33.097 -12.269 -24.504  0.00  0.00    -0.405 NA
ATOM      6  C   UNL     1      31.936  -7.093 -22.788  0.00  0.00    +0.196 C 
ATOM      7  C   UNL     1      32.132  -8.463 -22.201  0.00  0.00    +0.017 C 
ATOM      8  C   UNL     1      32.581 -10.798 -22.554  0.00  0.00    +0.084 C 
ATOM      9  C   UNL     1      31.969  -8.657 -20.880  0.00  0.00    +0.074 C 
ATOM     10  C   UNL     1      32.633 -12.450 -20.868  0.00  0.00    +0.128 C 
ATOM     11  C   UNL     1      32.439  -9.580 -23.082  0.00  0.00    +0.016 C 
ATOM     12  C   UNL     1      32.917 -13.044 -22.209  0.00  0.00    +0.029 C 
ATOM     13  C   UNL     1      32.884 -12.069 -23.196  0.00  0.00    +0.142 C 
ATOM     14  C   UNL     1      32.124 -10.031 -20.282  0.00  0.00    +0.252 C 
ATOM     15  C   UNL     1      31.617  -7.528 -19.973  0.00  0.00    +0.239 C 
ATOM     16  C   UNL     1      32.245  -5.981 -21.792  0.00  0.00    +0.346 C 
ATOM     17  C   UNL     1      33.189 -14.340 -22.577  0.00  0.00    +0.002 C 
ATOM     18  C   UNL     1      33.419 -14.610 -23.935  0.00  0.00    +0.029 C 
ATOM     19  C   UNL     1      33.363 -13.539 -24.871  0.00  0.00    +0.114 C 
ATOM     20  C   UNL     1      33.701 -15.914 -24.374  0.00  0.00    +0.038 C 
ATOM     21  C   UNL     1      33.596 -13.831 -26.212  0.00  0.00    +0.088 C 
ATOM     22  C   UNL     1      33.929 -16.171 -25.723  0.00  0.00    +0.130 C 
ATOM     23  C   UNL     1      33.876 -15.131 -26.641  0.00  0.00    +0.018 C 
ENDROOT
BRANCH   6  24
ATOM     24  O   UNL     1      32.869  -6.887 -23.853  0.00  0.00    -0.373 OA
ATOM     25  H   UNL     1      32.492  -7.221 -24.682  0.00  0.00    +0.211 HD
ENDBRANCH   6  24
BRANCH  22  26
ATOM     26  O   UNL     1      34.203 -17.436 -26.140  0.00  0.00    -0.506 OA
ATOM     27  H   UNL     1      34.518 -17.585 -27.010  0.00  0.00    +0.292 HD
ENDBRANCH  22  26
BRANCH   6  28
ATOM     28  C   UNL     1      30.517  -6.906 -23.329  0.00  0.00    +0.042 C 
ATOM     29  C   UNL     1      30.442  -7.243 -24.804  0.00  0.00    +0.003 C 
ENDBRANCH   6  28
TORSDOF 3
ENDMDL
MODEL 7
REMARK VINA RESULT:      -6.5     11.608     15.828
REMARK  Name = 97226
REMARK  3 active torsions:
REMARK  status: ('A' for Active; 'I' for Inactive)
REMARK    1  A    between atoms: C_6  and  O_24
REMARK    2  A    between atoms: C_6  and  C_28
REMARK    3  A    between atoms: C_22  and  O_26
REMARK                            x       y       z     vdW  Elec       q    Type
REMARK                         _______ _______ _______ _____ _____    ______ ____
ROOT
ATOM      1  O   UNL     1      33.049 -14.248 -23.668  0.00  0.00    -0.442 OA
ATOM      2  O   UNL     1      32.218 -11.777 -20.334  0.00  0.00    -0.270 OA
ATOM      3  O   UNL     1      32.900 -14.394 -25.904  0.00  0.00    -0.247 OA
ATOM      4  N   UNL     1      32.124  -9.900 -21.681  0.00  0.00    -0.249 N 
ATOM      5  N   UNL     1      32.030  -6.979 -23.780  0.00  0.00    -0.405 NA
ATOM      6  C   UNL     1      33.465 -12.226 -25.001  0.00  0.00    +0.196 C 
ATOM      7  C   UNL     1      32.970 -11.432 -23.824  0.00  0.00    +0.017 C 
ATOM      8  C   UNL     1      32.304  -9.307 -22.920  0.00  0.00    +0.084 C 
ATOM      9  C   UNL     1      32.818 -12.030 -22.628  0.00  0.00    +0.074 C 
ATOM     10  C   UNL     1      31.673  -8.912 -20.680  0.00  0.00    +0.128 C 
ATOM     11  C   UNL     1      32.715 -10.008 -23.980  0.00  0.00    +0.016 C 
ATOM     12  C   UNL     1      31.608  -7.655 -21.485  0.00  0.00    +0.029 C 
ATOM     13  C   UNL     1      31.981  -7.893 -22.800  0.00  0.00    +0.142 C 
ATOM     14  C   UNL     1      32.358 -11.240 -21.431  0.00  0.00    +0.252 C 
ATOM     15  C   UNL     1      33.112 -13.479 -22.447  0.00  0.00    +0.239 C 
ATOM     16  C   UNL     1      33.099 -13.703 -24.906  0.00  0.00    +0.346 C 
ATOM     17  C   UNL     1      31.253  -6.376 -21.125  0.00  0.00    +0.002 C 
ATOM     18  C   UNL     1      31.287  -5.376 -22.110  0.00  0.00    +0.029 C 
ATOM     19  C   UNL     1      31.684  -5.723 -23.433  0.00  0.00    +0.114 C 
ATOM     20  C   UNL     1      30.937  -4.051 -21.806  0.00  0.00    +0.038 C 
ATOM     21  C   UNL     1      31.709  -4.715 -24.392  0.00  0.00    +0.088 C 
ATOM     22  C   UNL     1      30.973  -3.067 -22.790  0.00  0.00    +0.130 C 
ATOM     23  C   UNL     1      31.359  -3.399 -24.081  0.00  0.00    +0.018 C 
ENDROOT
BRANCH   6  24
ATOM     24  O   UNL     1      32.819 -11.774 -26.194  0.00  0.00    -0.373 OA
ATOM     25  H   UNL     1      32.318 -12.506 -26.587  0.00  0.00    +0.211 HD
ENDBRANCH   6  24
BRANCH  22  26
ATOM     26  O   UNL     1      30.631  -1.786 -22.487  0.00  0.00    -0.506 OA
ATOM     27  H   UNL     1      29.794  -1.601 -22.109  0.00  0.00    +0.292 HD
ENDBRANCH  22  26
BRANCH   6  28
ATOM     28  C   UNL     1      34.980 -12.093 -25.176  0.00  0.00    +0.042 C 
ATOM     29  C   UNL     1      35.343 -10.785 -25.848  0.00  0.00    +0.003 C 
ENDBRANCH   6  28
TORSDOF 3
ENDMDL
MODEL 8
REMARK VINA RESULT:      -6.4     14.956     20.696
REMARK  Name = 97226
REMARK  3 active torsions:
REMARK  status: ('A' for Active; 'I' for Inactive)
REMARK    1  A    between atoms: C_6  and  O_24
REMARK    2  A    between atoms: C_6  and  C_28
REMARK    3  A    between atoms: C_22  and  O_26
REMARK                            x       y       z     vdW  Elec       q    Type
REMARK                         _______ _______ _______ _____ _____    ______ ____
ROOT
ATOM      1  O   UNL     1      36.896  -1.786 -28.200  0.00  0.00    -0.442 OA
ATOM      2  O   UNL     1      32.973  -2.054 -26.635  0.00  0.00    -0.270 OA
ATOM      3  O   UNL     1      38.980  -2.603 -28.029  0.00  0.00    -0.247 OA
ATOM      4  N   UNL     1      33.396  -4.164 -25.791  0.00  0.00    -0.249 N 
ATOM      5  N   UNL     1      34.051  -7.468 -24.525  0.00  0.00    -0.405 NA
ATOM      6  C   UNL     1      37.177  -4.190 -27.775  0.00  0.00    +0.196 C 
ATOM      7  C   UNL     1      35.852  -4.148 -27.064  0.00  0.00    +0.017 C 
ATOM      8  C   UNL     1      34.231  -5.265 -25.686  0.00  0.00    +0.084 C 
ATOM      9  C   UNL     1      35.055  -3.073 -27.195  0.00  0.00    +0.074 C 
ATOM     10  C   UNL     1      32.141  -4.377 -25.041  0.00  0.00    +0.128 C 
ATOM     11  C   UNL     1      35.422  -5.301 -26.288  0.00  0.00    +0.016 C 
ATOM     12  C   UNL     1      32.337  -5.746 -24.478  0.00  0.00    +0.029 C 
ATOM     13  C   UNL     1      33.567  -6.264 -24.861  0.00  0.00    +0.142 C 
ATOM     14  C   UNL     1      33.708  -3.031 -26.520  0.00  0.00    +0.252 C 
ATOM     15  C   UNL     1      35.468  -1.901 -28.018  0.00  0.00    +0.239 C 
ATOM     16  C   UNL     1      37.766  -2.801 -27.993  0.00  0.00    +0.346 C 
ATOM     17  C   UNL     1      31.520  -6.516 -23.684  0.00  0.00    +0.002 C 
ATOM     18  C   UNL     1      31.974  -7.788 -23.301  0.00  0.00    +0.029 C 
ATOM     19  C   UNL     1      33.253  -8.227 -23.747  0.00  0.00    +0.114 C 
ATOM     20  C   UNL     1      31.187  -8.621 -22.492  0.00  0.00    +0.038 C 
ATOM     21  C   UNL     1      33.682  -9.492 -23.354  0.00  0.00    +0.088 C 
ATOM     22  C   UNL     1      31.646  -9.881 -22.117  0.00  0.00    +0.130 C 
ATOM     23  C   UNL     1      32.892 -10.316 -22.548  0.00  0.00    +0.018 C 
ENDROOT
BRANCH   6  24
ATOM     24  O   UNL     1      38.140  -4.863 -26.960  0.00  0.00    -0.373 OA
ATOM     25  H   UNL     1      38.084  -4.528 -26.051  0.00  0.00    +0.211 HD
ENDBRANCH   6  24
BRANCH  22  26
ATOM     26  O   UNL     1      30.877 -10.683 -21.332  0.00  0.00    -0.506 OA
ATOM     27  H   UNL     1      29.950 -10.551 -21.292  0.00  0.00    +0.292 HD
ENDBRANCH  22  26
BRANCH   6  28
ATOM     28  C   UNL     1      37.075  -4.911 -29.121  0.00  0.00    +0.042 C 
ATOM     29  C   UNL     1      37.913  -6.173 -29.132  0.00  0.00    +0.003 C 
ENDBRANCH   6  28
TORSDOF 3
ENDMDL
