MODEL 1
REMARK VINA RESULT:     -11.7      0.000      0.000
REMARK  Name = 9799284
REMARK  5 active torsions:
REMARK  status: ('A' for Active; 'I' for Inactive)
REMARK    1  A    between atoms: N_1  and  C_19
REMARK    2  A    between atoms: C_2  and  C_8
REMARK    3  A    between atoms: C_8  and  N_10
REMARK    4  A    between atoms: C_19  and  C_21
REMARK    5  A    between atoms: C_21  and  C_23
REMARK                            x       y       z     vdW  Elec       q    Type
REMARK                         _______ _______ _______ _____ _____    ______ ____
ROOT
ATOM      1  N   UNL     1      34.090 -13.975 -23.159  0.00  0.00    +0.392 N 
ATOM      2  C   UNL     1      34.919 -16.753 -22.724  0.00  0.00    +0.016 C 
ATOM      3  C   UNL     1      34.824 -16.133 -24.122  0.00  0.00    -0.021 C 
ATOM      4  C   UNL     1      35.152 -15.653 -21.683  0.00  0.00    -0.021 C 
ATOM      5  C   UNL     1      33.790 -15.007 -24.161  0.00  0.00    -0.077 C 
ATOM      6  C   UNL     1      34.107 -14.542 -21.804  0.00  0.00    -0.077 C 
ATOM      7  H   UNL     1      35.020 -13.605 -23.357  0.00  0.00    -0.079 HD
ENDROOT
BRANCH   2   8
ATOM      8  C   UNL     1      36.022 -17.807 -22.664  0.00  0.00    +0.094 C 
BRANCH   8  10
ATOM      9  O   UNL     1      37.730 -19.457 -20.800  0.00  0.00    -0.270 OA
ATOM     10  N   UNL     1      35.658 -18.881 -21.789  0.00  0.00    -0.272 N 
ATOM     11  C   UNL     1      34.277 -19.357 -21.677  0.00  0.00    +0.121 C 
ATOM     12  C   UNL     1      36.530 -19.591 -20.955  0.00  0.00    +0.249 C 
ATOM     13  C   UNL     1      34.393 -20.450 -20.671  0.00  0.00    +0.002 C 
ATOM     14  C   UNL     1      35.716 -20.586 -20.250  0.00  0.00    +0.051 C 
ATOM     15  C   UNL     1      33.409 -21.274 -20.158  0.00  0.00    -0.002 C 
ATOM     16  C   UNL     1      36.109 -21.527 -19.318  0.00  0.00    +0.004 C 
ATOM     17  C   UNL     1      33.780 -22.236 -19.213  0.00  0.00    -0.000 C 
ATOM     18  C   UNL     1      35.119 -22.361 -18.797  0.00  0.00    +0.000 C 
ENDBRANCH   8  10
ENDBRANCH   2   8
BRANCH   1  19
ATOM     19  C   UNL     1      33.123 -12.881 -23.245  0.00  0.00    -0.006 C 
BRANCH  19  21
ATOM     20  O   UNL     1      34.207 -12.025 -25.223  0.00  0.00    -0.294 OA
ATOM     21  C   UNL     1      33.687 -11.789 -24.135  0.00  0.00    +0.152 C 
BRANCH  21  23
ATOM     22  F   UNL     1      33.368  -6.498 -22.380  0.00  0.00    -0.204 F 
ATOM     23  C   UNL     1      33.602 -10.374 -23.665  0.00  0.00    +0.033 C 
ATOM     24  C   UNL     1      34.605  -9.501 -24.021  0.00  0.00    +0.005 C 
ATOM     25  C   UNL     1      32.525  -9.999 -22.896  0.00  0.00    +0.005 C 
ATOM     26  C   UNL     1      34.525  -8.179 -23.583  0.00  0.00    +0.030 C 
ATOM     27  C   UNL     1      32.444  -8.678 -22.458  0.00  0.00    +0.030 C 
ATOM     28  C   UNL     1      33.445  -7.768 -22.801  0.00  0.00    +0.140 C 
ENDBRANCH  21  23
ENDBRANCH  19  21
ENDBRANCH   1  19
TORSDOF 5
ENDMDL
MODEL 2
REMARK VINA RESULT:     -11.2      3.567     10.334
REMARK  Name = 9799284
REMARK  5 active torsions:
REMARK  status: ('A' for Active; 'I' for Inactive)
REMARK    1  A    between atoms: N_1  and  C_19
REMARK    2  A    between atoms: C_2  and  C_8
REMARK    3  A    between atoms: C_8  and  N_10
REMARK    4  A    between atoms: C_19  and  C_21
REMARK    5  A    between atoms: C_21  and  C_23
REMARK                            x       y       z     vdW  Elec       q    Type
REMARK                         _______ _______ _______ _____ _____    ______ ____
ROOT
ATOM      1  N   UNL     1      34.776 -16.458 -22.035  0.00  0.00    +0.392 N 
ATOM      2  C   UNL     1      33.627 -13.815 -22.575  0.00  0.00    +0.016 C 
ATOM      3  C   UNL     1      33.786 -14.881 -23.665  0.00  0.00    -0.021 C 
ATOM      4  C   UNL     1      33.532 -14.488 -21.202  0.00  0.00    -0.021 C 
ATOM      5  C   UNL     1      34.946 -15.828 -23.351  0.00  0.00    -0.077 C 
ATOM      6  C   UNL     1      34.700 -15.448 -20.970  0.00  0.00    -0.077 C 
ATOM      7  H   UNL     1      33.895 -16.972 -22.044  0.00  0.00    -0.079 HD
ENDROOT
BRANCH   2   8
ATOM      8  C   UNL     1      32.409 -12.935 -22.841  0.00  0.00    +0.094 C 
BRANCH   8  10
ATOM      9  O   UNL     1      31.215 -10.518 -21.481  0.00  0.00    -0.270 OA
ATOM     10  N   UNL     1      32.780 -11.555 -22.922  0.00  0.00    -0.272 N 
ATOM     11  C   UNL     1      33.897 -11.100 -23.756  0.00  0.00    +0.121 C 
ATOM     12  C   UNL     1      32.160 -10.496 -22.247  0.00  0.00    +0.249 C 
ATOM     13  C   UNL     1      33.898  -9.629 -23.519  0.00  0.00    +0.002 C 
ATOM     14  C   UNL     1      32.878  -9.277 -22.634  0.00  0.00    +0.051 C 
ATOM     15  C   UNL     1      34.733  -8.660 -24.041  0.00  0.00    -0.002 C 
ATOM     16  C   UNL     1      32.650  -7.974 -22.238  0.00  0.00    +0.004 C 
ATOM     17  C   UNL     1      34.525  -7.331 -23.656  0.00  0.00    -0.000 C 
ATOM     18  C   UNL     1      33.492  -6.992 -22.762  0.00  0.00    +0.000 C 
ENDBRANCH   8  10
ENDBRANCH   2   8
BRANCH   1  19
ATOM     19  C   UNL     1      35.864 -17.399 -21.773  0.00  0.00    -0.006 C 
BRANCH  19  21
ATOM     20  O   UNL     1      35.482 -19.049 -23.491  0.00  0.00    -0.294 OA
ATOM     21  C   UNL     1      35.472 -18.769 -22.295  0.00  0.00    +0.152 C 
BRANCH  21  23
ATOM     22  F   UNL     1      33.933 -22.672 -18.611  0.00  0.00    -0.204 F 
ATOM     23  C   UNL     1      35.060 -19.814 -21.310  0.00  0.00    +0.033 C 
ATOM     24  C   UNL     1      36.040 -20.489 -20.618  0.00  0.00    +0.005 C 
ATOM     25  C   UNL     1      33.719 -20.059 -21.132  0.00  0.00    +0.005 C 
ATOM     26  C   UNL     1      35.656 -21.463 -19.697  0.00  0.00    +0.030 C 
ATOM     27  C   UNL     1      33.334 -21.033 -20.212  0.00  0.00    +0.030 C 
ATOM     28  C   UNL     1      34.303 -21.736 -19.495  0.00  0.00    +0.140 C 
ENDBRANCH  21  23
ENDBRANCH  19  21
ENDBRANCH   1  19
TORSDOF 5
ENDMDL
MODEL 3
REMARK VINA RESULT:     -11.2      3.454     10.271
REMARK  Name = 9799284
REMARK  5 active torsions:
REMARK  status: ('A' for Active; 'I' for Inactive)
REMARK    1  A    between atoms: N_1  and  C_19
REMARK    2  A    between atoms: C_2  and  C_8
REMARK    3  A    between atoms: C_8  and  N_10
REMARK    4  A    between atoms: C_19  and  C_21
REMARK    5  A    between atoms: C_21  and  C_23
REMARK                            x       y       z     vdW  Elec       q    Type
REMARK                         _______ _______ _______ _____ _____    ______ ____
ROOT
ATOM      1  N   UNL     1      34.776 -16.485 -21.945  0.00  0.00    +0.392 N 
ATOM      2  C   UNL     1      33.743 -13.879 -22.806  0.00  0.00    +0.016 C 
ATOM      3  C   UNL     1      33.931 -15.051 -23.776  0.00  0.00    -0.021 C 
ATOM      4  C   UNL     1      33.549 -14.411 -21.382  0.00  0.00    -0.021 C 
ATOM      5  C   UNL     1      35.040 -15.992 -23.304  0.00  0.00    -0.077 C 
ATOM      6  C   UNL     1      34.672 -15.374 -20.989  0.00  0.00    -0.077 C 
ATOM      7  H   UNL     1      33.881 -16.975 -21.957  0.00  0.00    -0.079 HD
ENDROOT
BRANCH   2   8
ATOM      8  C   UNL     1      32.570 -12.999 -23.228  0.00  0.00    +0.094 C 
BRANCH   8  10
ATOM      9  O   UNL     1      34.604 -11.454 -24.837  0.00  0.00    -0.270 OA
ATOM     10  N   UNL     1      32.924 -11.613 -23.177  0.00  0.00    -0.272 N 
ATOM     11  C   UNL     1      32.278 -10.681 -22.249  0.00  0.00    +0.121 C 
ATOM     12  C   UNL     1      33.889 -10.982 -23.972  0.00  0.00    +0.249 C 
ATOM     13  C   UNL     1      32.958  -9.392 -22.561  0.00  0.00    +0.002 C 
ATOM     14  C   UNL     1      33.903  -9.572 -23.572  0.00  0.00    +0.051 C 
ATOM     15  C   UNL     1      32.766  -8.144 -21.999  0.00  0.00    -0.002 C 
ATOM     16  C   UNL     1      34.680  -8.539 -24.058  0.00  0.00    +0.004 C 
ATOM     17  C   UNL     1      33.540  -7.080 -22.474  0.00  0.00    -0.000 C 
ATOM     18  C   UNL     1      34.489  -7.276 -23.494  0.00  0.00    +0.000 C 
ENDBRANCH   8  10
ENDBRANCH   2   8
BRANCH   1  19
ATOM     19  C   UNL     1      35.818 -17.422 -21.528  0.00  0.00    -0.006 C 
BRANCH  19  21
ATOM     20  O   UNL     1      35.582 -19.045 -23.299  0.00  0.00    -0.294 OA
ATOM     21  C   UNL     1      35.507 -18.795 -22.099  0.00  0.00    +0.152 C 
BRANCH  21  23
ATOM     22  F   UNL     1      33.971 -22.845 -18.576  0.00  0.00    -0.204 F 
ATOM     23  C   UNL     1      35.096 -19.879 -21.157  0.00  0.00    +0.033 C 
ATOM     24  C   UNL     1      36.075 -20.563 -20.474  0.00  0.00    +0.005 C 
ATOM     25  C   UNL     1      33.756 -20.150 -21.009  0.00  0.00    +0.005 C 
ATOM     26  C   UNL     1      35.691 -21.575 -19.593  0.00  0.00    +0.030 C 
ATOM     27  C   UNL     1      33.371 -21.160 -20.129  0.00  0.00    +0.030 C 
ATOM     28  C   UNL     1      34.339 -21.873 -19.421  0.00  0.00    +0.140 C 
ENDBRANCH  21  23
ENDBRANCH  19  21
ENDBRANCH   1  19
TORSDOF 5
ENDMDL
MODEL 4
REMARK VINA RESULT:     -11.1      5.237     10.951
REMARK  Name = 9799284
REMARK  5 active torsions:
REMARK  status: ('A' for Active; 'I' for Inactive)
REMARK    1  A    between atoms: N_1  and  C_19
REMARK    2  A    between atoms: C_2  and  C_8
REMARK    3  A    between atoms: C_8  and  N_10
REMARK    4  A    between atoms: C_19  and  C_21
REMARK    5  A    between atoms: C_21  and  C_23
REMARK                            x       y       z     vdW  Elec       q    Type
REMARK                         _______ _______ _______ _____ _____    ______ ____
ROOT
ATOM      1  N   UNL     1      34.360 -21.835 -19.331  0.00  0.00    +0.392 N 
ATOM      2  C   UNL     1      35.712 -19.917 -21.089  0.00  0.00    +0.016 C 
ATOM      3  C   UNL     1      34.243 -19.763 -20.679  0.00  0.00    -0.021 C 
ATOM      4  C   UNL     1      36.462 -20.735 -20.032  0.00  0.00    -0.021 C 
ATOM      5  C   UNL     1      33.607 -21.119 -20.370  0.00  0.00    -0.077 C 
ATOM      6  C   UNL     1      35.752 -22.059 -19.745  0.00  0.00    -0.077 C 
ATOM      7  H   UNL     1      34.371 -21.253 -18.493  0.00  0.00    -0.079 HD
ENDROOT
BRANCH   2   8
ATOM      8  C   UNL     1      36.370 -18.556 -21.299  0.00  0.00    +0.094 C 
BRANCH   8  10
ATOM      9  O   UNL     1      35.189 -15.781 -21.149  0.00  0.00    -0.270 OA
ATOM     10  N   UNL     1      35.673 -17.796 -22.292  0.00  0.00    -0.272 N 
ATOM     11  C   UNL     1      35.424 -18.323 -23.637  0.00  0.00    +0.121 C 
ATOM     12  C   UNL     1      35.158 -16.505 -22.127  0.00  0.00    +0.249 C 
ATOM     13  C   UNL     1      34.690 -17.202 -24.291  0.00  0.00    +0.002 C 
ATOM     14  C   UNL     1      34.536 -16.137 -23.403  0.00  0.00    +0.051 C 
ATOM     15  C   UNL     1      34.191 -17.117 -25.577  0.00  0.00    -0.002 C 
ATOM     16  C   UNL     1      33.891 -14.966 -23.748  0.00  0.00    +0.004 C 
ATOM     17  C   UNL     1      33.533 -15.941 -25.953  0.00  0.00    -0.000 C 
ATOM     18  C   UNL     1      33.385 -14.875 -25.046  0.00  0.00    +0.000 C 
ENDBRANCH   8  10
ENDBRANCH   2   8
BRANCH   1  19
ATOM     19  C   UNL     1      33.710 -23.105 -19.010  0.00  0.00    -0.006 C 
BRANCH  19  21
ATOM     20  O   UNL     1      31.685 -22.411 -17.896  0.00  0.00    -0.294 OA
ATOM     21  C   UNL     1      32.805 -22.909 -17.808  0.00  0.00    +0.152 C 
BRANCH  21  23
ATOM     22  F   UNL     1      34.656 -24.533 -12.797  0.00  0.00    -0.204 F 
ATOM     23  C   UNL     1      33.300 -23.343 -16.467  0.00  0.00    +0.033 C 
ATOM     24  C   UNL     1      32.380 -23.592 -15.474  0.00  0.00    +0.005 C 
ATOM     25  C   UNL     1      34.656 -23.477 -16.277  0.00  0.00    +0.005 C 
ATOM     26  C   UNL     1      32.842 -23.998 -14.222  0.00  0.00    +0.030 C 
ATOM     27  C   UNL     1      35.118 -23.883 -15.027  0.00  0.00    +0.030 C 
ATOM     28  C   UNL     1      34.212 -24.143 -13.999  0.00  0.00    +0.140 C 
ENDBRANCH  21  23
ENDBRANCH  19  21
ENDBRANCH   1  19
TORSDOF 5
ENDMDL
MODEL 5
REMARK VINA RESULT:     -11.1      3.724     10.126
REMARK  Name = 9799284
REMARK  5 active torsions:
REMARK  status: ('A' for Active; 'I' for Inactive)
REMARK    1  A    between atoms: N_1  and  C_19
REMARK    2  A    between atoms: C_2  and  C_8
REMARK    3  A    between atoms: C_8  and  N_10
REMARK    4  A    between atoms: C_19  and  C_21
REMARK    5  A    between atoms: C_21  and  C_23
REMARK                            x       y       z     vdW  Elec       q    Type
REMARK                         _______ _______ _______ _____ _____    ______ ____
ROOT
ATOM      1  N   UNL     1      34.219 -15.330 -22.928  0.00  0.00    +0.392 N 
ATOM      2  C   UNL     1      32.868 -12.936 -21.910  0.00  0.00    +0.016 C 
ATOM      3  C   UNL     1      32.688 -13.433 -23.348  0.00  0.00    -0.021 C 
ATOM      4  C   UNL     1      33.262 -14.107 -21.003  0.00  0.00    -0.021 C 
ATOM      5  C   UNL     1      33.917 -14.208 -23.827  0.00  0.00    -0.077 C 
ATOM      6  C   UNL     1      34.472 -14.860 -21.559  0.00  0.00    -0.077 C 
ATOM      7  H   UNL     1      33.404 -15.943 -22.905  0.00  0.00    -0.079 HD
ENDROOT
BRANCH   2   8
ATOM      8  C   UNL     1      31.602 -12.251 -21.402  0.00  0.00    +0.094 C 
BRANCH   8  10
ATOM      9  O   UNL     1      31.954 -10.358 -19.076  0.00  0.00    -0.270 OA
ATOM     10  N   UNL     1      31.760 -10.827 -21.388  0.00  0.00    -0.272 N 
ATOM     11  C   UNL     1      31.773 -10.036 -22.621  0.00  0.00    +0.121 C 
ATOM     12  C   UNL     1      31.918 -10.030 -20.248  0.00  0.00    +0.249 C 
ATOM     13  C   UNL     1      31.959  -8.648 -22.112  0.00  0.00    +0.002 C 
ATOM     14  C   UNL     1      32.044  -8.648 -20.719  0.00  0.00    +0.051 C 
ATOM     15  C   UNL     1      32.049  -7.463 -22.817  0.00  0.00    -0.002 C 
ATOM     16  C   UNL     1      32.217  -7.492 -19.983  0.00  0.00    +0.004 C 
ATOM     17  C   UNL     1      32.225  -6.278 -22.096  0.00  0.00    -0.000 C 
ATOM     18  C   UNL     1      32.309  -6.292 -20.691  0.00  0.00    +0.000 C 
ENDBRANCH   8  10
ENDBRANCH   2   8
BRANCH   1  19
ATOM     19  C   UNL     1      35.363 -16.092 -23.427  0.00  0.00    -0.006 C 
BRANCH  19  21
ATOM     20  O   UNL     1      34.340 -17.957 -24.566  0.00  0.00    -0.294 OA
ATOM     21  C   UNL     1      34.959 -17.546 -23.588  0.00  0.00    +0.152 C 
BRANCH  21  23
ATOM     22  F   UNL     1      36.358 -21.148 -19.557  0.00  0.00    -0.204 F 
ATOM     23  C   UNL     1      35.333 -18.511 -22.510  0.00  0.00    +0.033 C 
ATOM     24  C   UNL     1      36.608 -18.457 -21.993  0.00  0.00    +0.005 C 
ATOM     25  C   UNL     1      34.390 -19.413 -22.077  0.00  0.00    +0.005 C 
ATOM     26  C   UNL     1      36.957 -19.357 -20.985  0.00  0.00    +0.030 C 
ATOM     27  C   UNL     1      34.738 -20.312 -21.070  0.00  0.00    +0.030 C 
ATOM     28  C   UNL     1      36.022 -20.284 -20.524  0.00  0.00    +0.140 C 
ENDBRANCH  21  23
ENDBRANCH  19  21
ENDBRANCH   1  19
TORSDOF 5
ENDMDL
MODEL 6
REMARK VINA RESULT:     -11.0      3.459      6.296
REMARK  Name = 9799284
REMARK  5 active torsions:
REMARK  status: ('A' for Active; 'I' for Inactive)
REMARK    1  A    between atoms: N_1  and  C_19
REMARK    2  A    between atoms: C_2  and  C_8
REMARK    3  A    between atoms: C_8  and  N_10
REMARK    4  A    between atoms: C_19  and  C_21
REMARK    5  A    between atoms: C_21  and  C_23
REMARK                            x       y       z     vdW  Elec       q    Type
REMARK                         _______ _______ _______ _____ _____    ______ ____
ROOT
ATOM      1  N   UNL     1      35.611 -19.716 -21.318  0.00  0.00    +0.392 N 
ATOM      2  C   UNL     1      34.612 -21.727 -19.433  0.00  0.00    +0.016 C 
ATOM      3  C   UNL     1      33.715 -21.073 -20.490  0.00  0.00    -0.021 C 
ATOM      4  C   UNL     1      36.072 -21.688 -19.896  0.00  0.00    -0.021 C 
ATOM      5  C   UNL     1      34.217 -19.675 -20.857  0.00  0.00    -0.077 C 
ATOM      6  C   UNL     1      36.496 -20.269 -20.284  0.00  0.00    -0.077 C 
ATOM      7  H   UNL     1      35.656 -20.331 -22.132  0.00  0.00    -0.079 HD
ENDROOT
BRANCH   2   8
ATOM      8  C   UNL     1      34.167 -23.158 -19.143  0.00  0.00    +0.094 C 
BRANCH   8  10
ATOM      9  O   UNL     1      35.484 -23.848 -16.516  0.00  0.00    -0.270 OA
ATOM     10  N   UNL     1      33.605 -23.265 -17.830  0.00  0.00    -0.272 N 
ATOM     11  C   UNL     1      32.181 -23.026 -17.574  0.00  0.00    +0.121 C 
ATOM     12  C   UNL     1      34.304 -23.593 -16.663  0.00  0.00    +0.249 C 
ATOM     13  C   UNL     1      32.077 -23.246 -16.104  0.00  0.00    +0.002 C 
ATOM     14  C   UNL     1      33.323 -23.579 -15.572  0.00  0.00    +0.051 C 
ATOM     15  C   UNL     1      30.968 -23.162 -15.284  0.00  0.00    -0.002 C 
ATOM     16  C   UNL     1      33.516 -23.837 -14.229  0.00  0.00    +0.004 C 
ATOM     17  C   UNL     1      31.135 -23.419 -13.920  0.00  0.00    -0.000 C 
ATOM     18  C   UNL     1      32.398 -23.753 -13.396  0.00  0.00    +0.000 C 
ENDBRANCH   8  10
ENDBRANCH   2   8
BRANCH   1  19
ATOM     19  C   UNL     1      36.059 -18.382 -21.715  0.00  0.00    -0.006 C 
BRANCH  19  21
ATOM     20  O   UNL     1      35.281 -18.794 -23.962  0.00  0.00    -0.294 OA
ATOM     21  C   UNL     1      35.395 -18.005 -23.027  0.00  0.00    +0.152 C 
BRANCH  21  23
ATOM     22  F   UNL     1      33.393 -12.824 -23.599  0.00  0.00    -0.204 F 
ATOM     23  C   UNL     1      34.860 -16.619 -23.180  0.00  0.00    +0.033 C 
ATOM     24  C   UNL     1      34.271 -16.269 -24.374  0.00  0.00    +0.005 C 
ATOM     25  C   UNL     1      34.976 -15.747 -22.122  0.00  0.00    +0.005 C 
ATOM     26  C   UNL     1      33.771 -14.974 -24.517  0.00  0.00    +0.030 C 
ATOM     27  C   UNL     1      34.476 -14.454 -22.264  0.00  0.00    +0.030 C 
ATOM     28  C   UNL     1      33.873 -14.067 -23.462  0.00  0.00    +0.140 C 
ENDBRANCH  21  23
ENDBRANCH  19  21
ENDBRANCH   1  19
TORSDOF 5
ENDMDL
MODEL 7
REMARK VINA RESULT:     -10.8      3.116      4.932
REMARK  Name = 9799284
REMARK  5 active torsions:
REMARK  status: ('A' for Active; 'I' for Inactive)
REMARK    1  A    between atoms: N_1  and  C_19
REMARK    2  A    between atoms: C_2  and  C_8
REMARK    3  A    between atoms: C_8  and  N_10
REMARK    4  A    between atoms: C_19  and  C_21
REMARK    5  A    between atoms: C_21  and  C_23
REMARK                            x       y       z     vdW  Elec       q    Type
REMARK                         _______ _______ _______ _____ _____    ______ ____
ROOT
ATOM      1  N   UNL     1      32.942 -10.095 -23.276  0.00  0.00    +0.392 N 
ATOM      2  C   UNL     1      33.593 -12.789 -24.233  0.00  0.00    +0.016 C 
ATOM      3  C   UNL     1      32.370 -12.501 -23.354  0.00  0.00    -0.021 C 
ATOM      4  C   UNL     1      33.986 -11.525 -25.004  0.00  0.00    -0.021 C 
ATOM      5  C   UNL     1      32.597 -11.274 -22.470  0.00  0.00    -0.077 C 
ATOM      6  C   UNL     1      34.159 -10.330 -24.065  0.00  0.00    -0.077 C 
ATOM      7  H   UNL     1      32.174  -9.923 -23.925  0.00  0.00    -0.079 HD
ENDROOT
BRANCH   2   8
ATOM      8  C   UNL     1      33.324 -13.952 -25.185  0.00  0.00    +0.094 C 
BRANCH   8  10
ATOM      9  O   UNL     1      33.205 -16.753 -26.304  0.00  0.00    -0.270 OA
ATOM     10  N   UNL     1      33.835 -15.179 -24.652  0.00  0.00    -0.272 N 
ATOM     11  C   UNL     1      34.551 -15.232 -23.374  0.00  0.00    +0.121 C 
ATOM     12  C   UNL     1      33.730 -16.440 -25.251  0.00  0.00    +0.249 C 
ATOM     13  C   UNL     1      34.879 -16.680 -23.248  0.00  0.00    +0.002 C 
ATOM     14  C   UNL     1      34.396 -17.387 -24.350  0.00  0.00    +0.051 C 
ATOM     15  C   UNL     1      35.554 -17.339 -22.239  0.00  0.00    -0.002 C 
ATOM     16  C   UNL     1      34.561 -18.751 -24.493  0.00  0.00    +0.004 C 
ATOM     17  C   UNL     1      35.735 -18.720 -22.358  0.00  0.00    -0.000 C 
ATOM     18  C   UNL     1      35.243 -19.420 -23.475  0.00  0.00    +0.000 C 
ENDBRANCH   8  10
ENDBRANCH   2   8
BRANCH   1  19
ATOM     19  C   UNL     1      33.105  -8.920 -22.421  0.00  0.00    -0.006 C 
BRANCH  19  21
ATOM     20  O   UNL     1      31.064  -7.655 -22.667  0.00  0.00    -0.294 OA
ATOM     21  C   UNL     1      32.249  -7.790 -22.963  0.00  0.00    +0.152 C 
BRANCH  21  23
ATOM     22  F   UNL     1      34.602  -4.105 -26.436  0.00  0.00    -0.204 F 
ATOM     23  C   UNL     1      32.879  -6.805 -23.893  0.00  0.00    +0.033 C 
ATOM     24  C   UNL     1      32.063  -5.937 -24.583  0.00  0.00    +0.005 C 
ATOM     25  C   UNL     1      34.248  -6.802 -24.021  0.00  0.00    +0.005 C 
ATOM     26  C   UNL     1      32.651  -5.016 -25.450  0.00  0.00    +0.030 C 
ATOM     27  C   UNL     1      34.836  -5.882 -24.887  0.00  0.00    +0.030 C 
ATOM     28  C   UNL     1      34.038  -4.989 -25.603  0.00  0.00    +0.140 C 
ENDBRANCH  21  23
ENDBRANCH  19  21
ENDBRANCH   1  19
TORSDOF 5
ENDMDL
MODEL 8
REMARK VINA RESULT:     -10.8      4.618     10.688
REMARK  Name = 9799284
REMARK  5 active torsions:
REMARK  status: ('A' for Active; 'I' for Inactive)
REMARK    1  A    between atoms: N_1  and  C_19
REMARK    2  A    between atoms: C_2  and  C_8
REMARK    3  A    between atoms: C_8  and  N_10
REMARK    4  A    between atoms: C_19  and  C_21
REMARK    5  A    between atoms: C_21  and  C_23
REMARK                            x       y       z     vdW  Elec       q    Type
REMARK                         _______ _______ _______ _____ _____    ______ ____
ROOT
ATOM      1  N   UNL     1      35.507 -21.416 -19.931  0.00  0.00    +0.392 N 
ATOM      2  C   UNL     1      35.565 -19.240 -21.895  0.00  0.00    +0.016 C 
ATOM      3  C   UNL     1      36.835 -19.958 -21.426  0.00  0.00    -0.021 C 
ATOM      4  C   UNL     1      34.354 -20.164 -21.727  0.00  0.00    -0.021 C 
ATOM      5  C   UNL     1      36.667 -20.518 -20.012  0.00  0.00    -0.077 C 
ATOM      6  C   UNL     1      34.269 -20.717 -20.303  0.00  0.00    -0.077 C 
ATOM      7  H   UNL     1      35.651 -22.176 -20.595  0.00  0.00    -0.079 HD
ENDROOT
BRANCH   2   8
ATOM      8  C   UNL     1      35.701 -18.771 -23.341  0.00  0.00    +0.094 C 
BRANCH   8  10
ATOM      9  O   UNL     1      34.282 -17.552 -25.711  0.00  0.00    -0.270 OA
ATOM     10  N   UNL     1      35.149 -17.461 -23.510  0.00  0.00    -0.272 N 
ATOM     11  C   UNL     1      35.208 -16.451 -22.449  0.00  0.00    +0.121 C 
ATOM     12  C   UNL     1      34.503 -16.984 -24.657  0.00  0.00    +0.249 C 
ATOM     13  C   UNL     1      34.520 -15.286 -23.074  0.00  0.00    +0.002 C 
ATOM     14  C   UNL     1      34.108 -15.601 -24.370  0.00  0.00    +0.051 C 
ATOM     15  C   UNL     1      34.270 -14.033 -22.548  0.00  0.00    -0.002 C 
ATOM     16  C   UNL     1      33.443 -14.702 -25.180  0.00  0.00    +0.004 C 
ATOM     17  C   UNL     1      33.599 -13.103 -23.348  0.00  0.00    -0.000 C 
ATOM     18  C   UNL     1      33.189 -13.435 -24.653  0.00  0.00    +0.000 C 
ENDBRANCH   8  10
ENDBRANCH   2   8
BRANCH   1  19
ATOM     19  C   UNL     1      35.391 -21.982 -18.588  0.00  0.00    -0.006 C 
BRANCH  19  21
ATOM     20  O   UNL     1      34.017 -23.714 -19.557  0.00  0.00    -0.294 OA
ATOM     21  C   UNL     1      34.279 -23.016 -18.580  0.00  0.00    +0.152 C 
BRANCH  21  23
ATOM     22  F   UNL     1      31.282 -23.653 -13.913  0.00  0.00    -0.204 F 
ATOM     23  C   UNL     1      33.477 -23.187 -17.332  0.00  0.00    +0.033 C 
ATOM     24  C   UNL     1      34.137 -23.491 -16.162  0.00  0.00    +0.005 C 
ATOM     25  C   UNL     1      32.112 -23.034 -17.400  0.00  0.00    +0.005 C 
ATOM     26  C   UNL     1      33.388 -23.649 -14.996  0.00  0.00    +0.030 C 
ATOM     27  C   UNL     1      31.364 -23.192 -16.234  0.00  0.00    +0.030 C 
ATOM     28  C   UNL     1      32.001 -23.500 -15.032  0.00  0.00    +0.140 C 
ENDBRANCH  21  23
ENDBRANCH  19  21
ENDBRANCH   1  19
TORSDOF 5
ENDMDL
MODEL 9
REMARK VINA RESULT:     -10.8      7.717     13.485
REMARK  Name = 9799284
REMARK  5 active torsions:
REMARK  status: ('A' for Active; 'I' for Inactive)
REMARK    1  A    between atoms: N_1  and  C_19
REMARK    2  A    between atoms: C_2  and  C_8
REMARK    3  A    between atoms: C_8  and  N_10
REMARK    4  A    between atoms: C_19  and  C_21
REMARK    5  A    between atoms: C_21  and  C_23
REMARK                            x       y       z     vdW  Elec       q    Type
REMARK                         _______ _______ _______ _____ _____    ______ ____
ROOT
ATOM      1  N   UNL     1      34.976 -24.008 -13.874  0.00  0.00    +0.392 N 
ATOM      2  C   UNL     1      34.151 -23.127 -16.546  0.00  0.00    +0.016 C 
ATOM      3  C   UNL     1      35.619 -23.364 -16.175  0.00  0.00    -0.021 C 
ATOM      4  C   UNL     1      33.245 -23.969 -15.641  0.00  0.00    -0.021 C 
ATOM      5  C   UNL     1      35.856 -23.150 -14.680  0.00  0.00    -0.077 C 
ATOM      6  C   UNL     1      33.562 -23.735 -14.163  0.00  0.00    -0.077 C 
ATOM      7  H   UNL     1      35.167 -24.978 -14.125  0.00  0.00    -0.079 HD
ENDROOT
BRANCH   2   8
ATOM      8  C   UNL     1      33.898 -23.439 -18.019  0.00  0.00    +0.094 C 
BRANCH   8  10
ATOM      9  O   UNL     1      32.507 -21.668 -20.030  0.00  0.00    -0.270 OA
ATOM     10  N   UNL     1      34.427 -22.408 -18.860  0.00  0.00    -0.272 N 
ATOM     11  C   UNL     1      35.848 -22.048 -18.845  0.00  0.00    +0.121 C 
ATOM     12  C   UNL     1      33.695 -21.634 -19.769  0.00  0.00    +0.249 C 
ATOM     13  C   UNL     1      35.913 -20.955 -19.856  0.00  0.00    +0.002 C 
ATOM     14  C   UNL     1      34.650 -20.714 -20.397  0.00  0.00    +0.051 C 
ATOM     15  C   UNL     1      37.004 -20.218 -20.277  0.00  0.00    -0.002 C 
ATOM     16  C   UNL     1      34.421 -19.751 -21.360  0.00  0.00    +0.004 C 
ATOM     17  C   UNL     1      36.801 -19.236 -21.252  0.00  0.00    -0.000 C 
ATOM     18  C   UNL     1      35.520 -19.004 -21.788  0.00  0.00    +0.000 C 
ENDBRANCH   8  10
ENDBRANCH   2   8
BRANCH   1  19
ATOM     19  C   UNL     1      35.252 -23.830 -12.449  0.00  0.00    -0.006 C 
BRANCH  19  21
ATOM     20  O   UNL     1      35.816 -25.601 -10.910  0.00  0.00    -0.294 OA
ATOM     21  C   UNL     1      36.076 -25.004 -11.952  0.00  0.00    +0.152 C 
BRANCH  21  23
ATOM     22  F   UNL     1      40.451 -26.654 -15.003  0.00  0.00    -0.204 F 
ATOM     23  C   UNL     1      37.246 -25.446 -12.768  0.00  0.00    +0.033 C 
ATOM     24  C   UNL     1      37.087 -26.512 -13.623  0.00  0.00    +0.005 C 
ATOM     25  C   UNL     1      38.436 -24.770 -12.632  0.00  0.00    +0.005 C 
ATOM     26  C   UNL     1      38.180 -26.924 -14.386  0.00  0.00    +0.030 C 
ATOM     27  C   UNL     1      39.529 -25.181 -13.394  0.00  0.00    +0.030 C 
ATOM     28  C   UNL     1      39.401 -26.258 -14.271  0.00  0.00    +0.140 C 
ENDBRANCH  21  23
ENDBRANCH  19  21
ENDBRANCH   1  19
TORSDOF 5
ENDMDL
