MODEL 1
REMARK VINA RESULT:     -11.9      0.000      0.000
REMARK  Name = 44472635
REMARK  7 active torsions:
REMARK  status: ('A' for Active; 'I' for Inactive)
REMARK    1  A    between atoms: C_1  and  C_21
REMARK    2  A    between atoms: C_4  and  N_8
REMARK    3  A    between atoms: C_9  and  C_14
REMARK    4  A    between atoms: C_21  and  C_24
REMARK    5  A    between atoms: C_23  and  C_29
REMARK    6  A    between atoms: C_29  and  C_30
REMARK    7  A    between atoms: C_29  and  O_36
REMARK                            x       y       z     vdW  Elec       q    Type
REMARK                         _______ _______ _______ _____ _____    ______ ____
ROOT
ATOM      1  C   UNL     1      34.573 -15.854 -23.604  0.00  0.00    -0.024 C 
ATOM      2  C   UNL     1      34.752 -15.068 -22.465  0.00  0.00    -0.003 C 
ATOM      3  C   UNL     1      33.813 -15.373 -24.670  0.00  0.00    -0.003 C 
ATOM      4  C   UNL     1      33.412 -13.321 -23.460  0.00  0.00    +0.050 C 
ATOM      5  C   UNL     1      34.171 -13.802 -22.393  0.00  0.00    +0.014 C 
ATOM      6  C   UNL     1      33.233 -14.107 -24.599  0.00  0.00    +0.014 C 
ENDROOT
BRANCH   4   8
ATOM      7  O   UNL     1      34.600 -10.596 -23.940  0.00  0.00    -0.273 OA
ATOM      8  N   UNL     1      32.823 -12.036 -23.388  0.00  0.00    -0.283 N 
ATOM      9  C   UNL     1      33.435 -10.812 -23.622  0.00  0.00    +0.245 C 
ATOM     10  H   UNL     1      31.870 -12.008 -23.143  0.00  0.00    +0.155 HD
BRANCH   9  14
ATOM     11  O   UNL     1      30.636 -11.226 -21.696  0.00  0.00    -0.269 OA
ATOM     12  N   UNL     1      32.220  -9.552 -22.022  0.00  0.00    -0.237 N 
ATOM     13  N   UNL     1      32.944  -8.164 -20.223  0.00  0.00    -0.233 NA
ATOM     14  C   UNL     1      32.467  -9.681 -23.442  0.00  0.00    +0.158 C 
ATOM     15  C   UNL     1      33.087  -8.344 -23.821  0.00  0.00    +0.037 C 
ATOM     16  C   UNL     1      33.779  -7.864 -22.543  0.00  0.00    +0.064 C 
ATOM     17  C   UNL     1      32.959  -8.510 -21.468  0.00  0.00    +0.115 C 
ATOM     18  C   UNL     1      31.342 -10.316 -21.278  0.00  0.00    +0.256 C 
ATOM     19  C   UNL     1      31.323  -9.925 -19.845  0.00  0.00    +0.079 C 
ATOM     20  C   UNL     1      32.102  -8.913 -19.435  0.00  0.00    +0.105 C 
ENDBRANCH   9  14
ENDBRANCH   4   8
BRANCH   1  21
ATOM     21  C   UNL     1      35.191 -17.209 -23.680  0.00  0.00    +0.005 C 
BRANCH  21  24
ATOM     22  N   UNL     1      34.307 -18.818 -22.014  0.00  0.00    +0.388 N 
ATOM     23  C   UNL     1      34.827 -19.594 -20.878  0.00  0.00    -0.030 C 
ATOM     24  C   UNL     1      35.366 -17.842 -22.310  0.00  0.00    -0.057 C 
ATOM     25  C   UNL     1      36.335 -19.694 -21.112  0.00  0.00    -0.021 C 
ATOM     26  C   UNL     1      36.642 -18.663 -22.192  0.00  0.00    -0.023 C 
ATOM     27  H   UNL     1      33.441 -18.343 -21.760  0.00  0.00    -0.084 HD
ATOM     28  H   UNL     1      34.087 -19.407 -22.817  0.00  0.00    -0.084 HD
BRANCH  23  29
ATOM     29  C   UNL     1      34.152 -20.953 -20.766  0.00  0.00    +0.113 C 
BRANCH  29  30
ATOM     30  C   UNL     1      34.521 -21.671 -19.487  0.00  0.00    +0.002 C 
ATOM     31  C   UNL     1      35.839 -21.651 -19.031  0.00  0.00    -0.002 C 
ATOM     32  C   UNL     1      33.543 -22.354 -18.764  0.00  0.00    -0.002 C 
ATOM     33  C   UNL     1      36.178 -22.313 -17.852  0.00  0.00    -0.000 C 
ATOM     34  C   UNL     1      33.882 -23.017 -17.585  0.00  0.00    -0.000 C 
ATOM     35  C   UNL     1      35.200 -22.996 -17.129  0.00  0.00    -0.000 C 
ENDBRANCH  29  30
BRANCH  29  36
ATOM     36  O   UNL     1      32.735 -20.793 -20.818  0.00  0.00    -0.382 OA
ATOM     37  H   UNL     1      32.522 -19.882 -21.072  0.00  0.00    +0.211 HD
ENDBRANCH  29  36
ENDBRANCH  23  29
ENDBRANCH  21  24
ENDBRANCH   1  21
TORSDOF 7
ENDMDL
MODEL 2
REMARK VINA RESULT:     -11.8      4.730     12.721
REMARK  Name = 44472635
REMARK  7 active torsions:
REMARK  status: ('A' for Active; 'I' for Inactive)
REMARK    1  A    between atoms: C_1  and  C_21
REMARK    2  A    between atoms: C_4  and  N_8
REMARK    3  A    between atoms: C_9  and  C_14
REMARK    4  A    between atoms: C_21  and  C_24
REMARK    5  A    between atoms: C_23  and  C_29
REMARK    6  A    between atoms: C_29  and  C_30
REMARK    7  A    between atoms: C_29  and  O_36
REMARK                            x       y       z     vdW  Elec       q    Type
REMARK                         _______ _______ _______ _____ _____    ______ ____
ROOT
ATOM      1  C   UNL     1      33.465 -21.649 -19.461  0.00  0.00    -0.024 C 
ATOM      2  C   UNL     1      32.434 -22.063 -18.618  0.00  0.00    -0.003 C 
ATOM      3  C   UNL     1      34.783 -22.014 -19.182  0.00  0.00    -0.003 C 
ATOM      4  C   UNL     1      34.037 -23.207 -17.218  0.00  0.00    +0.050 C 
ATOM      5  C   UNL     1      32.720 -22.842 -17.496  0.00  0.00    +0.014 C 
ATOM      6  C   UNL     1      35.069 -22.793 -18.061  0.00  0.00    +0.014 C 
ENDROOT
BRANCH   4   8
ATOM      7  O   UNL     1      35.711 -22.598 -14.791  0.00  0.00    -0.273 OA
ATOM      8  N   UNL     1      34.328 -23.997 -16.081  0.00  0.00    -0.283 N 
ATOM      9  C   UNL     1      35.114 -23.652 -14.991  0.00  0.00    +0.245 C 
ATOM     10  H   UNL     1      33.925 -24.896 -16.061  0.00  0.00    +0.155 HD
BRANCH   9  14
ATOM     11  O   UNL     1      36.342 -26.715 -15.898  0.00  0.00    -0.269 OA
ATOM     12  N   UNL     1      36.512 -25.317 -14.045  0.00  0.00    -0.237 N 
ATOM     13  N   UNL     1      38.537 -25.158 -12.795  0.00  0.00    -0.233 NA
ATOM     14  C   UNL     1      35.174 -24.768 -13.992  0.00  0.00    +0.158 C 
ATOM     15  C   UNL     1      35.054 -24.254 -12.565  0.00  0.00    +0.037 C 
ATOM     16  C   UNL     1      36.489 -23.906 -12.158  0.00  0.00    +0.064 C 
ATOM     17  C   UNL     1      37.300 -24.844 -12.999  0.00  0.00    +0.115 C 
ATOM     18  C   UNL     1      36.979 -26.228 -14.971  0.00  0.00    +0.256 C 
ATOM     19  C   UNL     1      38.402 -26.592 -14.744  0.00  0.00    +0.079 C 
ATOM     20  C   UNL     1      39.056 -26.046 -13.708  0.00  0.00    +0.105 C 
ENDBRANCH   9  14
ENDBRANCH   4   8
BRANCH   1  21
ATOM     21  C   UNL     1      33.160 -20.815 -20.659  0.00  0.00    +0.005 C 
BRANCH  21  24
ATOM     22  N   UNL     1      34.248 -19.017 -21.974  0.00  0.00    +0.388 N 
ATOM     23  C   UNL     1      35.618 -18.565 -22.262  0.00  0.00    -0.030 C 
ATOM     24  C   UNL     1      34.418 -20.347 -21.373  0.00  0.00    -0.057 C 
ATOM     25  C   UNL     1      36.476 -19.120 -21.124  0.00  0.00    -0.021 C 
ATOM     26  C   UNL     1      35.601 -20.159 -20.433  0.00  0.00    -0.023 C 
ATOM     27  H   UNL     1      33.702 -19.077 -22.832  0.00  0.00    -0.084 HD
ATOM     28  H   UNL     1      33.750 -18.374 -21.360  0.00  0.00    -0.084 HD
BRANCH  23  29
ATOM     29  C   UNL     1      35.700 -17.050 -22.382  0.00  0.00    +0.113 C 
BRANCH  29  30
ATOM     30  C   UNL     1      34.879 -16.524 -23.537  0.00  0.00    +0.002 C 
ATOM     31  C   UNL     1      34.691 -17.309 -24.675  0.00  0.00    -0.002 C 
ATOM     32  C   UNL     1      34.311 -15.252 -23.466  0.00  0.00    -0.002 C 
ATOM     33  C   UNL     1      33.934 -16.823 -25.740  0.00  0.00    -0.000 C 
ATOM     34  C   UNL     1      33.555 -14.765 -24.532  0.00  0.00    -0.000 C 
ATOM     35  C   UNL     1      33.366 -15.551 -25.669  0.00  0.00    -0.000 C 
ENDBRANCH  29  30
BRANCH  29  36
ATOM     36  O   UNL     1      35.242 -16.446 -21.172  0.00  0.00    -0.382 OA
ATOM     37  H   UNL     1      35.842 -16.680 -20.447  0.00  0.00    +0.211 HD
ENDBRANCH  29  36
ENDBRANCH  23  29
ENDBRANCH  21  24
ENDBRANCH   1  21
TORSDOF 7
ENDMDL
MODEL 3
REMARK VINA RESULT:     -11.7      4.450      7.957
REMARK  Name = 44472635
REMARK  7 active torsions:
REMARK  status: ('A' for Active; 'I' for Inactive)
REMARK    1  A    between atoms: C_1  and  C_21
REMARK    2  A    between atoms: C_4  and  N_8
REMARK    3  A    between atoms: C_9  and  C_14
REMARK    4  A    between atoms: C_21  and  C_24
REMARK    5  A    between atoms: C_23  and  C_29
REMARK    6  A    between atoms: C_29  and  C_30
REMARK    7  A    between atoms: C_29  and  O_36
REMARK                            x       y       z     vdW  Elec       q    Type
REMARK                         _______ _______ _______ _____ _____    ______ ____
ROOT
ATOM      1  C   UNL     1      34.090 -22.358 -19.161  0.00  0.00    -0.024 C 
ATOM      2  C   UNL     1      33.168 -21.519 -19.787  0.00  0.00    -0.003 C 
ATOM      3  C   UNL     1      35.457 -22.177 -19.378  0.00  0.00    -0.003 C 
ATOM      4  C   UNL     1      34.979 -20.320 -20.847  0.00  0.00    +0.050 C 
ATOM      5  C   UNL     1      33.613 -20.501 -20.631  0.00  0.00    +0.014 C 
ATOM      6  C   UNL     1      35.901 -21.159 -20.220  0.00  0.00    +0.014 C 
ENDROOT
BRANCH   4   8
ATOM      7  O   UNL     1      33.753 -19.178 -23.349  0.00  0.00    -0.273 OA
ATOM      8  N   UNL     1      35.430 -19.287 -21.703  0.00  0.00    -0.283 N 
ATOM      9  C   UNL     1      34.811 -18.809 -22.849  0.00  0.00    +0.245 C 
ATOM     10  H   UNL     1      36.282 -18.859 -21.455  0.00  0.00    +0.155 HD
BRANCH   9  14
ATOM     11  O   UNL     1      34.509 -18.142 -26.192  0.00  0.00    -0.269 OA
ATOM     12  N   UNL     1      34.689 -16.891 -24.237  0.00  0.00    -0.237 N 
ATOM     13  N   UNL     1      33.529 -14.824 -23.979  0.00  0.00    -0.233 NA
ATOM     14  C   UNL     1      35.610 -17.705 -23.474  0.00  0.00    +0.158 C 
ATOM     15  C   UNL     1      36.158 -16.744 -22.429  0.00  0.00    +0.037 C 
ATOM     16  C   UNL     1      35.037 -15.721 -22.222  0.00  0.00    +0.064 C 
ATOM     17  C   UNL     1      34.337 -15.734 -23.547  0.00  0.00    +0.115 C 
ATOM     18  C   UNL     1      34.224 -17.166 -25.508  0.00  0.00    +0.256 C 
ATOM     19  C   UNL     1      33.290 -16.124 -26.010  0.00  0.00    +0.079 C 
ATOM     20  C   UNL     1      33.018 -15.065 -25.233  0.00  0.00    +0.105 C 
ENDBRANCH   9  14
ENDBRANCH   4   8
BRANCH   1  21
ATOM     21  C   UNL     1      33.616 -23.448 -18.261  0.00  0.00    +0.005 C 
BRANCH  21  24
ATOM     22  N   UNL     1      32.817 -23.191 -15.928  0.00  0.00    +0.388 N 
ATOM     23  C   UNL     1      33.369 -23.340 -14.573  0.00  0.00    -0.030 C 
ATOM     24  C   UNL     1      33.993 -23.204 -16.809  0.00  0.00    -0.057 C 
ATOM     25  C   UNL     1      34.576 -24.266 -14.727  0.00  0.00    -0.021 C 
ATOM     26  C   UNL     1      34.857 -24.313 -16.224  0.00  0.00    -0.023 C 
ATOM     27  H   UNL     1      32.311 -22.310 -16.016  0.00  0.00    -0.084 HD
ATOM     28  H   UNL     1      32.151 -23.928 -16.158  0.00  0.00    -0.084 HD
BRANCH  23  29
ATOM     29  C   UNL     1      32.331 -23.875 -13.596  0.00  0.00    +0.113 C 
BRANCH  29  30
ATOM     30  C   UNL     1      31.004 -24.149 -14.266  0.00  0.00    +0.002 C 
ATOM     31  C   UNL     1      30.229 -23.091 -14.741  0.00  0.00    -0.002 C 
ATOM     32  C   UNL     1      30.554 -25.462 -14.409  0.00  0.00    -0.002 C 
ATOM     33  C   UNL     1      29.005 -23.345 -15.358  0.00  0.00    -0.000 C 
ATOM     34  C   UNL     1      29.329 -25.716 -15.026  0.00  0.00    -0.000 C 
ATOM     35  C   UNL     1      28.555 -24.658 -15.501  0.00  0.00    -0.000 C 
ENDBRANCH  29  30
BRANCH  29  36
ATOM     36  O   UNL     1      32.809 -25.079 -12.998  0.00  0.00    -0.382 OA
ATOM     37  H   UNL     1      33.448 -25.504 -13.591  0.00  0.00    +0.211 HD
ENDBRANCH  29  36
ENDBRANCH  23  29
ENDBRANCH  21  24
ENDBRANCH   1  21
TORSDOF 7
ENDMDL
MODEL 4
REMARK VINA RESULT:     -11.7      2.835     11.463
REMARK  Name = 44472635
REMARK  7 active torsions:
REMARK  status: ('A' for Active; 'I' for Inactive)
REMARK    1  A    between atoms: C_1  and  C_21
REMARK    2  A    between atoms: C_4  and  N_8
REMARK    3  A    between atoms: C_9  and  C_14
REMARK    4  A    between atoms: C_21  and  C_24
REMARK    5  A    between atoms: C_23  and  C_29
REMARK    6  A    between atoms: C_29  and  C_30
REMARK    7  A    between atoms: C_29  and  O_36
REMARK                            x       y       z     vdW  Elec       q    Type
REMARK                         _______ _______ _______ _____ _____    ______ ____
ROOT
ATOM      1  C   UNL     1      32.130 -11.773 -21.737  0.00  0.00    -0.024 C 
ATOM      2  C   UNL     1      32.225 -12.954 -21.000  0.00  0.00    -0.003 C 
ATOM      3  C   UNL     1      32.737 -11.682 -22.990  0.00  0.00    -0.003 C 
ATOM      4  C   UNL     1      33.531 -13.953 -22.771  0.00  0.00    +0.050 C 
ATOM      5  C   UNL     1      32.926 -14.044 -21.517  0.00  0.00    +0.014 C 
ATOM      6  C   UNL     1      33.437 -12.772 -23.507  0.00  0.00    +0.014 C 
ENDROOT
BRANCH   4   8
ATOM      7  O   UNL     1      33.033 -15.604 -25.239  0.00  0.00    -0.273 OA
ATOM      8  N   UNL     1      34.242 -15.058 -23.296  0.00  0.00    -0.283 N 
ATOM      9  C   UNL     1      33.953 -15.779 -24.446  0.00  0.00    +0.245 C 
ATOM     10  H   UNL     1      35.032 -15.349 -22.785  0.00  0.00    +0.155 HD
BRANCH   9  14
ATOM     11  O   UNL     1      36.238 -16.533 -22.012  0.00  0.00    -0.269 OA
ATOM     12  N   UNL     1      34.899 -17.732 -23.491  0.00  0.00    -0.237 N 
ATOM     13  N   UNL     1      33.925 -19.818 -22.867  0.00  0.00    -0.233 NA
ATOM     14  C   UNL     1      34.949 -16.879 -24.659  0.00  0.00    +0.158 C 
ATOM     15  C   UNL     1      34.533 -17.803 -25.795  0.00  0.00    +0.037 C 
ATOM     16  C   UNL     1      33.627 -18.845 -25.133  0.00  0.00    +0.064 C 
ATOM     17  C   UNL     1      34.147 -18.879 -23.728  0.00  0.00    +0.115 C 
ATOM     18  C   UNL     1      35.535 -17.498 -22.288  0.00  0.00    +0.256 C 
ATOM     19  C   UNL     1      35.282 -18.572 -21.292  0.00  0.00    +0.079 C 
ATOM     20  C   UNL     1      34.519 -19.618 -21.643  0.00  0.00    +0.105 C 
ENDBRANCH   9  14
ENDBRANCH   4   8
BRANCH   1  21
ATOM     21  C   UNL     1      31.384 -10.607 -21.183  0.00  0.00    +0.005 C 
BRANCH  21  24
ATOM     22  N   UNL     1      31.970  -8.418 -22.190  0.00  0.00    +0.388 N 
ATOM     23  C   UNL     1      32.569  -7.150 -21.747  0.00  0.00    -0.030 C 
ATOM     24  C   UNL     1      32.246  -9.358 -21.094  0.00  0.00    -0.057 C 
ATOM     25  C   UNL     1      32.365  -7.112 -20.232  0.00  0.00    -0.021 C 
ATOM     26  C   UNL     1      31.970  -8.533 -19.845  0.00  0.00    -0.023 C 
ATOM     27  H   UNL     1      32.402  -8.738 -23.056  0.00  0.00    -0.084 HD
ATOM     28  H   UNL     1      30.972  -8.329 -22.383  0.00  0.00    -0.084 HD
BRANCH  23  29
ATOM     29  C   UNL     1      31.951  -5.955 -22.459  0.00  0.00    +0.113 C 
BRANCH  29  30
ATOM     30  C   UNL     1      32.723  -5.568 -23.700  0.00  0.00    +0.002 C 
ATOM     31  C   UNL     1      32.244  -4.558 -24.534  0.00  0.00    -0.002 C 
ATOM     32  C   UNL     1      33.915  -6.222 -24.012  0.00  0.00    -0.002 C 
ATOM     33  C   UNL     1      32.956  -4.201 -25.679  0.00  0.00    -0.000 C 
ATOM     34  C   UNL     1      34.628  -5.867 -25.157  0.00  0.00    -0.000 C 
ATOM     35  C   UNL     1      34.148  -4.856 -25.990  0.00  0.00    -0.000 C 
ENDBRANCH  29  30
BRANCH  29  36
ATOM     36  O   UNL     1      30.604  -6.254 -22.824  0.00  0.00    -0.382 OA
ATOM     37  H   UNL     1      30.578  -6.555 -23.745  0.00  0.00    +0.211 HD
ENDBRANCH  29  36
ENDBRANCH  23  29
ENDBRANCH  21  24
ENDBRANCH   1  21
TORSDOF 7
ENDMDL
MODEL 5
REMARK VINA RESULT:     -11.4      4.096     12.079
REMARK  Name = 44472635
REMARK  7 active torsions:
REMARK  status: ('A' for Active; 'I' for Inactive)
REMARK    1  A    between atoms: C_1  and  C_21
REMARK    2  A    between atoms: C_4  and  N_8
REMARK    3  A    between atoms: C_9  and  C_14
REMARK    4  A    between atoms: C_21  and  C_24
REMARK    5  A    between atoms: C_23  and  C_29
REMARK    6  A    between atoms: C_29  and  C_30
REMARK    7  A    between atoms: C_29  and  O_36
REMARK                            x       y       z     vdW  Elec       q    Type
REMARK                         _______ _______ _______ _____ _____    ______ ____
ROOT
ATOM      1  C   UNL     1      35.380 -20.431 -20.742  0.00  0.00    -0.024 C 
ATOM      2  C   UNL     1      34.031 -20.721 -20.537  0.00  0.00    -0.003 C 
ATOM      3  C   UNL     1      36.355 -21.065 -19.971  0.00  0.00    -0.003 C 
ATOM      4  C   UNL     1      34.633 -22.281 -18.792  0.00  0.00    +0.050 C 
ATOM      5  C   UNL     1      33.657 -21.646 -19.562  0.00  0.00    +0.014 C 
ATOM      6  C   UNL     1      35.982 -21.990 -18.997  0.00  0.00    +0.014 C 
ENDROOT
BRANCH   4   8
ATOM      7  O   UNL     1      35.493 -22.548 -15.919  0.00  0.00    -0.273 OA
ATOM      8  N   UNL     1      34.254 -23.219 -17.803  0.00  0.00    -0.283 N 
ATOM      9  C   UNL     1      34.694 -23.286 -16.489  0.00  0.00    +0.245 C 
ATOM     10  H   UNL     1      33.602 -23.904 -18.080  0.00  0.00    +0.155 HD
BRANCH   9  14
ATOM     11  O   UNL     1      36.568 -25.979 -15.516  0.00  0.00    -0.269 OA
ATOM     12  N   UNL     1      34.861 -24.696 -14.590  0.00  0.00    -0.237 N 
ATOM     13  N   UNL     1      34.799 -24.217 -12.255  0.00  0.00    -0.233 NA
ATOM     14  C   UNL     1      34.053 -24.429 -15.761  0.00  0.00    +0.158 C 
ATOM     15  C   UNL     1      32.701 -24.040 -15.181  0.00  0.00    +0.037 C 
ATOM     16  C   UNL     1      33.026 -23.440 -13.811  0.00  0.00    +0.064 C 
ATOM     17  C   UNL     1      34.298 -24.142 -13.443  0.00  0.00    +0.115 C 
ATOM     18  C   UNL     1      36.027 -25.435 -14.560  0.00  0.00    +0.256 C 
ATOM     19  C   UNL     1      36.611 -25.521 -13.196  0.00  0.00    +0.079 C 
ATOM     20  C   UNL     1      35.976 -24.924 -12.177  0.00  0.00    +0.105 C 
ENDBRANCH   9  14
ENDBRANCH   4   8
BRANCH   1  21
ATOM     21  C   UNL     1      35.780 -19.440 -21.783  0.00  0.00    +0.005 C 
BRANCH  21  24
ATOM     22  N   UNL     1      34.619 -17.846 -23.284  0.00  0.00    +0.388 N 
ATOM     23  C   UNL     1      33.844 -17.904 -24.533  0.00  0.00    -0.030 C 
ATOM     24  C   UNL     1      34.703 -19.243 -22.837  0.00  0.00    -0.057 C 
ATOM     25  C   UNL     1      34.254 -19.216 -25.203  0.00  0.00    -0.021 C 
ATOM     26  C   UNL     1      34.984 -20.007 -24.124  0.00  0.00    -0.023 C 
ATOM     27  H   UNL     1      34.140 -17.274 -22.589  0.00  0.00    -0.084 HD
ATOM     28  H   UNL     1      35.538 -17.425 -23.418  0.00  0.00    -0.084 HD
BRANCH  23  29
ATOM     29  C   UNL     1      34.094 -16.686 -25.410  0.00  0.00    +0.113 C 
BRANCH  29  30
ATOM     30  C   UNL     1      33.918 -15.390 -24.651  0.00  0.00    +0.002 C 
ATOM     31  C   UNL     1      34.496 -15.235 -23.391  0.00  0.00    -0.002 C 
ATOM     32  C   UNL     1      33.178 -14.349 -25.211  0.00  0.00    -0.002 C 
ATOM     33  C   UNL     1      34.333 -14.040 -22.691  0.00  0.00    -0.000 C 
ATOM     34  C   UNL     1      33.015 -13.153 -24.512  0.00  0.00    -0.000 C 
ATOM     35  C   UNL     1      33.593 -12.999 -23.251  0.00  0.00    -0.000 C 
ENDBRANCH  29  30
BRANCH  29  36
ATOM     36  O   UNL     1      35.417 -16.738 -25.942  0.00  0.00    -0.382 OA
ATOM     37  H   UNL     1      36.056 -16.799 -25.215  0.00  0.00    +0.211 HD
ENDBRANCH  29  36
ENDBRANCH  23  29
ENDBRANCH  21  24
ENDBRANCH   1  21
TORSDOF 7
ENDMDL
MODEL 6
REMARK VINA RESULT:     -11.2      4.716      8.230
REMARK  Name = 44472635
REMARK  7 active torsions:
REMARK  status: ('A' for Active; 'I' for Inactive)
REMARK    1  A    between atoms: C_1  and  C_21
REMARK    2  A    between atoms: C_4  and  N_8
REMARK    3  A    between atoms: C_9  and  C_14
REMARK    4  A    between atoms: C_21  and  C_24
REMARK    5  A    between atoms: C_23  and  C_29
REMARK    6  A    between atoms: C_29  and  C_30
REMARK    7  A    between atoms: C_29  and  O_36
REMARK                            x       y       z     vdW  Elec       q    Type
REMARK                         _______ _______ _______ _____ _____    ______ ____
ROOT
ATOM      1  C   UNL     1      33.960 -22.484 -18.752  0.00  0.00    -0.024 C 
ATOM      2  C   UNL     1      33.072 -21.646 -19.427  0.00  0.00    -0.003 C 
ATOM      3  C   UNL     1      35.327 -22.411 -19.019  0.00  0.00    -0.003 C 
ATOM      4  C   UNL     1      34.919 -20.662 -20.635  0.00  0.00    +0.050 C 
ATOM      5  C   UNL     1      33.551 -20.736 -20.369  0.00  0.00    +0.014 C 
ATOM      6  C   UNL     1      35.807 -21.500 -19.960  0.00  0.00    +0.014 C 
ENDROOT
BRANCH   4   8
ATOM      7  O   UNL     1      33.585 -19.467 -23.056  0.00  0.00    -0.273 OA
ATOM      8  N   UNL     1      35.405 -19.738 -21.590  0.00  0.00    -0.283 N 
ATOM      9  C   UNL     1      34.732 -19.227 -22.691  0.00  0.00    +0.245 C 
ATOM     10  H   UNL     1      36.329 -19.422 -21.458  0.00  0.00    +0.155 HD
BRANCH   9  14
ATOM     11  O   UNL     1      34.258 -18.789 -26.052  0.00  0.00    -0.269 OA
ATOM     12  N   UNL     1      34.714 -17.420 -24.225  0.00  0.00    -0.237 N 
ATOM     13  N   UNL     1      33.804 -15.222 -24.068  0.00  0.00    -0.233 NA
ATOM     14  C   UNL     1      35.596 -18.272 -23.458  0.00  0.00    +0.158 C 
ATOM     15  C   UNL     1      36.319 -17.301 -22.535  0.00  0.00    +0.037 C 
ATOM     16  C   UNL     1      35.333 -16.146 -22.343  0.00  0.00    +0.064 C 
ATOM     17  C   UNL     1      34.540 -16.182 -23.614  0.00  0.00    +0.115 C 
ATOM     18  C   UNL     1      34.129 -17.738 -25.435  0.00  0.00    +0.256 C 
ATOM     19  C   UNL     1      33.278 -16.639 -25.962  0.00  0.00    +0.079 C 
ATOM     20  C   UNL     1      33.179 -15.499 -25.261  0.00  0.00    +0.105 C 
ENDBRANCH   9  14
ENDBRANCH   4   8
BRANCH   1  21
ATOM     21  C   UNL     1      33.447 -23.459 -17.747  0.00  0.00    +0.005 C 
BRANCH  21  24
ATOM     22  N   UNL     1      33.786 -24.287 -15.435  0.00  0.00    +0.388 N 
ATOM     23  C   UNL     1      34.615 -23.936 -14.271  0.00  0.00    -0.030 C 
ATOM     24  C   UNL     1      33.911 -23.133 -16.337  0.00  0.00    -0.057 C 
ATOM     25  C   UNL     1      35.796 -23.148 -14.837  0.00  0.00    -0.021 C 
ATOM     26  C   UNL     1      35.392 -22.788 -16.262  0.00  0.00    -0.023 C 
ATOM     27  H   UNL     1      32.815 -24.423 -15.157  0.00  0.00    -0.084 HD
ATOM     28  H   UNL     1      34.084 -25.157 -15.874  0.00  0.00    -0.084 HD
BRANCH  23  29
ATOM     29  C   UNL     1      35.044 -25.171 -13.491  0.00  0.00    +0.113 C 
BRANCH  29  30
ATOM     30  C   UNL     1      36.530 -25.428 -13.601  0.00  0.00    +0.002 C 
ATOM     31  C   UNL     1      37.404 -24.884 -12.660  0.00  0.00    -0.002 C 
ATOM     32  C   UNL     1      37.027 -26.208 -14.645  0.00  0.00    -0.002 C 
ATOM     33  C   UNL     1      38.774 -25.121 -12.762  0.00  0.00    -0.000 C 
ATOM     34  C   UNL     1      38.398 -26.445 -14.748  0.00  0.00    -0.000 C 
ATOM     35  C   UNL     1      39.271 -25.902 -13.806  0.00  0.00    -0.000 C 
ENDBRANCH  29  30
BRANCH  29  36
ATOM     36  O   UNL     1      34.699 -25.016 -12.115  0.00  0.00    -0.382 OA
ATOM     37  H   UNL     1      34.246 -25.814 -11.803  0.00  0.00    +0.211 HD
ENDBRANCH  29  36
ENDBRANCH  23  29
ENDBRANCH  21  24
ENDBRANCH   1  21
TORSDOF 7
ENDMDL
MODEL 7
REMARK VINA RESULT:     -11.2      2.142      3.884
REMARK  Name = 44472635
REMARK  7 active torsions:
REMARK  status: ('A' for Active; 'I' for Inactive)
REMARK    1  A    between atoms: C_1  and  C_21
REMARK    2  A    between atoms: C_4  and  N_8
REMARK    3  A    between atoms: C_9  and  C_14
REMARK    4  A    between atoms: C_21  and  C_24
REMARK    5  A    between atoms: C_23  and  C_29
REMARK    6  A    between atoms: C_29  and  C_30
REMARK    7  A    between atoms: C_29  and  O_36
REMARK                            x       y       z     vdW  Elec       q    Type
REMARK                         _______ _______ _______ _____ _____    ______ ____
ROOT
ATOM      1  C   UNL     1      33.391 -13.822 -25.079  0.00  0.00    -0.024 C 
ATOM      2  C   UNL     1      33.032 -13.746 -23.733  0.00  0.00    -0.003 C 
ATOM      3  C   UNL     1      33.766 -12.668 -25.767  0.00  0.00    -0.003 C 
ATOM      4  C   UNL     1      33.423 -11.362 -23.764  0.00  0.00    +0.050 C 
ATOM      5  C   UNL     1      33.047 -12.516 -23.076  0.00  0.00    +0.014 C 
ATOM      6  C   UNL     1      33.782 -11.438 -25.110  0.00  0.00    +0.014 C 
ENDROOT
BRANCH   4   8
ATOM      7  O   UNL     1      31.177  -9.761 -22.557  0.00  0.00    -0.273 OA
ATOM      8  N   UNL     1      33.440 -10.114 -23.097  0.00  0.00    -0.283 N 
ATOM      9  C   UNL     1      32.359  -9.427 -22.563  0.00  0.00    +0.245 C 
ATOM     10  H   UNL     1      34.321  -9.684 -23.002  0.00  0.00    +0.155 HD
BRANCH   9  14
ATOM     11  O   UNL     1      35.372  -8.035 -23.396  0.00  0.00    -0.269 OA
ATOM     12  N   UNL     1      33.212  -7.261 -23.011  0.00  0.00    -0.237 N 
ATOM     13  N   UNL     1      32.312  -5.433 -24.250  0.00  0.00    -0.233 NA
ATOM     14  C   UNL     1      32.794  -8.136 -21.937  0.00  0.00    +0.158 C 
ATOM     15  C   UNL     1      31.625  -7.395 -21.305  0.00  0.00    +0.037 C 
ATOM     16  C   UNL     1      31.033  -6.562 -22.446  0.00  0.00    +0.064 C 
ATOM     17  C   UNL     1      32.221  -6.336 -23.330  0.00  0.00    +0.115 C 
ATOM     18  C   UNL     1      34.441  -7.277 -23.640  0.00  0.00    +0.256 C 
ATOM     19  C   UNL     1      34.551  -6.244 -24.702  0.00  0.00    +0.079 C 
ATOM     20  C   UNL     1      33.511  -5.425 -24.923  0.00  0.00    +0.105 C 
ENDBRANCH   9  14
ENDBRANCH   4   8
BRANCH   1  21
ATOM     21  C   UNL     1      33.372 -15.137 -25.783  0.00  0.00    +0.005 C 
BRANCH  21  24
ATOM     22  N   UNL     1      34.423 -15.969 -23.698  0.00  0.00    +0.388 N 
ATOM     23  C   UNL     1      35.037 -17.217 -23.219  0.00  0.00    -0.030 C 
ATOM     24  C   UNL     1      34.321 -16.143 -25.154  0.00  0.00    -0.057 C 
ATOM     25  C   UNL     1      34.480 -18.315 -24.126  0.00  0.00    -0.021 C 
ATOM     26  C   UNL     1      33.847 -17.582 -25.303  0.00  0.00    -0.023 C 
ATOM     27  H   UNL     1      35.013 -15.168 -23.472  0.00  0.00    -0.084 HD
ATOM     28  H   UNL     1      33.518 -15.791 -23.264  0.00  0.00    -0.084 HD
BRANCH  23  29
ATOM     29  C   UNL     1      34.746 -17.460 -21.745  0.00  0.00    +0.113 C 
BRANCH  29  30
ATOM     30  C   UNL     1      35.352 -18.753 -21.249  0.00  0.00    +0.002 C 
ATOM     31  C   UNL     1      34.529 -19.830 -20.921  0.00  0.00    -0.002 C 
ATOM     32  C   UNL     1      36.736 -18.869 -21.118  0.00  0.00    -0.002 C 
ATOM     33  C   UNL     1      35.088 -21.022 -20.462  0.00  0.00    -0.000 C 
ATOM     34  C   UNL     1      37.297 -20.061 -20.659  0.00  0.00    -0.000 C 
ATOM     35  C   UNL     1      36.472 -21.138 -20.332  0.00  0.00    -0.000 C 
ENDBRANCH  29  30
BRANCH  29  36
ATOM     36  O   UNL     1      35.258 -16.378 -20.968  0.00  0.00    -0.382 OA
ATOM     37  H   UNL     1      35.546 -15.664 -21.559  0.00  0.00    +0.211 HD
ENDBRANCH  29  36
ENDBRANCH  23  29
ENDBRANCH  21  24
ENDBRANCH   1  21
TORSDOF 7
ENDMDL
MODEL 8
REMARK VINA RESULT:     -11.1      2.659     11.750
REMARK  Name = 44472635
REMARK  7 active torsions:
REMARK  status: ('A' for Active; 'I' for Inactive)
REMARK    1  A    between atoms: C_1  and  C_21
REMARK    2  A    between atoms: C_4  and  N_8
REMARK    3  A    between atoms: C_9  and  C_14
REMARK    4  A    between atoms: C_21  and  C_24
REMARK    5  A    between atoms: C_23  and  C_29
REMARK    6  A    between atoms: C_29  and  C_30
REMARK    7  A    between atoms: C_29  and  O_36
REMARK                            x       y       z     vdW  Elec       q    Type
REMARK                         _______ _______ _______ _____ _____    ______ ____
ROOT
ATOM      1  C   UNL     1      32.191 -11.477 -22.149  0.00  0.00    -0.024 C 
ATOM      2  C   UNL     1      33.077 -11.455 -23.226  0.00  0.00    -0.003 C 
ATOM      3  C   UNL     1      32.041 -12.640 -21.393  0.00  0.00    -0.003 C 
ATOM      4  C   UNL     1      33.663 -13.758 -22.791  0.00  0.00    +0.050 C 
ATOM      5  C   UNL     1      33.813 -12.596 -23.548  0.00  0.00    +0.014 C 
ATOM      6  C   UNL     1      32.777 -13.780 -21.713  0.00  0.00    +0.014 C 
ENDROOT
BRANCH   4   8
ATOM      7  O   UNL     1      34.942 -15.824 -21.012  0.00  0.00    -0.273 OA
ATOM      8  N   UNL     1      34.410 -14.915 -23.116  0.00  0.00    -0.283 N 
ATOM      9  C   UNL     1      34.976 -15.830 -22.239  0.00  0.00    +0.245 C 
ATOM     10  H   UNL     1      34.542 -15.092 -24.076  0.00  0.00    +0.155 HD
BRANCH   9  14
ATOM     11  O   UNL     1      36.739 -18.212 -20.528  0.00  0.00    -0.269 OA
ATOM     12  N   UNL     1      35.309 -18.174 -22.364  0.00  0.00    -0.237 N 
ATOM     13  N   UNL     1      33.794 -19.965 -22.791  0.00  0.00    -0.233 NA
ATOM     14  C   UNL     1      35.688 -16.921 -22.980  0.00  0.00    +0.158 C 
ATOM     15  C   UNL     1      35.180 -17.056 -24.409  0.00  0.00    +0.037 C 
ATOM     16  C   UNL     1      33.982 -18.004 -24.303  0.00  0.00    +0.064 C 
ATOM     17  C   UNL     1      34.327 -18.830 -23.102  0.00  0.00    +0.115 C 
ATOM     18  C   UNL     1      35.853 -18.710 -21.213  0.00  0.00    +0.256 C 
ATOM     19  C   UNL     1      35.242 -20.014 -20.849  0.00  0.00    +0.079 C 
ATOM     20  C   UNL     1      34.287 -20.529 -21.638  0.00  0.00    +0.105 C 
ENDBRANCH   9  14
ENDBRANCH   4   8
BRANCH   1  21
ATOM     21  C   UNL     1      31.403 -10.258 -21.807  0.00  0.00    +0.005 C 
BRANCH  21  24
ATOM     22  N   UNL     1      32.107  -8.022 -22.613  0.00  0.00    +0.388 N 
ATOM     23  C   UNL     1      32.706  -6.806 -22.042  0.00  0.00    -0.030 C 
ATOM     24  C   UNL     1      32.287  -9.044 -21.572  0.00  0.00    -0.057 C 
ATOM     25  C   UNL     1      32.403  -6.869 -20.545  0.00  0.00    -0.021 C 
ATOM     26  C   UNL     1      31.949  -8.301 -20.288  0.00  0.00    -0.023 C 
ATOM     27  H   UNL     1      32.588  -8.292 -23.470  0.00  0.00    -0.084 HD
ATOM     28  H   UNL     1      31.127  -7.890 -22.862  0.00  0.00    -0.084 HD
BRANCH  23  29
ATOM     29  C   UNL     1      32.166  -5.546 -22.704  0.00  0.00    +0.113 C 
BRANCH  29  30
ATOM     30  C   UNL     1      32.845  -5.259 -24.024  0.00  0.00    +0.002 C 
ATOM     31  C   UNL     1      34.024  -5.923 -24.362  0.00  0.00    -0.002 C 
ATOM     32  C   UNL     1      32.294  -4.327 -24.904  0.00  0.00    -0.002 C 
ATOM     33  C   UNL     1      34.651  -5.657 -25.579  0.00  0.00    -0.000 C 
ATOM     34  C   UNL     1      32.920  -4.060 -26.121  0.00  0.00    -0.000 C 
ATOM     35  C   UNL     1      34.099  -4.726 -26.459  0.00  0.00    -0.000 C 
ENDBRANCH  29  30
BRANCH  29  36
ATOM     36  O   UNL     1      30.762  -5.681 -22.923  0.00  0.00    -0.382 OA
ATOM     37  H   UNL     1      30.403  -6.349 -22.318  0.00  0.00    +0.211 HD
ENDBRANCH  29  36
ENDBRANCH  23  29
ENDBRANCH  21  24
ENDBRANCH   1  21
TORSDOF 7
ENDMDL
MODEL 9
REMARK VINA RESULT:     -11.1      2.917      5.301
REMARK  Name = 44472635
REMARK  7 active torsions:
REMARK  status: ('A' for Active; 'I' for Inactive)
REMARK    1  A    between atoms: C_1  and  C_21
REMARK    2  A    between atoms: C_4  and  N_8
REMARK    3  A    between atoms: C_9  and  C_14
REMARK    4  A    between atoms: C_21  and  C_24
REMARK    5  A    between atoms: C_23  and  C_29
REMARK    6  A    between atoms: C_29  and  C_30
REMARK    7  A    between atoms: C_29  and  O_36
REMARK                            x       y       z     vdW  Elec       q    Type
REMARK                         _______ _______ _______ _____ _____    ______ ____
ROOT
ATOM      1  C   UNL     1      32.822 -12.336 -22.943  0.00  0.00    -0.024 C 
ATOM      2  C   UNL     1      32.044 -11.605 -22.045  0.00  0.00    -0.003 C 
ATOM      3  C   UNL     1      33.699 -11.676 -23.803  0.00  0.00    -0.003 C 
ATOM      4  C   UNL     1      33.023  -9.554 -22.867  0.00  0.00    +0.050 C 
ATOM      5  C   UNL     1      32.144 -10.214 -22.007  0.00  0.00    +0.014 C 
ATOM      6  C   UNL     1      33.800 -10.286 -23.765  0.00  0.00    +0.014 C 
ENDROOT
BRANCH   4   8
ATOM      7  O   UNL     1      30.955  -7.429 -23.391  0.00  0.00    -0.273 OA
ATOM      8  N   UNL     1      33.125  -8.144 -22.829  0.00  0.00    -0.283 N 
ATOM      9  C   UNL     1      32.125  -7.216 -23.085  0.00  0.00    +0.245 C 
ATOM     10  H   UNL     1      34.009  -7.778 -22.594  0.00  0.00    +0.155 HD
BRANCH   9  14
ATOM     11  O   UNL     1      35.216  -6.373 -24.288  0.00  0.00    -0.269 OA
ATOM     12  N   UNL     1      33.105  -5.394 -24.242  0.00  0.00    -0.237 N 
ATOM     13  N   UNL     1      32.316  -4.067 -26.059  0.00  0.00    -0.233 NA
ATOM     14  C   UNL     1      32.636  -5.815 -22.939  0.00  0.00    +0.158 C 
ATOM     15  C   UNL     1      31.513  -4.835 -22.630  0.00  0.00    +0.037 C 
ATOM     16  C   UNL     1      30.972  -4.422 -24.001  0.00  0.00    +0.064 C 
ATOM     17  C   UNL     1      32.172  -4.585 -24.884  0.00  0.00    +0.115 C 
ATOM     18  C   UNL     1      34.331  -5.698 -24.800  0.00  0.00    +0.256 C 
ATOM     19  C   UNL     1      34.503  -5.108 -26.153  0.00  0.00    +0.079 C 
ATOM     20  C   UNL     1      33.514  -4.361 -26.668  0.00  0.00    +0.105 C 
ENDBRANCH   9  14
ENDBRANCH   4   8
BRANCH   1  21
ATOM     21  C   UNL     1      32.713 -13.823 -22.985  0.00  0.00    +0.005 C 
BRANCH  21  24
ATOM     22  N   UNL     1      34.039 -15.802 -23.669  0.00  0.00    +0.388 N 
ATOM     23  C   UNL     1      34.564 -16.374 -24.918  0.00  0.00    -0.030 C 
ATOM     24  C   UNL     1      33.626 -14.439 -24.032  0.00  0.00    -0.057 C 
ATOM     25  C   UNL     1      33.696 -15.783 -26.030  0.00  0.00    -0.021 C 
ATOM     26  C   UNL     1      32.944 -14.627 -25.380  0.00  0.00    -0.023 C 
ATOM     27  H   UNL     1      34.764 -15.780 -22.951  0.00  0.00    -0.084 HD
ATOM     28  H   UNL     1      33.271 -16.352 -23.284  0.00  0.00    -0.084 HD
BRANCH  23  29
ATOM     29  C   UNL     1      34.544 -17.895 -24.896  0.00  0.00    +0.113 C 
BRANCH  29  30
ATOM     30  C   UNL     1      34.941 -18.452 -23.547  0.00  0.00    +0.002 C 
ATOM     31  C   UNL     1      36.130 -18.041 -22.944  0.00  0.00    -0.002 C 
ATOM     32  C   UNL     1      34.117 -19.377 -22.905  0.00  0.00    -0.002 C 
ATOM     33  C   UNL     1      36.495 -18.554 -21.701  0.00  0.00    -0.000 C 
ATOM     34  C   UNL     1      34.483 -19.892 -21.661  0.00  0.00    -0.000 C 
ATOM     35  C   UNL     1      35.672 -19.480 -21.059  0.00  0.00    -0.000 C 
ENDBRANCH  29  30
BRANCH  29  36
ATOM     36  O   UNL     1      33.238 -18.365 -25.227  0.00  0.00    -0.382 OA
ATOM     37  H   UNL     1      32.701 -17.626 -25.553  0.00  0.00    +0.211 HD
ENDBRANCH  29  36
ENDBRANCH  23  29
ENDBRANCH  21  24
ENDBRANCH   1  21
TORSDOF 7
ENDMDL
