MODEL 1
REMARK VINA RESULT:     -11.8      0.000      0.000
REMARK  Name = 11524144
REMARK  6 active torsions:
REMARK  status: ('A' for Active; 'I' for Inactive)
REMARK    1  A    between atoms: C_1  and  O_22
REMARK    2  A    between atoms: C_2  and  C_10
REMARK    3  A    between atoms: C_12  and  C_17
REMARK    4  A    between atoms: O_22  and  C_23
REMARK    5  A    between atoms: C_23  and  C_24
REMARK    6  A    between atoms: C_24  and  N_25
REMARK                            x       y       z     vdW  Elec       q    Type
REMARK                         _______ _______ _______ _____ _____    ______ ____
ROOT
ATOM      1  C   UNL     1      34.884 -17.093 -23.722  0.00  0.00    +0.138 C 
ATOM      2  C   UNL     1      34.056 -14.453 -23.455  0.00  0.00    -0.001 C 
ATOM      3  C   UNL     1      35.166 -16.399 -22.552  0.00  0.00    +0.037 C 
ATOM      4  C   UNL     1      34.192 -16.481 -24.761  0.00  0.00    +0.037 C 
ATOM      5  C   UNL     1      34.751 -15.074 -22.418  0.00  0.00    +0.003 C 
ATOM      6  C   UNL     1      33.776 -15.156 -24.626  0.00  0.00    +0.003 C 
ENDROOT
BRANCH   2  10
ATOM      7  N   UNL     1      32.297 -11.313 -22.377  0.00  0.00    -0.193 N 
ATOM      8  N   UNL     1      33.842 -10.689 -24.108  0.00  0.00    -0.231 NA
ATOM      9  N   UNL     1      31.365 -10.759 -21.557  0.00  0.00    -0.179 NA
ATOM     10  C   UNL     1      33.619 -13.056 -23.314  0.00  0.00    +0.019 C 
ATOM     11  C   UNL     1      32.880 -10.356 -23.204  0.00  0.00    +0.137 C 
ATOM     12  C   UNL     1      32.289  -9.154 -22.886  0.00  0.00    +0.121 C 
ATOM     13  C   UNL     1      32.677 -12.651 -22.447  0.00  0.00    +0.145 C 
ATOM     14  C   UNL     1      34.175 -11.945 -24.149  0.00  0.00    +0.097 C 
ATOM     15  C   UNL     1      31.371  -9.464 -21.874  0.00  0.00    +0.103 C 
BRANCH  12  17
ATOM     16  N   UNL     1      33.223  -5.462 -24.729  0.00  0.00    -0.242 NA
ATOM     17  C   UNL     1      32.604  -7.905 -23.510  0.00  0.00    -0.007 C 
ATOM     18  C   UNL     1      33.928  -7.481 -23.601  0.00  0.00    +0.017 C 
ATOM     19  C   UNL     1      31.592  -7.104 -24.031  0.00  0.00    +0.017 C 
ATOM     20  C   UNL     1      34.181  -6.264 -24.213  0.00  0.00    +0.099 C 
ATOM     21  C   UNL     1      31.950  -5.904 -24.625  0.00  0.00    +0.099 C 
ENDBRANCH  12  17
ENDBRANCH   2  10
BRANCH   1  22
ATOM     22  O   UNL     1      35.292 -18.395 -23.854  0.00  0.00    -0.478 OA
BRANCH  22  23
ATOM     23  C   UNL     1      34.794 -19.323 -22.900  0.00  0.00    +0.183 C 
BRANCH  23  24
ATOM     24  C   UNL     1      35.752 -19.371 -21.719  0.00  0.00    -0.029 C 
BRANCH  24  25
ATOM     25  N   UNL     1      35.155 -20.099 -20.600  0.00  0.00    +0.389 N 
ATOM     26  C   UNL     1      33.782 -20.508 -20.927  0.00  0.00    -0.077 C 
ATOM     27  C   UNL     1      35.984 -21.258 -20.241  0.00  0.00    -0.077 C 
ATOM     28  C   UNL     1      33.125 -21.229 -19.748  0.00  0.00    -0.023 C 
ATOM     29  C   UNL     1      35.399 -22.002 -19.039  0.00  0.00    -0.023 C 
ATOM     30  C   UNL     1      33.957 -22.424 -19.295  0.00  0.00    -0.004 C 
ATOM     31  H   UNL     1      35.114 -19.479 -19.792  0.00  0.00    -0.080 HD
ENDBRANCH  24  25
ENDBRANCH  23  24
ENDBRANCH  22  23
ENDBRANCH   1  22
TORSDOF 6
ENDMDL
MODEL 2
REMARK VINA RESULT:     -11.8      6.175      9.797
REMARK  Name = 11524144
REMARK  6 active torsions:
REMARK  status: ('A' for Active; 'I' for Inactive)
REMARK    1  A    between atoms: C_1  and  O_22
REMARK    2  A    between atoms: C_2  and  C_10
REMARK    3  A    between atoms: C_12  and  C_17
REMARK    4  A    between atoms: O_22  and  C_23
REMARK    5  A    between atoms: C_23  and  C_24
REMARK    6  A    between atoms: C_24  and  N_25
REMARK                            x       y       z     vdW  Elec       q    Type
REMARK                         _______ _______ _______ _____ _____    ______ ____
ROOT
ATOM      1  C   UNL     1      34.192 -23.848 -16.196  0.00  0.00    +0.138 C 
ATOM      2  C   UNL     1      34.662 -22.182 -18.372  0.00  0.00    -0.001 C 
ATOM      3  C   UNL     1      33.187 -23.639 -17.133  0.00  0.00    +0.037 C 
ATOM      4  C   UNL     1      35.431 -23.233 -16.337  0.00  0.00    +0.037 C 
ATOM      5  C   UNL     1      33.422 -22.803 -18.224  0.00  0.00    +0.003 C 
ATOM      6  C   UNL     1      35.666 -22.397 -17.429  0.00  0.00    +0.003 C 
ENDROOT
BRANCH   2  10
ATOM      7  N   UNL     1      36.254 -19.878 -20.877  0.00  0.00    -0.193 N 
ATOM      8  N   UNL     1      33.966 -20.170 -21.551  0.00  0.00    -0.231 NA
ATOM      9  N   UNL     1      37.381 -19.221 -21.258  0.00  0.00    -0.179 NA
ATOM     10  C   UNL     1      34.910 -21.300 -19.522  0.00  0.00    +0.019 C 
ATOM     11  C   UNL     1      35.195 -19.616 -21.743  0.00  0.00    +0.137 C 
ATOM     12  C   UNL     1      35.682 -18.762 -22.706  0.00  0.00    +0.121 C 
ATOM     13  C   UNL     1      36.092 -20.717 -19.777  0.00  0.00    +0.145 C 
ATOM     14  C   UNL     1      33.847 -20.949 -20.518  0.00  0.00    +0.097 C 
ATOM     15  C   UNL     1      37.023 -18.556 -22.357  0.00  0.00    +0.103 C 
BRANCH  12  17
ATOM     16  N   UNL     1      33.403 -17.230 -25.926  0.00  0.00    -0.242 NA
ATOM     17  C   UNL     1      34.911 -18.243 -23.795  0.00  0.00    -0.007 C 
ATOM     18  C   UNL     1      34.193 -19.105 -24.620  0.00  0.00    +0.017 C 
ATOM     19  C   UNL     1      34.873 -16.873 -24.039  0.00  0.00    +0.017 C 
ATOM     20  C   UNL     1      33.462 -18.554 -25.660  0.00  0.00    +0.099 C 
ATOM     21  C   UNL     1      34.112 -16.422 -25.106  0.00  0.00    +0.099 C 
ENDBRANCH  12  17
ENDBRANCH   2  10
BRANCH   1  22
ATOM     22  O   UNL     1      33.961 -24.670 -15.124  0.00  0.00    -0.478 OA
BRANCH  22  23
ATOM     23  C   UNL     1      33.149 -24.149 -14.080  0.00  0.00    +0.183 C 
BRANCH  23  24
ATOM     24  C   UNL     1      32.016 -25.126 -13.809  0.00  0.00    -0.029 C 
BRANCH  24  25
ATOM     25  N   UNL     1      30.747 -24.597 -14.307  0.00  0.00    +0.389 N 
ATOM     26  C   UNL     1      30.862 -23.156 -14.576  0.00  0.00    -0.077 C 
ATOM     27  C   UNL     1      30.322 -25.329 -15.507  0.00  0.00    -0.077 C 
ATOM     28  C   UNL     1      29.529 -22.576 -15.053  0.00  0.00    -0.023 C 
ATOM     29  C   UNL     1      28.971 -24.820 -16.014  0.00  0.00    -0.023 C 
ATOM     30  C   UNL     1      29.007 -23.320 -16.277  0.00  0.00    -0.004 C 
ATOM     31  H   UNL     1      30.034 -24.727 -13.590  0.00  0.00    -0.080 HD
ENDBRANCH  24  25
ENDBRANCH  23  24
ENDBRANCH  22  23
ENDBRANCH   1  22
TORSDOF 6
ENDMDL
MODEL 3
REMARK VINA RESULT:     -11.5      4.720     13.515
REMARK  Name = 11524144
REMARK  6 active torsions:
REMARK  status: ('A' for Active; 'I' for Inactive)
REMARK    1  A    between atoms: C_1  and  O_22
REMARK    2  A    between atoms: C_2  and  C_10
REMARK    3  A    between atoms: C_12  and  C_17
REMARK    4  A    between atoms: O_22  and  C_23
REMARK    5  A    between atoms: C_23  and  C_24
REMARK    6  A    between atoms: C_24  and  N_25
REMARK                            x       y       z     vdW  Elec       q    Type
REMARK                         _______ _______ _______ _____ _____    ______ ____
ROOT
ATOM      1  C   UNL     1      34.318 -20.051 -21.631  0.00  0.00    +0.138 C 
ATOM      2  C   UNL     1      34.469 -21.570 -19.308  0.00  0.00    -0.001 C 
ATOM      3  C   UNL     1      35.561 -20.403 -21.119  0.00  0.00    +0.037 C 
ATOM      4  C   UNL     1      33.149 -20.451 -20.993  0.00  0.00    +0.037 C 
ATOM      5  C   UNL     1      35.637 -21.165 -19.953  0.00  0.00    +0.003 C 
ATOM      6  C   UNL     1      33.225 -21.213 -19.827  0.00  0.00    +0.003 C 
ENDROOT
BRANCH   2  10
ATOM      7  N   UNL     1      33.628 -23.648 -16.293  0.00  0.00    -0.193 N 
ATOM      8  N   UNL     1      36.009 -23.329 -16.279  0.00  0.00    -0.231 NA
ATOM      9  N   UNL     1      32.649 -24.249 -15.566  0.00  0.00    -0.179 NA
ATOM     10  C   UNL     1      34.549 -22.372 -18.078  0.00  0.00    +0.019 C 
ATOM     11  C   UNL     1      34.882 -23.844 -15.718  0.00  0.00    +0.137 C 
ATOM     12  C   UNL     1      34.676 -24.600 -14.586  0.00  0.00    +0.121 C 
ATOM     13  C   UNL     1      33.482 -22.912 -17.466  0.00  0.00    +0.145 C 
ATOM     14  C   UNL     1      35.841 -22.648 -17.373  0.00  0.00    +0.097 C 
ATOM     15  C   UNL     1      33.292 -24.816 -14.545  0.00  0.00    +0.103 C 
BRANCH  12  17
ATOM     16  N   UNL     1      37.743 -25.865 -11.959  0.00  0.00    -0.242 NA
ATOM     17  C   UNL     1      35.714 -25.027 -13.697  0.00  0.00    -0.007 C 
ATOM     18  C   UNL     1      36.650 -25.971 -14.113  0.00  0.00    +0.017 C 
ATOM     19  C   UNL     1      35.795 -24.504 -12.410  0.00  0.00    +0.017 C 
ATOM     20  C   UNL     1      37.634 -26.352 -13.215  0.00  0.00    +0.099 C 
ATOM     21  C   UNL     1      36.819 -24.951 -11.588  0.00  0.00    +0.099 C 
ENDBRANCH  12  17
ENDBRANCH   2  10
BRANCH   1  22
ATOM     22  O   UNL     1      34.243 -19.302 -22.777  0.00  0.00    -0.478 OA
BRANCH  22  23
ATOM     23  C   UNL     1      35.466 -18.794 -23.292  0.00  0.00    +0.183 C 
BRANCH  23  24
ATOM     24  C   UNL     1      35.531 -17.301 -23.014  0.00  0.00    -0.029 C 
BRANCH  24  25
ATOM     25  N   UNL     1      34.459 -16.598 -23.719  0.00  0.00    +0.389 N 
ATOM     26  C   UNL     1      34.499 -15.161 -23.415  0.00  0.00    -0.077 C 
ATOM     27  C   UNL     1      34.552 -16.838 -25.165  0.00  0.00    -0.077 C 
ATOM     28  C   UNL     1      33.355 -14.418 -24.106  0.00  0.00    -0.023 C 
ATOM     29  C   UNL     1      33.409 -16.150 -25.913  0.00  0.00    -0.023 C 
ATOM     30  C   UNL     1      33.368 -14.657 -25.612  0.00  0.00    -0.004 C 
ATOM     31  H   UNL     1      33.562 -16.962 -23.397  0.00  0.00    -0.080 HD
ENDBRANCH  24  25
ENDBRANCH  23  24
ENDBRANCH  22  23
ENDBRANCH   1  22
TORSDOF 6
ENDMDL
MODEL 4
REMARK VINA RESULT:     -11.5      2.795     11.192
REMARK  Name = 11524144
REMARK  6 active torsions:
REMARK  status: ('A' for Active; 'I' for Inactive)
REMARK    1  A    between atoms: C_1  and  O_22
REMARK    2  A    between atoms: C_2  and  C_10
REMARK    3  A    between atoms: C_12  and  C_17
REMARK    4  A    between atoms: O_22  and  C_23
REMARK    5  A    between atoms: C_23  and  C_24
REMARK    6  A    between atoms: C_24  and  N_25
REMARK                            x       y       z     vdW  Elec       q    Type
REMARK                         _______ _______ _______ _____ _____    ______ ____
ROOT
ATOM      1  C   UNL     1      32.391  -9.792 -23.045  0.00  0.00    +0.138 C 
ATOM      2  C   UNL     1      33.308 -12.417 -23.049  0.00  0.00    -0.001 C 
ATOM      3  C   UNL     1      31.887 -10.699 -22.119  0.00  0.00    +0.037 C 
ATOM      4  C   UNL     1      33.349 -10.185 -23.972  0.00  0.00    +0.037 C 
ATOM      5  C   UNL     1      32.347 -12.016 -22.121  0.00  0.00    +0.003 C 
ATOM      6  C   UNL     1      33.809 -11.502 -23.974  0.00  0.00    +0.003 C 
ENDROOT
BRANCH   2  10
ATOM      7  N   UNL     1      34.282 -15.898 -24.074  0.00  0.00    -0.193 N 
ATOM      8  N   UNL     1      34.710 -15.718 -21.717  0.00  0.00    -0.231 NA
ATOM      9  N   UNL     1      34.372 -16.799 -25.088  0.00  0.00    -0.179 NA
ATOM     10  C   UNL     1      33.793 -13.805 -23.051  0.00  0.00    +0.019 C 
ATOM     11  C   UNL     1      34.714 -16.445 -22.867  0.00  0.00    +0.137 C 
ATOM     12  C   UNL     1      35.090 -17.740 -23.141  0.00  0.00    +0.121 C 
ATOM     13  C   UNL     1      33.826 -14.583 -24.145  0.00  0.00    +0.145 C 
ATOM     14  C   UNL     1      34.280 -14.496 -21.815  0.00  0.00    +0.097 C 
ATOM     15  C   UNL     1      34.858 -17.899 -24.513  0.00  0.00    +0.103 C 
BRANCH  12  17
ATOM     16  N   UNL     1      36.588 -20.455 -20.261  0.00  0.00    -0.242 NA
ATOM     17  C   UNL     1      35.598 -18.659 -22.167  0.00  0.00    -0.007 C 
ATOM     18  C   UNL     1      34.756 -19.609 -21.593  0.00  0.00    +0.017 C 
ATOM     19  C   UNL     1      36.935 -18.610 -21.785  0.00  0.00    +0.017 C 
ATOM     20  C   UNL     1      35.295 -20.475 -20.655  0.00  0.00    +0.099 C 
ATOM     21  C   UNL     1      37.377 -19.521 -20.838  0.00  0.00    +0.099 C 
ENDBRANCH  12  17
ENDBRANCH   2  10
BRANCH   1  22
ATOM     22  O   UNL     1      31.939  -8.498 -23.042  0.00  0.00    -0.478 OA
BRANCH  22  23
ATOM     23  C   UNL     1      32.122  -7.757 -21.843  0.00  0.00    +0.183 C 
BRANCH  23  24
ATOM     24  C   UNL     1      32.306  -6.290 -22.199  0.00  0.00    -0.029 C 
BRANCH  24  25
ATOM     25  N   UNL     1      32.719  -6.145 -23.594  0.00  0.00    +0.389 N 
ATOM     26  C   UNL     1      32.321  -4.830 -24.115  0.00  0.00    -0.077 C 
ATOM     27  C   UNL     1      34.168  -6.352 -23.724  0.00  0.00    -0.077 C 
ATOM     28  C   UNL     1      32.703  -4.681 -25.588  0.00  0.00    -0.023 C 
ATOM     29  C   UNL     1      34.611  -6.252 -25.184  0.00  0.00    -0.023 C 
ATOM     30  C   UNL     1      34.194  -4.923 -25.802  0.00  0.00    -0.004 C 
ATOM     31  H   UNL     1      32.249  -6.859 -24.151  0.00  0.00    -0.080 HD
ENDBRANCH  24  25
ENDBRANCH  23  24
ENDBRANCH  22  23
ENDBRANCH   1  22
TORSDOF 6
ENDMDL
MODEL 5
REMARK VINA RESULT:     -11.4      6.118      9.901
REMARK  Name = 11524144
REMARK  6 active torsions:
REMARK  status: ('A' for Active; 'I' for Inactive)
REMARK    1  A    between atoms: C_1  and  O_22
REMARK    2  A    between atoms: C_2  and  C_10
REMARK    3  A    between atoms: C_12  and  C_17
REMARK    4  A    between atoms: O_22  and  C_23
REMARK    5  A    between atoms: C_23  and  C_24
REMARK    6  A    between atoms: C_24  and  N_25
REMARK                            x       y       z     vdW  Elec       q    Type
REMARK                         _______ _______ _______ _____ _____    ______ ____
ROOT
ATOM      1  C   UNL     1      34.243 -23.823 -16.315  0.00  0.00    +0.138 C 
ATOM      2  C   UNL     1      34.683 -22.132 -18.478  0.00  0.00    -0.001 C 
ATOM      3  C   UNL     1      35.488 -23.227 -16.480  0.00  0.00    +0.037 C 
ATOM      4  C   UNL     1      33.216 -23.582 -17.220  0.00  0.00    +0.037 C 
ATOM      5  C   UNL     1      35.709 -22.379 -17.566  0.00  0.00    +0.003 C 
ATOM      6  C   UNL     1      33.437 -22.734 -18.305  0.00  0.00    +0.003 C 
ENDROOT
BRANCH   2  10
ATOM      7  N   UNL     1      36.238 -19.790 -20.970  0.00  0.00    -0.193 N 
ATOM      8  N   UNL     1      33.953 -20.105 -21.639  0.00  0.00    -0.231 NA
ATOM      9  N   UNL     1      37.356 -19.117 -21.350  0.00  0.00    -0.179 NA
ATOM     10  C   UNL     1      34.916 -21.239 -19.622  0.00  0.00    +0.019 C 
ATOM     11  C   UNL     1      35.173 -19.535 -21.831  0.00  0.00    +0.137 C 
ATOM     12  C   UNL     1      35.647 -18.667 -22.789  0.00  0.00    +0.121 C 
ATOM     13  C   UNL     1      36.091 -20.640 -19.876  0.00  0.00    +0.145 C 
ATOM     14  C   UNL     1      33.846 -20.893 -20.611  0.00  0.00    +0.097 C 
ATOM     15  C   UNL     1      36.987 -18.448 -22.443  0.00  0.00    +0.103 C 
BRANCH  12  17
ATOM     16  N   UNL     1      33.339 -17.140 -25.990  0.00  0.00    -0.242 NA
ATOM     17  C   UNL     1      34.866 -18.150 -23.871  0.00  0.00    -0.007 C 
ATOM     18  C   UNL     1      34.151 -19.014 -24.696  0.00  0.00    +0.017 C 
ATOM     19  C   UNL     1      34.816 -16.779 -24.109  0.00  0.00    +0.017 C 
ATOM     20  C   UNL     1      33.410 -18.464 -25.730  0.00  0.00    +0.099 C 
ATOM     21  C   UNL     1      34.045 -16.330 -25.170  0.00  0.00    +0.099 C 
ENDBRANCH  12  17
ENDBRANCH   2  10
BRANCH   1  22
ATOM     22  O   UNL     1      34.026 -24.656 -15.249  0.00  0.00    -0.478 OA
BRANCH  22  23
ATOM     23  C   UNL     1      33.588 -24.050 -14.040  0.00  0.00    +0.183 C 
BRANCH  23  24
ATOM     24  C   UNL     1      34.358 -24.661 -12.880  0.00  0.00    -0.029 C 
BRANCH  24  25
ATOM     25  N   UNL     1      35.758 -24.239 -12.911  0.00  0.00    +0.389 N 
ATOM     26  C   UNL     1      36.141 -23.634 -11.627  0.00  0.00    -0.077 C 
ATOM     27  C   UNL     1      36.629 -25.374 -13.245  0.00  0.00    -0.077 C 
ATOM     28  C   UNL     1      37.589 -23.143 -11.659  0.00  0.00    -0.023 C 
ATOM     29  C   UNL     1      38.093 -24.940 -13.330  0.00  0.00    -0.023 C 
ATOM     30  C   UNL     1      38.548 -24.266 -12.040  0.00  0.00    -0.004 C 
ATOM     31  H   UNL     1      35.870 -23.532 -13.637  0.00  0.00    -0.080 HD
ENDBRANCH  24  25
ENDBRANCH  23  24
ENDBRANCH  22  23
ENDBRANCH   1  22
TORSDOF 6
ENDMDL
MODEL 6
REMARK VINA RESULT:     -11.2      3.352     11.999
REMARK  Name = 11524144
REMARK  6 active torsions:
REMARK  status: ('A' for Active; 'I' for Inactive)
REMARK    1  A    between atoms: C_1  and  O_22
REMARK    2  A    between atoms: C_2  and  C_10
REMARK    3  A    between atoms: C_12  and  C_17
REMARK    4  A    between atoms: O_22  and  C_23
REMARK    5  A    between atoms: C_23  and  C_24
REMARK    6  A    between atoms: C_24  and  N_25
REMARK                            x       y       z     vdW  Elec       q    Type
REMARK                         _______ _______ _______ _____ _____    ______ ____
ROOT
ATOM      1  C   UNL     1      35.077 -17.669 -23.872  0.00  0.00    +0.138 C 
ATOM      2  C   UNL     1      34.931 -19.446 -21.739  0.00  0.00    -0.001 C 
ATOM      3  C   UNL     1      35.637 -17.322 -22.648  0.00  0.00    +0.037 C 
ATOM      4  C   UNL     1      34.445 -18.896 -24.040  0.00  0.00    +0.037 C 
ATOM      5  C   UNL     1      35.564 -18.214 -21.577  0.00  0.00    +0.003 C 
ATOM      6  C   UNL     1      34.372 -19.787 -22.969  0.00  0.00    +0.003 C 
ENDROOT
BRANCH   2  10
ATOM      7  N   UNL     1      33.708 -21.826 -19.101  0.00  0.00    -0.193 N 
ATOM      8  N   UNL     1      36.077 -21.586 -18.781  0.00  0.00    -0.231 NA
ATOM      9  N   UNL     1      32.640 -22.474 -18.565  0.00  0.00    -0.179 NA
ATOM     10  C   UNL     1      34.854 -20.385 -20.610  0.00  0.00    +0.019 C 
ATOM     11  C   UNL     1      34.883 -22.126 -18.415  0.00  0.00    +0.137 C 
ATOM     12  C   UNL     1      34.533 -22.999 -17.409  0.00  0.00    +0.121 C 
ATOM     13  C   UNL     1      33.713 -20.957 -20.190  0.00  0.00    +0.145 C 
ATOM     14  C   UNL     1      36.050 -20.780 -19.800  0.00  0.00    +0.097 C 
ATOM     15  C   UNL     1      33.150 -23.174 -17.551  0.00  0.00    +0.103 C 
BRANCH  12  17
ATOM     16  N   UNL     1      37.253 -24.647 -14.619  0.00  0.00    -0.242 NA
ATOM     17  C   UNL     1      35.452 -23.556 -16.465  0.00  0.00    -0.007 C 
ATOM     18  C   UNL     1      36.692 -22.958 -16.254  0.00  0.00    +0.017 C 
ATOM     19  C   UNL     1      35.116 -24.702 -15.749  0.00  0.00    +0.017 C 
ATOM     20  C   UNL     1      37.547 -23.536 -15.330  0.00  0.00    +0.099 C 
ATOM     21  C   UNL     1      36.042 -25.202 -14.847  0.00  0.00    +0.099 C 
ENDBRANCH  12  17
ENDBRANCH   2  10
BRANCH   1  22
ATOM     22  O   UNL     1      35.149 -16.793 -24.924  0.00  0.00    -0.478 OA
BRANCH  22  23
ATOM     23  C   UNL     1      34.084 -16.832 -25.864  0.00  0.00    +0.183 C 
BRANCH  23  24
ATOM     24  C   UNL     1      33.024 -15.826 -25.443  0.00  0.00    -0.029 C 
BRANCH  24  25
ATOM     25  N   UNL     1      33.626 -14.516 -25.194  0.00  0.00    +0.389 N 
ATOM     26  C   UNL     1      33.157 -13.538 -26.185  0.00  0.00    -0.077 C 
ATOM     27  C   UNL     1      33.332 -14.069 -23.826  0.00  0.00    -0.077 C 
ATOM     28  C   UNL     1      33.814 -12.174 -25.969  0.00  0.00    -0.023 C 
ATOM     29  C   UNL     1      33.995 -12.722 -23.532  0.00  0.00    -0.023 C 
ATOM     30  C   UNL     1      33.582 -11.666 -24.550  0.00  0.00    -0.004 C 
ATOM     31  H   UNL     1      34.638 -14.598 -25.288  0.00  0.00    -0.080 HD
ENDBRANCH  24  25
ENDBRANCH  23  24
ENDBRANCH  22  23
ENDBRANCH   1  22
TORSDOF 6
ENDMDL
MODEL 7
REMARK VINA RESULT:     -11.2      6.172      9.839
REMARK  Name = 11524144
REMARK  6 active torsions:
REMARK  status: ('A' for Active; 'I' for Inactive)
REMARK    1  A    between atoms: C_1  and  O_22
REMARK    2  A    between atoms: C_2  and  C_10
REMARK    3  A    between atoms: C_12  and  C_17
REMARK    4  A    between atoms: O_22  and  C_23
REMARK    5  A    between atoms: C_23  and  C_24
REMARK    6  A    between atoms: C_24  and  N_25
REMARK                            x       y       z     vdW  Elec       q    Type
REMARK                         _______ _______ _______ _____ _____    ______ ____
ROOT
ATOM      1  C   UNL     1      34.515 -23.778 -16.259  0.00  0.00    +0.138 C 
ATOM      2  C   UNL     1      34.875 -22.105 -18.450  0.00  0.00    -0.001 C 
ATOM      3  C   UNL     1      35.720 -23.105 -16.420  0.00  0.00    +0.037 C 
ATOM      4  C   UNL     1      33.487 -23.623 -17.182  0.00  0.00    +0.037 C 
ATOM      5  C   UNL     1      35.901 -22.266 -17.519  0.00  0.00    +0.003 C 
ATOM      6  C   UNL     1      33.668 -22.784 -18.282  0.00  0.00    +0.003 C 
ENDROOT
BRANCH   2  10
ATOM      7  N   UNL     1      36.329 -19.761 -21.000  0.00  0.00    -0.193 N 
ATOM      8  N   UNL     1      34.039 -20.135 -21.621  0.00  0.00    -0.231 NA
ATOM      9  N   UNL     1      37.424 -19.068 -21.410  0.00  0.00    -0.179 NA
ATOM     10  C   UNL     1      35.066 -21.221 -19.609  0.00  0.00    +0.019 C 
ATOM     11  C   UNL     1      35.242 -19.540 -21.843  0.00  0.00    +0.137 C 
ATOM     12  C   UNL     1      35.679 -18.675 -22.821  0.00  0.00    +0.121 C 
ATOM     13  C   UNL     1      36.222 -20.600 -19.893  0.00  0.00    +0.145 C 
ATOM     14  C   UNL     1      33.970 -20.912 -20.582  0.00  0.00    +0.097 C 
ATOM     15  C   UNL     1      37.019 -18.422 -22.503  0.00  0.00    +0.103 C 
BRANCH  12  17
ATOM     16  N   UNL     1      33.273 -17.234 -25.991  0.00  0.00    -0.242 NA
ATOM     17  C   UNL     1      34.865 -18.188 -23.894  0.00  0.00    -0.007 C 
ATOM     18  C   UNL     1      34.821 -16.825 -24.178  0.00  0.00    +0.017 C 
ATOM     19  C   UNL     1      34.111 -19.072 -24.661  0.00  0.00    +0.017 C 
ATOM     20  C   UNL     1      34.018 -16.404 -25.226  0.00  0.00    +0.099 C 
ATOM     21  C   UNL     1      33.340 -18.550 -25.687  0.00  0.00    +0.099 C 
ENDBRANCH  12  17
ENDBRANCH   2  10
BRANCH   1  22
ATOM     22  O   UNL     1      34.336 -24.603 -15.178  0.00  0.00    -0.478 OA
BRANCH  22  23
ATOM     23  C   UNL     1      34.506 -24.021 -13.893  0.00  0.00    +0.183 C 
BRANCH  23  24
ATOM     24  C   UNL     1      35.492 -24.865 -13.100  0.00  0.00    -0.029 C 
BRANCH  24  25
ATOM     25  N   UNL     1      36.615 -25.274 -13.943  0.00  0.00    +0.389 N 
ATOM     26  C   UNL     1      37.709 -24.298 -13.851  0.00  0.00    -0.077 C 
ATOM     27  C   UNL     1      37.072 -26.621 -13.572  0.00  0.00    -0.077 C 
ATOM     28  C   UNL     1      38.873 -24.685 -14.764  0.00  0.00    -0.023 C 
ATOM     29  C   UNL     1      38.215 -27.084 -14.476  0.00  0.00    -0.023 C 
ATOM     30  C   UNL     1      39.373 -26.093 -14.459  0.00  0.00    -0.004 C 
ATOM     31  H   UNL     1      36.302 -25.305 -14.913  0.00  0.00    -0.080 HD
ENDBRANCH  24  25
ENDBRANCH  23  24
ENDBRANCH  22  23
ENDBRANCH   1  22
TORSDOF 6
ENDMDL
MODEL 8
REMARK VINA RESULT:     -10.7      3.021      5.250
REMARK  Name = 11524144
REMARK  6 active torsions:
REMARK  status: ('A' for Active; 'I' for Inactive)
REMARK    1  A    between atoms: C_1  and  O_22
REMARK    2  A    between atoms: C_2  and  C_10
REMARK    3  A    between atoms: C_12  and  C_17
REMARK    4  A    between atoms: O_22  and  C_23
REMARK    5  A    between atoms: C_23  and  C_24
REMARK    6  A    between atoms: C_24  and  N_25
REMARK                            x       y       z     vdW  Elec       q    Type
REMARK                         _______ _______ _______ _____ _____    ______ ____
ROOT
ATOM      1  C   UNL     1      36.252 -20.756 -20.297  0.00  0.00    +0.138 C 
ATOM      2  C   UNL     1      35.416 -18.468 -21.636  0.00  0.00    -0.001 C 
ATOM      3  C   UNL     1      37.186 -19.796 -20.669  0.00  0.00    +0.037 C 
ATOM      4  C   UNL     1      34.904 -20.582 -20.587  0.00  0.00    +0.037 C 
ATOM      5  C   UNL     1      36.767 -18.648 -21.341  0.00  0.00    +0.003 C 
ATOM      6  C   UNL     1      34.485 -19.434 -21.259  0.00  0.00    +0.003 C 
ENDROOT
BRANCH   2  10
ATOM      7  N   UNL     1      34.168 -16.063 -24.239  0.00  0.00    -0.193 N 
ATOM      8  N   UNL     1      34.611 -14.779 -22.258  0.00  0.00    -0.231 NA
ATOM      9  N   UNL     1      33.729 -15.900 -25.515  0.00  0.00    -0.179 NA
ATOM     10  C   UNL     1      34.974 -17.258 -22.345  0.00  0.00    +0.019 C 
ATOM     11  C   UNL     1      34.201 -14.851 -23.553  0.00  0.00    +0.137 C 
ATOM     12  C   UNL     1      33.762 -13.892 -24.438  0.00  0.00    +0.121 C 
ATOM     13  C   UNL     1      34.557 -17.250 -23.622  0.00  0.00    +0.145 C 
ATOM     14  C   UNL     1      34.967 -15.902 -21.709  0.00  0.00    +0.097 C 
ATOM     15  C   UNL     1      33.489 -14.593 -25.620  0.00  0.00    +0.103 C 
BRANCH  12  17
ATOM     16  N   UNL     1      33.411  -9.775 -23.527  0.00  0.00    -0.242 NA
ATOM     17  C   UNL     1      33.644 -12.499 -24.130  0.00  0.00    -0.007 C 
ATOM     18  C   UNL     1      32.787 -12.075 -23.117  0.00  0.00    +0.017 C 
ATOM     19  C   UNL     1      34.383 -11.557 -24.840  0.00  0.00    +0.017 C 
ATOM     20  C   UNL     1      32.708 -10.716 -22.858  0.00  0.00    +0.099 C 
ATOM     21  C   UNL     1      34.232 -10.221 -24.503  0.00  0.00    +0.099 C 
ENDBRANCH  12  17
ENDBRANCH   2  10
BRANCH   1  22
ATOM     22  O   UNL     1      36.665 -21.884 -19.636  0.00  0.00    -0.478 OA
BRANCH  22  23
ATOM     23  C   UNL     1      36.005 -22.188 -18.414  0.00  0.00    +0.183 C 
BRANCH  23  24
ATOM     24  C   UNL     1      36.992 -22.020 -17.270  0.00  0.00    -0.029 C 
BRANCH  24  25
ATOM     25  N   UNL     1      36.404 -22.472 -16.010  0.00  0.00    +0.389 N 
ATOM     26  C   UNL     1      35.136 -23.173 -16.257  0.00  0.00    -0.077 C 
ATOM     27  C   UNL     1      37.350 -23.327 -15.279  0.00  0.00    -0.077 C 
ATOM     28  C   UNL     1      34.482 -23.610 -14.945  0.00  0.00    -0.023 C 
ATOM     29  C   UNL     1      36.768 -23.769 -13.935  0.00  0.00    -0.023 C 
ATOM     30  C   UNL     1      35.427 -24.471 -14.114  0.00  0.00    -0.004 C 
ATOM     31  H   UNL     1      36.204 -21.657 -15.431  0.00  0.00    -0.080 HD
ENDBRANCH  24  25
ENDBRANCH  23  24
ENDBRANCH  22  23
ENDBRANCH   1  22
TORSDOF 6
ENDMDL
MODEL 9
REMARK VINA RESULT:     -10.6      3.255      6.103
REMARK  Name = 11524144
REMARK  6 active torsions:
REMARK  status: ('A' for Active; 'I' for Inactive)
REMARK    1  A    between atoms: C_1  and  O_22
REMARK    2  A    between atoms: C_2  and  C_10
REMARK    3  A    between atoms: C_12  and  C_17
REMARK    4  A    between atoms: O_22  and  C_23
REMARK    5  A    between atoms: C_23  and  C_24
REMARK    6  A    between atoms: C_24  and  N_25
REMARK                            x       y       z     vdW  Elec       q    Type
REMARK                         _______ _______ _______ _____ _____    ______ ____
ROOT
ATOM      1  C   UNL     1      36.358 -21.341 -19.537  0.00  0.00    +0.138 C 
ATOM      2  C   UNL     1      35.533 -19.369 -21.313  0.00  0.00    -0.001 C 
ATOM      3  C   UNL     1      37.274 -20.403 -19.996  0.00  0.00    +0.037 C 
ATOM      4  C   UNL     1      35.033 -21.303 -19.956  0.00  0.00    +0.037 C 
ATOM      5  C   UNL     1      36.861 -19.413 -20.888  0.00  0.00    +0.003 C 
ATOM      6  C   UNL     1      34.620 -20.314 -20.848  0.00  0.00    +0.003 C 
ENDROOT
BRANCH   2  10
ATOM      7  N   UNL     1      34.280 -17.538 -24.346  0.00  0.00    -0.193 N 
ATOM      8  N   UNL     1      34.770 -15.877 -22.680  0.00  0.00    -0.231 NA
ATOM      9  N   UNL     1      33.823 -17.637 -25.622  0.00  0.00    -0.179 NA
ATOM     10  C   UNL     1      35.097 -18.326 -22.254  0.00  0.00    +0.019 C 
ATOM     11  C   UNL     1      34.340 -16.211 -23.928  0.00  0.00    +0.137 C 
ATOM     12  C   UNL     1      33.901 -15.449 -24.987  0.00  0.00    +0.121 C 
ATOM     13  C   UNL     1      34.662 -18.577 -23.499  0.00  0.00    +0.145 C 
ATOM     14  C   UNL     1      35.119 -16.868 -21.914  0.00  0.00    +0.097 C 
ATOM     15  C   UNL     1      33.600 -16.376 -25.994  0.00  0.00    +0.103 C 
BRANCH  12  17
ATOM     16  N   UNL     1      33.626 -11.227 -24.953  0.00  0.00    -0.242 NA
ATOM     17  C   UNL     1      33.807 -14.021 -24.975  0.00  0.00    -0.007 C 
ATOM     18  C   UNL     1      33.620 -13.320 -26.164  0.00  0.00    +0.017 C 
ATOM     19  C   UNL     1      33.904 -13.321 -23.776  0.00  0.00    +0.017 C 
ATOM     20  C   UNL     1      33.536 -11.938 -26.099  0.00  0.00    +0.099 C 
ATOM     21  C   UNL     1      33.807 -11.939 -23.818  0.00  0.00    +0.099 C 
ENDBRANCH  12  17
ENDBRANCH   2  10
BRANCH   1  22
ATOM     22  O   UNL     1      36.765 -22.314 -18.660  0.00  0.00    -0.478 OA
BRANCH  22  23
ATOM     23  C   UNL     1      36.709 -21.994 -17.277  0.00  0.00    +0.183 C 
BRANCH  23  24
ATOM     24  C   UNL     1      36.127 -23.180 -16.524  0.00  0.00    -0.029 C 
BRANCH  24  25
ATOM     25  N   UNL     1      34.714 -22.956 -16.219  0.00  0.00    +0.389 N 
ATOM     26  C   UNL     1      33.871 -23.384 -17.344  0.00  0.00    -0.077 C 
ATOM     27  C   UNL     1      34.340 -23.651 -14.980  0.00  0.00    -0.077 C 
ATOM     28  C   UNL     1      32.393 -23.111 -17.062  0.00  0.00    -0.023 C 
ATOM     29  C   UNL     1      32.877 -23.387 -14.620  0.00  0.00    -0.023 C 
ATOM     30  C   UNL     1      31.945 -23.773 -15.763  0.00  0.00    -0.004 C 
ATOM     31  H   UNL     1      34.565 -21.957 -16.077  0.00  0.00    -0.080 HD
ENDBRANCH  24  25
ENDBRANCH  23  24
ENDBRANCH  22  23
ENDBRANCH   1  22
TORSDOF 6
ENDMDL
