MODEL 1
REMARK VINA RESULT:     -12.0      0.000      0.000
REMARK  Name = 44814409
REMARK  5 active torsions:
REMARK  status: ('A' for Active; 'I' for Inactive)
REMARK    1  A    between atoms: N_2  and  C_22
REMARK    2  A    between atoms: C_3  and  C_7
REMARK    3  A    between atoms: C_9  and  C_14
REMARK    4  A    between atoms: C_21  and  C_26
REMARK    5  A    between atoms: C_29  and  N_33
REMARK                            x       y       z     vdW  Elec       q    Type
REMARK                         _______ _______ _______ _____ _____    ______ ____
ROOT
ATOM      1  O   UNL     1      32.686 -22.143 -19.699  0.00  0.00    -0.267 OA
ATOM      2  N   UNL     1      33.849 -22.452 -17.679  0.00  0.00    -0.278 N 
ATOM      3  C   UNL     1      33.693 -22.033 -19.007  0.00  0.00    +0.275 C 
ATOM      4  H   UNL     1      34.731 -22.282 -17.274  0.00  0.00    +0.155 HD
ENDROOT
BRANCH   3   7
ATOM      5  F   UNL     1      38.015 -19.433 -21.332  0.00  0.00    -0.202 F 
ATOM      6  N   UNL     1      34.607 -20.370 -20.484  0.00  0.00    -0.399 NA
ATOM      7  C   UNL     1      34.876 -21.363 -19.607  0.00  0.00    +0.167 C 
ATOM      8  C   UNL     1      36.156 -21.766 -19.261  0.00  0.00    +0.092 C 
ATOM      9  C   UNL     1      35.674 -19.751 -21.036  0.00  0.00    +0.162 C 
ATOM     10  C   UNL     1      37.228 -21.106 -19.851  0.00  0.00    +0.014 C 
ATOM     11  C   UNL     1      36.991 -20.078 -20.757  0.00  0.00    +0.166 C 
BRANCH   9  14
ATOM     12  F   UNL     1      35.054 -20.274 -23.721  0.00  0.00    -0.204 F 
ATOM     13  F   UNL     1      35.624 -17.055 -20.266  0.00  0.00    -0.204 F 
ATOM     14  C   UNL     1      35.348 -18.695 -21.966  0.00  0.00    +0.087 C 
ATOM     15  C   UNL     1      35.047 -19.003 -23.293  0.00  0.00    +0.145 C 
ATOM     16  C   UNL     1      35.335 -17.368 -21.537  0.00  0.00    +0.145 C 
ATOM     17  C   UNL     1      34.731 -17.982 -24.190  0.00  0.00    +0.030 C 
ATOM     18  C   UNL     1      35.020 -16.347 -22.435  0.00  0.00    +0.030 C 
ATOM     19  C   UNL     1      34.719 -16.655 -23.762  0.00  0.00    +0.005 C 
ENDBRANCH   9  14
ENDBRANCH   3   7
BRANCH   2  22
ATOM     20  N   UNL     1      30.588 -23.598 -16.433  0.00  0.00    -0.241 NA
ATOM     21  C   UNL     1      33.284 -23.782 -15.720  0.00  0.00    -0.006 C 
ATOM     22  C   UNL     1      32.911 -23.080 -16.860  0.00  0.00    +0.066 C 
ATOM     23  C   UNL     1      32.312 -24.393 -14.936  0.00  0.00    +0.018 C 
ATOM     24  C   UNL     1      31.562 -23.018 -17.171  0.00  0.00    +0.113 C 
ATOM     25  C   UNL     1      30.990 -24.272 -15.333  0.00  0.00    +0.099 C 
BRANCH  21  26
ATOM     26  C   UNL     1      34.719 -23.898 -15.316  0.00  0.00    +0.022 C 
ATOM     27  C   UNL     1      36.657 -25.517 -15.024  0.00  0.00    -0.002 C 
ATOM     28  C   UNL     1      35.203 -25.350 -15.488  0.00  0.00    +0.004 C 
ATOM     29  C   UNL     1      36.354 -23.590 -13.402  0.00  0.00    -0.065 C 
ATOM     30  C   UNL     1      34.899 -23.425 -13.862  0.00  0.00    -0.017 C 
ATOM     31  C   UNL     1      36.828 -25.038 -13.575  0.00  0.00    -0.022 C 
ATOM     32  C   UNL     1      37.102 -26.972 -15.167  0.00  0.00    -0.000 C 
BRANCH  29  33
ATOM     33  N   UNL     1      36.478 -23.191 -12.002  0.00  0.00    +0.382 N 
ATOM     34  H   UNL     1      36.908 -23.947 -11.469  0.00  0.00    -0.089 HD
ATOM     35  H   UNL     1      35.552 -22.991 -11.622  0.00  0.00    -0.089 HD
ATOM     36  H   UNL     1      37.060 -22.356 -11.937  0.00  0.00    -0.089 HD
ENDBRANCH  29  33
ENDBRANCH  21  26
ENDBRANCH   2  22
TORSDOF 5
ENDMDL
MODEL 2
REMARK VINA RESULT:     -12.0      0.004      1.464
REMARK  Name = 44814409
REMARK  5 active torsions:
REMARK  status: ('A' for Active; 'I' for Inactive)
REMARK    1  A    between atoms: N_2  and  C_22
REMARK    2  A    between atoms: C_3  and  C_7
REMARK    3  A    between atoms: C_9  and  C_14
REMARK    4  A    between atoms: C_21  and  C_26
REMARK    5  A    between atoms: C_29  and  N_33
REMARK                            x       y       z     vdW  Elec       q    Type
REMARK                         _______ _______ _______ _____ _____    ______ ____
ROOT
ATOM      1  O   UNL     1      32.690 -22.147 -19.704  0.00  0.00    -0.267 OA
ATOM      2  N   UNL     1      33.849 -22.449 -17.680  0.00  0.00    -0.278 N 
ATOM      3  C   UNL     1      33.694 -22.033 -19.010  0.00  0.00    +0.275 C 
ATOM      4  H   UNL     1      34.730 -22.276 -17.274  0.00  0.00    +0.155 HD
ENDROOT
BRANCH   3   7
ATOM      5  F   UNL     1      38.016 -19.431 -21.332  0.00  0.00    -0.202 F 
ATOM      6  N   UNL     1      34.609 -20.369 -20.486  0.00  0.00    -0.399 NA
ATOM      7  C   UNL     1      34.878 -21.362 -19.610  0.00  0.00    +0.167 C 
ATOM      8  C   UNL     1      36.158 -21.765 -19.262  0.00  0.00    +0.092 C 
ATOM      9  C   UNL     1      35.676 -19.749 -21.037  0.00  0.00    +0.162 C 
ATOM     10  C   UNL     1      37.230 -21.104 -19.852  0.00  0.00    +0.014 C 
ATOM     11  C   UNL     1      36.993 -20.075 -20.757  0.00  0.00    +0.166 C 
BRANCH   9  14
ATOM     12  F   UNL     1      35.621 -17.054 -20.264  0.00  0.00    -0.204 F 
ATOM     13  F   UNL     1      35.060 -20.271 -23.723  0.00  0.00    -0.204 F 
ATOM     14  C   UNL     1      35.350 -18.693 -21.967  0.00  0.00    +0.087 C 
ATOM     15  C   UNL     1      35.334 -17.366 -21.537  0.00  0.00    +0.145 C 
ATOM     16  C   UNL     1      35.050 -19.000 -23.294  0.00  0.00    +0.145 C 
ATOM     17  C   UNL     1      35.020 -16.346 -22.436  0.00  0.00    +0.030 C 
ATOM     18  C   UNL     1      34.735 -17.981 -24.193  0.00  0.00    +0.030 C 
ATOM     19  C   UNL     1      34.720 -16.654 -23.762  0.00  0.00    +0.005 C 
ENDBRANCH   9  14
ENDBRANCH   3   7
BRANCH   2  22
ATOM     20  N   UNL     1      30.587 -23.593 -16.436  0.00  0.00    -0.241 NA
ATOM     21  C   UNL     1      33.284 -23.780 -15.723  0.00  0.00    -0.006 C 
ATOM     22  C   UNL     1      32.910 -23.076 -16.862  0.00  0.00    +0.066 C 
ATOM     23  C   UNL     1      32.310 -24.390 -14.939  0.00  0.00    +0.018 C 
ATOM     24  C   UNL     1      31.562 -23.013 -17.173  0.00  0.00    +0.113 C 
ATOM     25  C   UNL     1      30.988 -24.268 -15.336  0.00  0.00    +0.099 C 
BRANCH  21  26
ATOM     26  C   UNL     1      34.718 -23.896 -15.319  0.00  0.00    +0.022 C 
ATOM     27  C   UNL     1      36.655 -25.517 -15.027  0.00  0.00    -0.002 C 
ATOM     28  C   UNL     1      35.200 -25.349 -15.491  0.00  0.00    +0.004 C 
ATOM     29  C   UNL     1      36.353 -23.591 -13.405  0.00  0.00    -0.065 C 
ATOM     30  C   UNL     1      34.898 -23.424 -13.865  0.00  0.00    -0.017 C 
ATOM     31  C   UNL     1      36.826 -25.039 -13.577  0.00  0.00    -0.022 C 
ATOM     32  C   UNL     1      37.098 -26.973 -15.169  0.00  0.00    -0.000 C 
BRANCH  29  33
ATOM     33  N   UNL     1      36.478 -23.191 -12.005  0.00  0.00    +0.382 N 
ATOM     34  H   UNL     1      35.789 -22.470 -11.793  0.00  0.00    -0.089 HD
ATOM     35  H   UNL     1      37.416 -22.824 -11.838  0.00  0.00    -0.089 HD
ATOM     36  H   UNL     1      36.319 -24.000 -11.405  0.00  0.00    -0.089 HD
ENDBRANCH  29  33
ENDBRANCH  21  26
ENDBRANCH   2  22
TORSDOF 5
ENDMDL
MODEL 3
REMARK VINA RESULT:     -11.0      1.187      1.630
REMARK  Name = 44814409
REMARK  5 active torsions:
REMARK  status: ('A' for Active; 'I' for Inactive)
REMARK    1  A    between atoms: N_2  and  C_22
REMARK    2  A    between atoms: C_3  and  C_7
REMARK    3  A    between atoms: C_9  and  C_14
REMARK    4  A    between atoms: C_21  and  C_26
REMARK    5  A    between atoms: C_29  and  N_33
REMARK                            x       y       z     vdW  Elec       q    Type
REMARK                         _______ _______ _______ _____ _____    ______ ____
ROOT
ATOM      1  O   UNL     1      32.661 -22.231 -19.720  0.00  0.00    -0.267 OA
ATOM      2  N   UNL     1      33.771 -22.452 -17.659  0.00  0.00    -0.278 N 
ATOM      3  C   UNL     1      33.646 -22.082 -19.005  0.00  0.00    +0.275 C 
ATOM      4  H   UNL     1      34.639 -22.256 -17.236  0.00  0.00    +0.155 HD
ENDROOT
BRANCH   3   7
ATOM      5  F   UNL     1      37.999 -19.503 -21.295  0.00  0.00    -0.202 F 
ATOM      6  N   UNL     1      34.580 -20.408 -20.456  0.00  0.00    -0.399 NA
ATOM      7  C   UNL     1      34.838 -21.419 -19.597  0.00  0.00    +0.167 C 
ATOM      8  C   UNL     1      36.113 -21.844 -19.259  0.00  0.00    +0.092 C 
ATOM      9  C   UNL     1      35.655 -19.795 -21.001  0.00  0.00    +0.162 C 
ATOM     10  C   UNL     1      37.192 -21.188 -19.840  0.00  0.00    +0.014 C 
ATOM     11  C   UNL     1      36.968 -20.143 -20.729  0.00  0.00    +0.166 C 
BRANCH   9  14
ATOM     12  F   UNL     1      35.039 -20.265 -23.696  0.00  0.00    -0.204 F 
ATOM     13  F   UNL     1      35.627 -17.112 -20.183  0.00  0.00    -0.204 F 
ATOM     14  C   UNL     1      35.341 -18.719 -21.913  0.00  0.00    +0.087 C 
ATOM     15  C   UNL     1      35.041 -19.001 -23.246  0.00  0.00    +0.145 C 
ATOM     16  C   UNL     1      35.339 -17.400 -21.461  0.00  0.00    +0.145 C 
ATOM     17  C   UNL     1      34.738 -17.962 -24.126  0.00  0.00    +0.030 C 
ATOM     18  C   UNL     1      35.036 -16.361 -22.342  0.00  0.00    +0.030 C 
ATOM     19  C   UNL     1      34.737 -16.643 -23.675  0.00  0.00    +0.005 C 
ENDBRANCH   9  14
ENDBRANCH   3   7
BRANCH   2  22
ATOM     20  N   UNL     1      30.502 -23.664 -16.501  0.00  0.00    -0.241 NA
ATOM     21  C   UNL     1      33.160 -23.657 -15.634  0.00  0.00    -0.006 C 
ATOM     22  C   UNL     1      32.818 -23.062 -16.843  0.00  0.00    +0.066 C 
ATOM     23  C   UNL     1      32.174 -24.255 -14.857  0.00  0.00    +0.018 C 
ATOM     24  C   UNL     1      31.488 -23.093 -17.229  0.00  0.00    +0.113 C 
ATOM     25  C   UNL     1      30.872 -24.232 -15.331  0.00  0.00    +0.099 C 
BRANCH  21  26
ATOM     26  C   UNL     1      34.573 -23.669 -15.148  0.00  0.00    +0.022 C 
ATOM     27  C   UNL     1      36.859 -22.590 -15.423  0.00  0.00    -0.002 C 
ATOM     28  C   UNL     1      35.385 -22.566 -15.854  0.00  0.00    +0.004 C 
ATOM     29  C   UNL     1      36.674 -25.074 -14.949  0.00  0.00    -0.065 C 
ATOM     30  C   UNL     1      35.203 -25.053 -15.385  0.00  0.00    -0.017 C 
ATOM     31  C   UNL     1      37.476 -23.976 -15.657  0.00  0.00    -0.022 C 
ATOM     32  C   UNL     1      37.652 -21.514 -16.164  0.00  0.00    -0.000 C 
BRANCH  29  33
ATOM     33  N   UNL     1      37.258 -26.382 -15.242  0.00  0.00    +0.382 N 
ATOM     34  H   UNL     1      37.269 -26.532 -16.251  0.00  0.00    -0.089 HD
ATOM     35  H   UNL     1      36.700 -27.111 -14.797  0.00  0.00    -0.089 HD
ATOM     36  H   UNL     1      38.212 -26.417 -14.883  0.00  0.00    -0.089 HD
ENDBRANCH  29  33
ENDBRANCH  21  26
ENDBRANCH   2  22
TORSDOF 5
ENDMDL
MODEL 4
REMARK VINA RESULT:      -9.5      4.288      8.377
REMARK  Name = 44814409
REMARK  5 active torsions:
REMARK  status: ('A' for Active; 'I' for Inactive)
REMARK    1  A    between atoms: N_2  and  C_22
REMARK    2  A    between atoms: C_3  and  C_7
REMARK    3  A    between atoms: C_9  and  C_14
REMARK    4  A    between atoms: C_21  and  C_26
REMARK    5  A    between atoms: C_29  and  N_33
REMARK                            x       y       z     vdW  Elec       q    Type
REMARK                         _______ _______ _______ _____ _____    ______ ____
ROOT
ATOM      1  O   UNL     1      37.428 -21.096 -16.740  0.00  0.00    -0.267 OA
ATOM      2  N   UNL     1      36.084 -22.849 -17.547  0.00  0.00    -0.278 N 
ATOM      3  C   UNL     1      37.081 -22.273 -16.749  0.00  0.00    +0.275 C 
ATOM      4  H   UNL     1      35.935 -23.814 -17.422  0.00  0.00    +0.155 HD
ENDROOT
BRANCH   3   7
ATOM      5  F   UNL     1      39.482 -25.706 -13.104  0.00  0.00    -0.202 F 
ATOM      6  N   UNL     1      37.175 -23.322 -14.587  0.00  0.00    -0.399 NA
ATOM      7  C   UNL     1      37.754 -23.200 -15.802  0.00  0.00    +0.167 C 
ATOM      8  C   UNL     1      38.903 -23.875 -16.185  0.00  0.00    +0.092 C 
ATOM      9  C   UNL     1      37.776 -24.164 -13.717  0.00  0.00    +0.162 C 
ATOM     10  C   UNL     1      39.492 -24.731 -15.262  0.00  0.00    +0.014 C 
ATOM     11  C   UNL     1      38.924 -24.884 -14.002  0.00  0.00    +0.166 C 
BRANCH   9  14
ATOM     12  F   UNL     1      37.973 -22.143 -11.783  0.00  0.00    -0.204 F 
ATOM     13  F   UNL     1      36.247 -26.404 -13.003  0.00  0.00    -0.204 F 
ATOM     14  C   UNL     1      37.128 -24.270 -12.430  0.00  0.00    +0.087 C 
ATOM     15  C   UNL     1      37.254 -23.239 -11.499  0.00  0.00    +0.145 C 
ATOM     16  C   UNL     1      36.376 -25.403 -12.119  0.00  0.00    +0.145 C 
ATOM     17  C   UNL     1      36.628 -23.342 -10.257  0.00  0.00    +0.030 C 
ATOM     18  C   UNL     1      35.751 -25.506 -10.877  0.00  0.00    +0.030 C 
ATOM     19  C   UNL     1      35.877 -24.475  -9.946  0.00  0.00    +0.005 C 
ENDBRANCH   9  14
ENDBRANCH   3   7
BRANCH   2  22
ATOM     20  N   UNL     1      35.134 -20.792 -20.440  0.00  0.00    -0.241 NA
ATOM     21  C   UNL     1      33.893 -22.371 -18.495  0.00  0.00    -0.006 C 
ATOM     22  C   UNL     1      35.275 -22.224 -18.497  0.00  0.00    +0.066 C 
ATOM     23  C   UNL     1      33.130 -21.729 -19.464  0.00  0.00    +0.018 C 
ATOM     24  C   UNL     1      35.842 -21.432 -19.482  0.00  0.00    +0.113 C 
ATOM     25  C   UNL     1      33.793 -20.959 -20.406  0.00  0.00    +0.099 C 
BRANCH  21  26
ATOM     26  C   UNL     1      33.204 -23.210 -17.467  0.00  0.00    +0.022 C 
ATOM     27  C   UNL     1      31.003 -23.593 -16.254  0.00  0.00    -0.002 C 
ATOM     28  C   UNL     1      31.727 -22.791 -17.346  0.00  0.00    +0.004 C 
ATOM     29  C   UNL     1      33.202 -23.889 -15.024  0.00  0.00    -0.065 C 
ATOM     30  C   UNL     1      33.925 -23.084 -16.113  0.00  0.00    -0.017 C 
ATOM     31  C   UNL     1      31.733 -23.466 -14.908  0.00  0.00    -0.022 C 
ATOM     32  C   UNL     1      29.551 -23.134 -16.125  0.00  0.00    -0.000 C 
BRANCH  29  33
ATOM     33  N   UNL     1      33.875 -23.701 -13.741  0.00  0.00    +0.382 N 
ATOM     34  H   UNL     1      33.885 -22.709 -13.503  0.00  0.00    -0.089 HD
ATOM     35  H   UNL     1      34.834 -24.044 -13.806  0.00  0.00    -0.089 HD
ATOM     36  H   UNL     1      33.378 -24.218 -13.016  0.00  0.00    -0.089 HD
ENDBRANCH  29  33
ENDBRANCH  21  26
ENDBRANCH   2  22
TORSDOF 5
ENDMDL
