MODEL 1
REMARK VINA RESULT:     -12.0      0.000      0.000
REMARK  Name = 90311989
REMARK  4 active torsions:
REMARK  status: ('A' for Active; 'I' for Inactive)
REMARK    1  A    between atoms: C_16  and  O_33
REMARK    2  A    between atoms: C_17  and  C_21
REMARK    3  A    between atoms: N_20  and  C_23
REMARK    4  A    between atoms: C_23  and  C_27
REMARK                            x       y       z     vdW  Elec       q    Type
REMARK                         _______ _______ _______ _____ _____    ______ ____
ROOT
ATOM      1  O   UNL     1      38.590 -24.085 -14.111  0.00  0.00    -0.339 OA
ATOM      2  O   UNL     1      34.524 -24.998 -11.865  0.00  0.00    -0.268 OA
ATOM      3  O   UNL     1      31.135 -24.203 -15.583  0.00  0.00    -0.283 OA
ATOM      4  N   UNL     1      36.521 -24.673 -12.982  0.00  0.00    -0.253 N 
ATOM      5  N   UNL     1      35.105 -23.525 -15.117  0.00  0.00    -0.275 N 
ATOM      6  C   UNL     1      37.339 -25.220 -11.889  0.00  0.00    +0.080 C 
ATOM      7  C   UNL     1      39.282 -24.742 -13.044  0.00  0.00    +0.119 C 
ATOM      8  C   UNL     1      38.593 -24.371 -11.742  0.00  0.00    +0.049 C 
ATOM      9  C   UNL     1      37.900 -26.590 -12.290  0.00  0.00    +0.022 C 
ATOM     10  C   UNL     1      39.151 -26.268 -13.122  0.00  0.00    +0.031 C 
ATOM     11  C   UNL     1      37.197 -24.408 -14.257  0.00  0.00    +0.215 C 
ATOM     12  C   UNL     1      36.528 -23.240 -14.957  0.00  0.00    +0.147 C 
ATOM     13  C   UNL     1      35.129 -24.665 -12.883  0.00  0.00    +0.267 C 
ATOM     14  C   UNL     1      34.390 -24.202 -14.120  0.00  0.00    +0.143 C 
ATOM     15  C   UNL     1      34.423 -23.066 -16.235  0.00  0.00    +0.074 C 
ATOM     16  C   UNL     1      33.066 -24.456 -14.220  0.00  0.00    +0.191 C 
ATOM     17  C   UNL     1      33.117 -23.244 -16.463  0.00  0.00    +0.110 C 
ATOM     18  C   UNL     1      32.334 -23.986 -15.440  0.00  0.00    +0.236 C 
ENDROOT
BRANCH  17  21
ATOM     19  O   UNL     1      31.318 -22.623 -17.839  0.00  0.00    -0.270 OA
ATOM     20  N   UNL     1      33.494 -22.313 -18.617  0.00  0.00    -0.297 N 
ATOM     21  C   UNL     1      32.538 -22.703 -17.693  0.00  0.00    +0.251 C 
ATOM     22  H   UNL     1      34.443 -22.428 -18.382  0.00  0.00    +0.150 HD
BRANCH  20  23
ATOM     23  C   UNL     1      33.170 -21.749 -19.908  0.00  0.00    +0.121 C 
BRANCH  23  27
ATOM     24  F   UNL     1      35.858 -22.045 -19.076  0.00  0.00    -0.204 F 
ATOM     25  F   UNL     1      32.777 -19.734 -21.852  0.00  0.00    -0.204 F 
ATOM     26  F   UNL     1      37.368 -18.596 -21.941  0.00  0.00    -0.204 F 
ATOM     27  C   UNL     1      34.290 -20.910 -20.451  0.00  0.00    +0.053 C 
ATOM     28  C   UNL     1      35.594 -21.107 -19.996  0.00  0.00    +0.142 C 
ATOM     29  C   UNL     1      34.027 -19.931 -21.409  0.00  0.00    +0.142 C 
ATOM     30  C   UNL     1      36.634 -20.325 -20.500  0.00  0.00    +0.059 C 
ATOM     31  C   UNL     1      35.066 -19.150 -21.913  0.00  0.00    +0.059 C 
ATOM     32  C   UNL     1      36.370 -19.347 -21.458  0.00  0.00    +0.145 C 
ENDBRANCH  23  27
ENDBRANCH  20  23
ENDBRANCH  17  21
BRANCH  16  33
ATOM     33  O   UNL     1      32.335 -25.136 -13.271  0.00  0.00    -0.502 OA
ATOM     34  H   UNL     1      31.772 -24.665 -12.688  0.00  0.00    +0.292 HD
ENDBRANCH  16  33
TORSDOF 4
ENDMDL
MODEL 2
REMARK VINA RESULT:     -11.8      3.115      4.871
REMARK  Name = 90311989
REMARK  4 active torsions:
REMARK  status: ('A' for Active; 'I' for Inactive)
REMARK    1  A    between atoms: C_16  and  O_33
REMARK    2  A    between atoms: C_17  and  C_21
REMARK    3  A    between atoms: N_20  and  C_23
REMARK    4  A    between atoms: C_23  and  C_27
REMARK                            x       y       z     vdW  Elec       q    Type
REMARK                         _______ _______ _______ _____ _____    ______ ____
ROOT
ATOM      1  O   UNL     1      37.975 -23.557 -14.930  0.00  0.00    -0.339 OA
ATOM      2  O   UNL     1      33.520 -23.556 -16.531  0.00  0.00    -0.268 OA
ATOM      3  O   UNL     1      34.058 -21.102 -20.962  0.00  0.00    -0.283 OA
ATOM      4  N   UNL     1      35.709 -23.669 -15.797  0.00  0.00    -0.253 N 
ATOM      5  N   UNL     1      36.428 -21.778 -17.742  0.00  0.00    -0.275 N 
ATOM      6  C   UNL     1      35.405 -24.628 -14.723  0.00  0.00    +0.080 C 
ATOM      7  C   UNL     1      37.598 -24.575 -13.997  0.00  0.00    +0.119 C 
ATOM      8  C   UNL     1      36.206 -24.249 -13.486  0.00  0.00    +0.049 C 
ATOM      9  C   UNL     1      35.968 -26.010 -15.082  0.00  0.00    +0.022 C 
ATOM     10  C   UNL     1      37.446 -25.946 -14.666  0.00  0.00    +0.031 C 
ATOM     11  C   UNL     1      37.123 -23.403 -16.078  0.00  0.00    +0.215 C 
ATOM     12  C   UNL     1      37.285 -21.979 -16.579  0.00  0.00    +0.147 C 
ATOM     13  C   UNL     1      34.704 -23.250 -16.670  0.00  0.00    +0.267 C 
ATOM     14  C   UNL     1      35.158 -22.368 -17.812  0.00  0.00    +0.143 C 
ATOM     15  C   UNL     1      36.833 -20.939 -18.770  0.00  0.00    +0.074 C 
ATOM     16  C   UNL     1      34.325 -22.178 -18.859  0.00  0.00    +0.191 C 
ATOM     17  C   UNL     1      36.111 -20.661 -19.863  0.00  0.00    +0.110 C 
ATOM     18  C   UNL     1      34.772 -21.295 -19.984  0.00  0.00    +0.236 C 
ENDROOT
BRANCH  17  21
ATOM     19  O   UNL     1      37.885 -19.528 -20.906  0.00  0.00    -0.270 OA
ATOM     20  N   UNL     1      35.719 -19.222 -21.713  0.00  0.00    -0.297 N 
ATOM     21  C   UNL     1      36.675 -19.756 -20.865  0.00  0.00    +0.251 C 
ATOM     22  H   UNL     1      34.779 -19.482 -21.578  0.00  0.00    +0.150 HD
BRANCH  20  23
ATOM     23  C   UNL     1      36.028 -18.301 -22.783  0.00  0.00    +0.121 C 
BRANCH  23  27
ATOM     24  F   UNL     1      35.002 -16.798 -24.949  0.00  0.00    -0.204 F 
ATOM     25  F   UNL     1      35.641 -17.098 -20.254  0.00  0.00    -0.204 F 
ATOM     26  F   UNL     1      33.446 -13.343 -22.116  0.00  0.00    -0.204 F 
ATOM     27  C   UNL     1      35.339 -16.980 -22.606  0.00  0.00    +0.053 C 
ATOM     28  C   UNL     1      34.856 -16.289 -23.717  0.00  0.00    +0.142 C 
ATOM     29  C   UNL     1      35.181 -16.441 -21.328  0.00  0.00    +0.142 C 
ATOM     30  C   UNL     1      34.217 -15.060 -23.552  0.00  0.00    +0.059 C 
ATOM     31  C   UNL     1      34.541 -15.214 -21.163  0.00  0.00    +0.059 C 
ATOM     32  C   UNL     1      34.060 -14.523 -22.274  0.00  0.00    +0.145 C 
ENDBRANCH  23  27
ENDBRANCH  20  23
ENDBRANCH  17  21
BRANCH  16  33
ATOM     33  O   UNL     1      33.080 -22.757 -18.972  0.00  0.00    -0.502 OA
ATOM     34  H   UNL     1      32.875 -23.282 -19.722  0.00  0.00    +0.292 HD
ENDBRANCH  16  33
TORSDOF 4
ENDMDL
MODEL 3
REMARK VINA RESULT:     -11.3      3.197      5.455
REMARK  Name = 90311989
REMARK  4 active torsions:
REMARK  status: ('A' for Active; 'I' for Inactive)
REMARK    1  A    between atoms: C_16  and  O_33
REMARK    2  A    between atoms: C_17  and  C_21
REMARK    3  A    between atoms: N_20  and  C_23
REMARK    4  A    between atoms: C_23  and  C_27
REMARK                            x       y       z     vdW  Elec       q    Type
REMARK                         _______ _______ _______ _____ _____    ______ ____
ROOT
ATOM      1  O   UNL     1      30.811 -23.467 -15.876  0.00  0.00    -0.339 OA
ATOM      2  O   UNL     1      35.489 -24.172 -16.066  0.00  0.00    -0.268 OA
ATOM      3  O   UNL     1      36.820 -21.000 -19.822  0.00  0.00    -0.283 OA
ATOM      4  N   UNL     1      33.224 -23.747 -15.882  0.00  0.00    -0.253 N 
ATOM      5  N   UNL     1      33.311 -22.387 -18.336  0.00  0.00    -0.275 N 
ATOM      6  C   UNL     1      33.086 -24.481 -14.615  0.00  0.00    +0.080 C 
ATOM      7  C   UNL     1      30.807 -24.099 -14.593  0.00  0.00    +0.119 C 
ATOM      8  C   UNL     1      31.781 -25.263 -14.641  0.00  0.00    +0.049 C 
ATOM      9  C   UNL     1      32.868 -23.494 -13.461  0.00  0.00    +0.022 C 
ATOM     10  C   UNL     1      31.363 -23.185 -13.494  0.00  0.00    +0.031 C 
ATOM     11  C   UNL     1      32.075 -22.949 -16.323  0.00  0.00    +0.215 C 
ATOM     12  C   UNL     1      32.039 -22.901 -17.840  0.00  0.00    +0.147 C 
ATOM     13  C   UNL     1      34.476 -23.611 -16.483  0.00  0.00    +0.267 C 
ATOM     14  C   UNL     1      34.519 -22.726 -17.710  0.00  0.00    +0.143 C 
ATOM     15  C   UNL     1      33.349 -21.607 -19.483  0.00  0.00    +0.074 C 
ATOM     16  C   UNL     1      35.717 -22.295 -18.160  0.00  0.00    +0.191 C 
ATOM     17  C   UNL     1      34.462 -21.114 -20.039  0.00  0.00    +0.110 C 
ATOM     18  C   UNL     1      35.758 -21.428 -19.382  0.00  0.00    +0.236 C 
ENDROOT
BRANCH  17  21
ATOM     19  O   UNL     1      33.248 -20.124 -21.790  0.00  0.00    -0.270 OA
ATOM     20  N   UNL     1      35.554 -19.793 -21.686  0.00  0.00    -0.297 N 
ATOM     21  C   UNL     1      34.341 -20.303 -21.251  0.00  0.00    +0.251 C 
ATOM     22  H   UNL     1      36.363 -20.009 -21.167  0.00  0.00    +0.150 HD
BRANCH  20  23
ATOM     23  C   UNL     1      35.694 -18.963 -22.861  0.00  0.00    +0.121 C 
BRANCH  23  27
ATOM     24  F   UNL     1      35.779 -17.794 -20.287  0.00  0.00    -0.204 F 
ATOM     25  F   UNL     1      34.782 -17.221 -24.893  0.00  0.00    -0.204 F 
ATOM     26  F   UNL     1      34.173 -13.634 -21.870  0.00  0.00    -0.204 F 
ATOM     27  C   UNL     1      35.290 -17.543 -22.597  0.00  0.00    +0.053 C 
ATOM     28  C   UNL     1      35.355 -17.028 -21.302  0.00  0.00    +0.142 C 
ATOM     29  C   UNL     1      34.848 -16.736 -23.646  0.00  0.00    +0.142 C 
ATOM     30  C   UNL     1      34.978 -15.707 -21.057  0.00  0.00    +0.059 C 
ATOM     31  C   UNL     1      34.472 -15.416 -23.401  0.00  0.00    +0.059 C 
ATOM     32  C   UNL     1      34.536 -14.902 -22.106  0.00  0.00    +0.145 C 
ENDBRANCH  23  27
ENDBRANCH  20  23
ENDBRANCH  17  21
BRANCH  16  33
ATOM     33  O   UNL     1      36.921 -22.589 -17.559  0.00  0.00    -0.502 OA
ATOM     34  H   UNL     1      37.531 -21.902 -17.372  0.00  0.00    +0.292 HD
ENDBRANCH  16  33
TORSDOF 4
ENDMDL
MODEL 4
REMARK VINA RESULT:     -11.3      2.947      4.778
REMARK  Name = 90311989
REMARK  4 active torsions:
REMARK  status: ('A' for Active; 'I' for Inactive)
REMARK    1  A    between atoms: C_16  and  O_33
REMARK    2  A    between atoms: C_17  and  C_21
REMARK    3  A    between atoms: N_20  and  C_23
REMARK    4  A    between atoms: C_23  and  C_27
REMARK                            x       y       z     vdW  Elec       q    Type
REMARK                         _______ _______ _______ _____ _____    ______ ____
ROOT
ATOM      1  O   UNL     1      37.948 -23.694 -14.821  0.00  0.00    -0.339 OA
ATOM      2  O   UNL     1      33.554 -23.693 -16.583  0.00  0.00    -0.268 OA
ATOM      3  O   UNL     1      34.215 -21.064 -20.895  0.00  0.00    -0.283 OA
ATOM      4  N   UNL     1      35.716 -23.804 -15.774  0.00  0.00    -0.253 N 
ATOM      5  N   UNL     1      36.476 -21.830 -17.619  0.00  0.00    -0.275 N 
ATOM      6  C   UNL     1      35.389 -24.808 -14.749  0.00  0.00    +0.080 C 
ATOM      7  C   UNL     1      37.553 -24.752 -13.941  0.00  0.00    +0.119 C 
ATOM      8  C   UNL     1      36.138 -24.465 -13.470  0.00  0.00    +0.049 C 
ATOM      9  C   UNL     1      35.984 -26.167 -15.139  0.00  0.00    +0.022 C 
ATOM     10  C   UNL     1      37.445 -26.099 -14.667  0.00  0.00    +0.031 C 
ATOM     11  C   UNL     1      37.136 -23.508 -15.992  0.00  0.00    +0.215 C 
ATOM     12  C   UNL     1      37.294 -22.064 -16.433  0.00  0.00    +0.147 C 
ATOM     13  C   UNL     1      34.737 -23.365 -16.666  0.00  0.00    +0.267 C 
ATOM     14  C   UNL     1      35.219 -22.434 -17.757  0.00  0.00    +0.143 C 
ATOM     15  C   UNL     1      36.906 -20.946 -18.599  0.00  0.00    +0.074 C 
ATOM     16  C   UNL     1      34.421 -22.216 -18.826  0.00  0.00    +0.191 C 
ATOM     17  C   UNL     1      36.220 -20.637 -19.705  0.00  0.00    +0.110 C 
ATOM     18  C   UNL     1      34.896 -21.284 -19.899  0.00  0.00    +0.236 C 
ENDROOT
BRANCH  17  21
ATOM     19  O   UNL     1      38.006 -19.723 -20.927  0.00  0.00    -0.270 OA
ATOM     20  N   UNL     1      35.881 -18.793 -21.166  0.00  0.00    -0.297 N 
ATOM     21  C   UNL     1      36.806 -19.687 -20.651  0.00  0.00    +0.251 C 
ATOM     22  H   UNL     1      34.946 -18.866 -20.866  0.00  0.00    +0.150 HD
BRANCH  20  23
ATOM     23  C   UNL     1      36.217 -17.758 -22.118  0.00  0.00    +0.121 C 
BRANCH  23  27
ATOM     24  F   UNL     1      35.207 -15.344 -23.192  0.00  0.00    -0.204 F 
ATOM     25  F   UNL     1      35.252 -20.087 -23.398  0.00  0.00    -0.204 F 
ATOM     26  F   UNL     1      32.594 -17.605 -26.424  0.00  0.00    -0.204 F 
ATOM     27  C   UNL     1      35.253 -17.717 -23.267  0.00  0.00    +0.053 C 
ATOM     28  C   UNL     1      34.792 -16.492 -23.748  0.00  0.00    +0.142 C 
ATOM     29  C   UNL     1      34.815 -18.905 -23.854  0.00  0.00    +0.142 C 
ATOM     30  C   UNL     1      33.894 -16.454 -24.815  0.00  0.00    +0.059 C 
ATOM     31  C   UNL     1      33.918 -18.867 -24.920  0.00  0.00    +0.059 C 
ATOM     32  C   UNL     1      33.457 -17.642 -25.400  0.00  0.00    +0.145 C 
ENDBRANCH  23  27
ENDBRANCH  20  23
ENDBRANCH  17  21
BRANCH  16  33
ATOM     33  O   UNL     1      33.191 -22.807 -19.007  0.00  0.00    -0.502 OA
ATOM     34  H   UNL     1      32.710 -23.122 -18.267  0.00  0.00    +0.292 HD
ENDBRANCH  16  33
TORSDOF 4
ENDMDL
MODEL 5
REMARK VINA RESULT:     -10.6      7.884     13.101
REMARK  Name = 90311989
REMARK  4 active torsions:
REMARK  status: ('A' for Active; 'I' for Inactive)
REMARK    1  A    between atoms: C_16  and  O_33
REMARK    2  A    between atoms: C_17  and  C_21
REMARK    3  A    between atoms: N_20  and  C_23
REMARK    4  A    between atoms: C_23  and  C_27
REMARK                            x       y       z     vdW  Elec       q    Type
REMARK                         _______ _______ _______ _____ _____    ______ ____
ROOT
ATOM      1  O   UNL     1      33.367  -9.137 -24.336  0.00  0.00    -0.339 OA
ATOM      2  O   UNL     1      31.309 -11.342 -20.688  0.00  0.00    -0.268 OA
ATOM      3  O   UNL     1      33.688 -15.845 -20.780  0.00  0.00    -0.283 OA
ATOM      4  N   UNL     1      32.392 -10.213 -22.390  0.00  0.00    -0.253 N 
ATOM      5  N   UNL     1      33.496 -12.642 -23.259  0.00  0.00    -0.275 N 
ATOM      6  C   UNL     1      31.818  -8.908 -22.025  0.00  0.00    +0.080 C 
ATOM      7  C   UNL     1      32.852  -7.901 -23.830  0.00  0.00    +0.119 C 
ATOM      8  C   UNL     1      31.453  -8.160 -23.299  0.00  0.00    +0.049 C 
ATOM      9  C   UNL     1      32.902  -8.016 -21.405  0.00  0.00    +0.022 C 
ATOM     10  C   UNL     1      33.636  -7.405 -22.608  0.00  0.00    +0.031 C 
ATOM     11  C   UNL     1      33.460 -10.218 -23.395  0.00  0.00    +0.215 C 
ATOM     12  C   UNL     1      33.413 -11.515 -24.182  0.00  0.00    +0.147 C 
ATOM     13  C   UNL     1      32.113 -11.343 -21.619  0.00  0.00    +0.267 C 
ATOM     14  C   UNL     1      32.861 -12.599 -22.010  0.00  0.00    +0.143 C 
ATOM     15  C   UNL     1      34.151 -13.806 -23.636  0.00  0.00    +0.074 C 
ATOM     16  C   UNL     1      32.890 -13.635 -21.143  0.00  0.00    +0.191 C 
ATOM     17  C   UNL     1      34.257 -14.906 -22.881  0.00  0.00    +0.110 C 
ATOM     18  C   UNL     1      33.621 -14.882 -21.537  0.00  0.00    +0.236 C 
ENDROOT
BRANCH  17  21
ATOM     19  O   UNL     1      35.209 -16.162 -24.622  0.00  0.00    -0.270 OA
ATOM     20  N   UNL     1      35.360 -16.964 -22.438  0.00  0.00    -0.297 N 
ATOM     21  C   UNL     1      34.983 -16.058 -23.416  0.00  0.00    +0.251 C 
ATOM     22  H   UNL     1      35.119 -16.768 -21.503  0.00  0.00    +0.150 HD
BRANCH  20  23
ATOM     23  C   UNL     1      36.087 -18.182 -22.718  0.00  0.00    +0.121 C 
BRANCH  23  27
ATOM     24  F   UNL     1      38.030 -19.247 -20.960  0.00  0.00    -0.204 F 
ATOM     25  F   UNL     1      33.517 -19.326 -22.430  0.00  0.00    -0.204 F 
ATOM     26  F   UNL     1      34.939 -22.231 -18.979  0.00  0.00    -0.204 F 
ATOM     27  C   UNL     1      35.781 -19.260 -21.720  0.00  0.00    +0.053 C 
ATOM     28  C   UNL     1      36.787 -19.742 -20.882  0.00  0.00    +0.142 C 
ATOM     29  C   UNL     1      34.490 -19.782 -21.630  0.00  0.00    +0.142 C 
ATOM     30  C   UNL     1      36.503 -20.746 -19.956  0.00  0.00    +0.059 C 
ATOM     31  C   UNL     1      34.206 -20.785 -20.704  0.00  0.00    +0.059 C 
ATOM     32  C   UNL     1      35.212 -21.267 -19.868  0.00  0.00    +0.145 C 
ENDBRANCH  23  27
ENDBRANCH  20  23
ENDBRANCH  17  21
BRANCH  16  33
ATOM     33  O   UNL     1      32.297 -13.621 -19.900  0.00  0.00    -0.502 OA
ATOM     34  H   UNL     1      32.307 -12.838 -19.386  0.00  0.00    +0.292 HD
ENDBRANCH  16  33
TORSDOF 4
ENDMDL
MODEL 6
REMARK VINA RESULT:     -10.5      3.020      8.440
REMARK  Name = 90311989
REMARK  4 active torsions:
REMARK  status: ('A' for Active; 'I' for Inactive)
REMARK    1  A    between atoms: C_16  and  O_33
REMARK    2  A    between atoms: C_17  and  C_21
REMARK    3  A    between atoms: N_20  and  C_23
REMARK    4  A    between atoms: C_23  and  C_27
REMARK                            x       y       z     vdW  Elec       q    Type
REMARK                         _______ _______ _______ _____ _____    ______ ____
ROOT
ATOM      1  O   UNL     1      37.077 -19.714 -21.117  0.00  0.00    -0.339 OA
ATOM      2  O   UNL     1      32.556 -21.079 -20.791  0.00  0.00    -0.268 OA
ATOM      3  O   UNL     1      32.571 -23.502 -16.311  0.00  0.00    -0.283 OA
ATOM      4  N   UNL     1      34.730 -20.303 -20.904  0.00  0.00    -0.253 N 
ATOM      5  N   UNL     1      35.416 -22.007 -18.781  0.00  0.00    -0.275 N 
ATOM      6  C   UNL     1      34.462 -19.417 -22.047  0.00  0.00    +0.080 C 
ATOM      7  C   UNL     1      36.687 -18.801 -22.147  0.00  0.00    +0.119 C 
ATOM      8  C   UNL     1      35.640 -19.486 -23.008  0.00  0.00    +0.049 C 
ATOM      9  C   UNL     1      34.480 -17.953 -21.589  0.00  0.00    +0.022 C 
ATOM     10  C   UNL     1      35.968 -17.567 -21.585  0.00  0.00    +0.031 C 
ATOM     11  C   UNL     1      36.031 -20.166 -20.241  0.00  0.00    +0.215 C 
ATOM     12  C   UNL     1      36.458 -21.507 -19.673  0.00  0.00    +0.147 C 
ATOM     13  C   UNL     1      33.694 -21.039 -20.326  0.00  0.00    +0.267 C 
ATOM     14  C   UNL     1      34.060 -21.811 -19.078  0.00  0.00    +0.143 C 
ATOM     15  C   UNL     1      35.756 -22.747 -17.658  0.00  0.00    +0.074 C 
ATOM     16  C   UNL     1      33.069 -22.287 -18.293  0.00  0.00    +0.191 C 
ATOM     17  C   UNL     1      34.880 -23.277 -16.796  0.00  0.00    +0.110 C 
ATOM     18  C   UNL     1      33.434 -23.061 -17.063  0.00  0.00    +0.236 C 
ENDROOT
BRANCH  17  21
ATOM     19  O   UNL     1      35.212 -25.248 -15.562  0.00  0.00    -0.270 OA
ATOM     20  N   UNL     1      36.064 -23.241 -14.735  0.00  0.00    -0.297 N 
ATOM     21  C   UNL     1      35.391 -24.032 -15.651  0.00  0.00    +0.251 C 
ATOM     22  H   UNL     1      36.140 -22.277 -14.919  0.00  0.00    +0.150 HD
BRANCH  20  23
ATOM     23  C   UNL     1      36.658 -23.757 -13.522  0.00  0.00    +0.121 C 
BRANCH  23  27
ATOM     24  F   UNL     1      38.387 -23.285 -15.710  0.00  0.00    -0.204 F 
ATOM     25  F   UNL     1      37.407 -25.955 -11.910  0.00  0.00    -0.204 F 
ATOM     26  F   UNL     1      41.191 -26.923 -14.579  0.00  0.00    -0.204 F 
ATOM     27  C   UNL     1      37.867 -24.600 -13.803  0.00  0.00    +0.053 C 
ATOM     28  C   UNL     1      38.678 -24.313 -14.901  0.00  0.00    +0.142 C 
ATOM     29  C   UNL     1      38.180 -25.672 -12.967  0.00  0.00    +0.142 C 
ATOM     30  C   UNL     1      39.801 -25.098 -15.163  0.00  0.00    +0.059 C 
ATOM     31  C   UNL     1      39.303 -26.456 -13.228  0.00  0.00    +0.059 C 
ATOM     32  C   UNL     1      40.113 -26.169 -14.327  0.00  0.00    +0.145 C 
ENDBRANCH  23  27
ENDBRANCH  20  23
ENDBRANCH  17  21
BRANCH  16  33
ATOM     33  O   UNL     1      31.727 -22.096 -18.539  0.00  0.00    -0.502 OA
ATOM     34  H   UNL     1      31.247 -21.461 -18.046  0.00  0.00    +0.292 HD
ENDBRANCH  16  33
TORSDOF 4
ENDMDL
MODEL 7
REMARK VINA RESULT:     -10.2      8.773     12.931
REMARK  Name = 90311989
REMARK  4 active torsions:
REMARK  status: ('A' for Active; 'I' for Inactive)
REMARK    1  A    between atoms: C_16  and  O_33
REMARK    2  A    between atoms: C_17  and  C_21
REMARK    3  A    between atoms: N_20  and  C_23
REMARK    4  A    between atoms: C_23  and  C_27
REMARK                            x       y       z     vdW  Elec       q    Type
REMARK                         _______ _______ _______ _____ _____    ______ ____
ROOT
ATOM      1  O   UNL     1      35.600 -17.141 -20.978  0.00  0.00    -0.339 OA
ATOM      2  O   UNL     1      33.561 -17.908 -25.181  0.00  0.00    -0.268 OA
ATOM      3  O   UNL     1      33.430 -13.190 -27.096  0.00  0.00    -0.283 OA
ATOM      4  N   UNL     1      34.665 -17.564 -23.179  0.00  0.00    -0.253 N 
ATOM      5  N   UNL     1      34.268 -14.800 -23.471  0.00  0.00    -0.275 N 
ATOM      6  C   UNL     1      34.873 -18.999 -22.931  0.00  0.00    +0.080 C 
ATOM      7  C   UNL     1      35.855 -18.547 -20.889  0.00  0.00    +0.119 C 
ATOM      8  C   UNL     1      34.649 -19.278 -21.452  0.00  0.00    +0.049 C 
ATOM      9  C   UNL     1      36.353 -19.353 -23.124  0.00  0.00    +0.022 C 
ATOM     10  C   UNL     1      37.018 -18.982 -21.789  0.00  0.00    +0.031 C 
ATOM     11  C   UNL     1      35.362 -16.623 -22.297  0.00  0.00    +0.215 C 
ATOM     12  C   UNL     1      34.539 -15.356 -22.149  0.00  0.00    +0.147 C 
ATOM     13  C   UNL     1      34.051 -17.136 -24.358  0.00  0.00    +0.267 C 
ATOM     14  C   UNL     1      34.009 -15.637 -24.565  0.00  0.00    +0.143 C 
ATOM     15  C   UNL     1      34.194 -13.426 -23.648  0.00  0.00    +0.074 C 
ATOM     16  C   UNL     1      33.723 -15.158 -25.795  0.00  0.00    +0.191 C 
ATOM     17  C   UNL     1      33.920 -12.816 -24.807  0.00  0.00    +0.110 C 
ATOM     18  C   UNL     1      33.672 -13.674 -25.995  0.00  0.00    +0.236 C 
ENDROOT
BRANCH  17  21
ATOM     19  O   UNL     1      34.713 -10.709 -25.475  0.00  0.00    -0.270 OA
ATOM     20  N   UNL     1      32.834 -10.824 -24.098  0.00  0.00    -0.297 N 
ATOM     21  C   UNL     1      33.879 -11.354 -24.838  0.00  0.00    +0.251 C 
ATOM     22  H   UNL     1      32.231 -11.446 -23.631  0.00  0.00    +0.150 HD
BRANCH  20  23
ATOM     23  C   UNL     1      32.585  -9.405 -23.975  0.00  0.00    +0.121 C 
BRANCH  23  27
ATOM     24  F   UNL     1      31.117 -10.875 -22.054  0.00  0.00    -0.204 F 
ATOM     25  F   UNL     1      33.800  -7.064 -22.957  0.00  0.00    -0.204 F 
ATOM     26  F   UNL     1      32.118  -7.804 -18.598  0.00  0.00    -0.204 F 
ATOM     27  C   UNL     1      32.462  -8.979 -22.542  0.00  0.00    +0.053 C 
ATOM     28  C   UNL     1      31.721  -9.750 -21.645  0.00  0.00    +0.142 C 
ATOM     29  C   UNL     1      33.086  -7.811 -22.104  0.00  0.00    +0.142 C 
ATOM     30  C   UNL     1      31.605  -9.353 -20.313  0.00  0.00    +0.059 C 
ATOM     31  C   UNL     1      32.971  -7.415 -20.772  0.00  0.00    +0.059 C 
ATOM     32  C   UNL     1      32.230  -8.185 -19.877  0.00  0.00    +0.145 C 
ENDBRANCH  23  27
ENDBRANCH  20  23
ENDBRANCH  17  21
BRANCH  16  33
ATOM     33  O   UNL     1      33.486 -15.949 -26.898  0.00  0.00    -0.502 OA
ATOM     34  H   UNL     1      33.948 -15.789 -27.697  0.00  0.00    +0.292 HD
ENDBRANCH  16  33
TORSDOF 4
ENDMDL
MODEL 8
REMARK VINA RESULT:     -10.1      3.441      8.845
REMARK  Name = 90311989
REMARK  4 active torsions:
REMARK  status: ('A' for Active; 'I' for Inactive)
REMARK    1  A    between atoms: C_16  and  O_33
REMARK    2  A    between atoms: C_17  and  C_21
REMARK    3  A    between atoms: N_20  and  C_23
REMARK    4  A    between atoms: C_23  and  C_27
REMARK                            x       y       z     vdW  Elec       q    Type
REMARK                         _______ _______ _______ _____ _____    ______ ____
ROOT
ATOM      1  O   UNL     1      37.080 -19.182 -21.491  0.00  0.00    -0.339 OA
ATOM      2  O   UNL     1      32.828 -21.151 -20.811  0.00  0.00    -0.268 OA
ATOM      3  O   UNL     1      33.534 -23.523 -16.360  0.00  0.00    -0.283 OA
ATOM      4  N   UNL     1      34.861 -20.085 -21.094  0.00  0.00    -0.253 N 
ATOM      5  N   UNL     1      35.941 -21.667 -19.043  0.00  0.00    -0.275 N 
ATOM      6  C   UNL     1      34.383 -19.251 -22.208  0.00  0.00    +0.080 C 
ATOM      7  C   UNL     1      36.487 -18.337 -22.482  0.00  0.00    +0.119 C 
ATOM      8  C   UNL     1      35.478 -19.163 -23.260  0.00  0.00    +0.049 C 
ATOM      9  C   UNL     1      34.237 -17.795 -21.745  0.00  0.00    +0.022 C 
ATOM     10  C   UNL     1      35.654 -17.210 -21.858  0.00  0.00    +0.031 C 
ATOM     11  C   UNL     1      36.179 -19.768 -20.537  0.00  0.00    +0.215 C 
ATOM     12  C   UNL     1      36.830 -21.035 -20.012  0.00  0.00    +0.147 C 
ATOM     13  C   UNL     1      33.985 -20.953 -20.439  0.00  0.00    +0.267 C 
ATOM     14  C   UNL     1      34.552 -21.661 -19.228  0.00  0.00    +0.143 C 
ATOM     15  C   UNL     1      36.467 -22.348 -17.954  0.00  0.00    +0.074 C 
ATOM     16  C   UNL     1      33.700 -22.263 -18.369  0.00  0.00    +0.191 C 
ATOM     17  C   UNL     1      35.744 -22.987 -17.027  0.00  0.00    +0.110 C 
ATOM     18  C   UNL     1      34.265 -22.973 -17.176  0.00  0.00    +0.236 C 
ENDROOT
BRANCH  17  21
ATOM     19  O   UNL     1      37.368 -23.106 -15.334  0.00  0.00    -0.270 OA
ATOM     20  N   UNL     1      35.953 -24.929 -15.672  0.00  0.00    -0.297 N 
ATOM     21  C   UNL     1      36.444 -23.659 -15.932  0.00  0.00    +0.251 C 
ATOM     22  H   UNL     1      35.207 -25.261 -16.222  0.00  0.00    +0.150 HD
BRANCH  20  23
ATOM     23  C   UNL     1      36.480 -25.791 -14.638  0.00  0.00    +0.121 C 
BRANCH  23  27
ATOM     24  F   UNL     1      34.218 -24.807 -13.252  0.00  0.00    -0.204 F 
ATOM     25  F   UNL     1      38.936 -25.334 -13.313  0.00  0.00    -0.204 F 
ATOM     26  F   UNL     1      36.838 -23.149  -9.679  0.00  0.00    -0.204 F 
ATOM     27  C   UNL     1      36.575 -25.088 -13.316  0.00  0.00    +0.053 C 
ATOM     28  C   UNL     1      35.419 -24.626 -12.685  0.00  0.00    +0.142 C 
ATOM     29  C   UNL     1      37.819 -24.894 -12.716  0.00  0.00    +0.142 C 
ATOM     30  C   UNL     1      35.508 -23.971 -11.457  0.00  0.00    +0.059 C 
ATOM     31  C   UNL     1      37.908 -24.241 -11.487  0.00  0.00    +0.059 C 
ATOM     32  C   UNL     1      36.753 -23.779 -10.858  0.00  0.00    +0.145 C 
ENDBRANCH  23  27
ENDBRANCH  20  23
ENDBRANCH  17  21
BRANCH  16  33
ATOM     33  O   UNL     1      32.330 -22.259 -18.506  0.00  0.00    -0.502 OA
ATOM     34  H   UNL     1      31.890 -23.021 -18.827  0.00  0.00    +0.292 HD
ENDBRANCH  16  33
TORSDOF 4
ENDMDL
MODEL 9
REMARK VINA RESULT:     -10.0      2.549      5.571
REMARK  Name = 90311989
REMARK  4 active torsions:
REMARK  status: ('A' for Active; 'I' for Inactive)
REMARK    1  A    between atoms: C_16  and  O_33
REMARK    2  A    between atoms: C_17  and  C_21
REMARK    3  A    between atoms: N_20  and  C_23
REMARK    4  A    between atoms: C_23  and  C_27
REMARK                            x       y       z     vdW  Elec       q    Type
REMARK                         _______ _______ _______ _____ _____    ______ ____
ROOT
ATOM      1  O   UNL     1      29.706 -23.419 -17.225  0.00  0.00    -0.339 OA
ATOM      2  O   UNL     1      32.364 -24.908 -13.601  0.00  0.00    -0.268 OA
ATOM      3  O   UNL     1      36.883 -22.878 -14.785  0.00  0.00    -0.283 OA
ATOM      4  N   UNL     1      31.029 -24.087 -15.301  0.00  0.00    -0.253 N 
ATOM      5  N   UNL     1      33.337 -23.318 -16.701  0.00  0.00    -0.275 N 
ATOM      6  C   UNL     1      29.775 -24.499 -14.652  0.00  0.00    +0.080 C 
ATOM      7  C   UNL     1      28.544 -23.752 -16.459  0.00  0.00    +0.119 C 
ATOM      8  C   UNL     1      28.830 -25.044 -15.713  0.00  0.00    +0.049 C 
ATOM      9  C   UNL     1      29.027 -23.266 -14.130  0.00  0.00    +0.022 C 
ATOM     10  C   UNL     1      28.267 -22.728 -15.352  0.00  0.00    +0.031 C 
ATOM     11  C   UNL     1      30.921 -23.224 -16.482  0.00  0.00    +0.215 C 
ATOM     12  C   UNL     1      32.081 -23.497 -17.422  0.00  0.00    +0.147 C 
ATOM     13  C   UNL     1      32.252 -24.290 -14.660  0.00  0.00    +0.267 C 
ATOM     14  C   UNL     1      33.461 -23.709 -15.361  0.00  0.00    +0.143 C 
ATOM     15  C   UNL     1      34.453 -22.819 -17.358  0.00  0.00    +0.074 C 
ATOM     16  C   UNL     1      34.617 -23.587 -14.672  0.00  0.00    +0.191 C 
ATOM     17  C   UNL     1      35.657 -22.646 -16.801  0.00  0.00    +0.110 C 
ATOM     18  C   UNL     1      35.815 -23.021 -15.371  0.00  0.00    +0.236 C 
ENDROOT
BRANCH  17  21
ATOM     19  O   UNL     1      37.914 -22.183 -17.257  0.00  0.00    -0.270 OA
ATOM     20  N   UNL     1      36.292 -21.528 -18.800  0.00  0.00    -0.297 N 
ATOM     21  C   UNL     1      36.740 -22.106 -17.623  0.00  0.00    +0.251 C 
ATOM     22  H   UNL     1      35.325 -21.528 -18.980  0.00  0.00    +0.150 HD
BRANCH  20  23
ATOM     23  C   UNL     1      37.172 -20.925 -19.776  0.00  0.00    +0.121 C 
BRANCH  23  27
ATOM     24  F   UNL     1      34.400 -21.258 -20.236  0.00  0.00    -0.204 F 
ATOM     25  F   UNL     1      38.389 -18.970 -21.417  0.00  0.00    -0.204 F 
ATOM     26  F   UNL     1      34.330 -17.958 -23.626  0.00  0.00    -0.204 F 
ATOM     27  C   UNL     1      36.414 -20.134 -20.801  0.00  0.00    +0.053 C 
ATOM     28  C   UNL     1      35.047 -20.348 -20.978  0.00  0.00    +0.142 C 
ATOM     29  C   UNL     1      37.076 -19.183 -21.579  0.00  0.00    +0.142 C 
ATOM     30  C   UNL     1      34.343 -19.613 -21.933  0.00  0.00    +0.059 C 
ATOM     31  C   UNL     1      36.372 -18.448 -22.532  0.00  0.00    +0.059 C 
ATOM     32  C   UNL     1      35.006 -18.664 -22.709  0.00  0.00    +0.145 C 
ENDBRANCH  23  27
ENDBRANCH  20  23
ENDBRANCH  17  21
BRANCH  16  33
ATOM     33  O   UNL     1      34.770 -23.939 -13.349  0.00  0.00    -0.502 OA
ATOM     34  H   UNL     1      34.553 -23.327 -12.674  0.00  0.00    +0.292 HD
ENDBRANCH  16  33
TORSDOF 4
ENDMDL
