MODEL 1
REMARK VINA RESULT:     -11.6      0.000      0.000
REMARK  Name = 16755766
REMARK  5 active torsions:
REMARK  status: ('A' for Active; 'I' for Inactive)
REMARK    1  A    between atoms: N_1  and  C_25
REMARK    2  A    between atoms: N_3  and  C_12
REMARK    3  A    between atoms: C_5  and  C_20
REMARK    4  A    between atoms: C_25  and  C_26
REMARK    5  A    between atoms: C_26  and  C_29
REMARK                            x       y       z     vdW  Elec       q    Type
REMARK                         _______ _______ _______ _____ _____    ______ ____
ROOT
ATOM      1  N   UNL     1      32.590 -23.443 -16.212  0.00  0.00    -0.174 N 
ATOM      2  N   UNL     1      33.802 -23.648 -15.693  0.00  0.00    -0.096 NA
ATOM      3  N   UNL     1      34.345 -24.649 -13.583  0.00  0.00    -0.246 N 
ATOM      4  N   UNL     1      32.136 -24.378 -14.306  0.00  0.00    -0.319 NA
ATOM      5  C   UNL     1      31.604 -23.873 -15.396  0.00  0.00    +0.216 C 
ATOM      6  C   UNL     1      33.472 -24.219 -14.532  0.00  0.00    +0.165 C 
ATOM      7  H   UNL     1      33.911 -24.965 -12.758  0.00  0.00    +0.165 HD
ENDROOT
BRANCH   3  12
ATOM      8  F   UNL     1      40.520 -27.131 -14.156  0.00  0.00    -0.125 F 
ATOM      9  F   UNL     1      40.642 -25.525 -15.636  0.00  0.00    -0.125 F 
ATOM     10  O   UNL     1      38.611 -26.401 -15.138  0.00  0.00    -0.395 OA
ATOM     11  O   UNL     1      39.849 -25.047 -13.568  0.00  0.00    -0.395 OA
ATOM     12  C   UNL     1      35.766 -24.728 -13.554  0.00  0.00    +0.061 C 
ATOM     13  C   UNL     1      37.798 -25.629 -14.365  0.00  0.00    +0.183 C 
ATOM     14  C   UNL     1      36.420 -25.586 -14.432  0.00  0.00    +0.056 C 
ATOM     15  C   UNL     1      38.504 -24.856 -13.470  0.00  0.00    +0.182 C 
ATOM     16  C   UNL     1      36.476 -23.938 -12.639  0.00  0.00    +0.019 C 
ATOM     17  C   UNL     1      37.870 -24.000 -12.593  0.00  0.00    +0.042 C 
ATOM     18  C   UNL     1      39.893 -26.021 -14.620  0.00  0.00    +0.589 C 
ENDBRANCH   3  12
BRANCH   5  20
ATOM     19  N   UNL     1      27.470 -23.587 -16.280  0.00  0.00    -0.242 NA
ATOM     20  C   UNL     1      30.196 -23.776 -15.695  0.00  0.00    +0.050 C 
ATOM     21  C   UNL     1      29.466 -22.671 -15.270  0.00  0.00    +0.025 C 
ATOM     22  C   UNL     1      29.564 -24.786 -16.412  0.00  0.00    +0.025 C 
ATOM     23  C   UNL     1      28.118 -22.625 -15.585  0.00  0.00    +0.099 C 
ATOM     24  C   UNL     1      28.211 -24.644 -16.676  0.00  0.00    +0.099 C 
ENDBRANCH   5  20
BRANCH   1  25
ATOM     25  C   UNL     1      32.465 -22.806 -17.517  0.00  0.00    +0.129 C 
BRANCH  25  26
ATOM     26  C   UNL     1      33.781 -22.826 -18.295  0.00  0.00    +0.109 C 
BRANCH  26  29
ATOM     27  O   UNL     1      32.752 -21.451 -19.967  0.00  0.00    -0.275 OA
ATOM     28  N   UNL     1      35.061 -21.319 -19.793  0.00  0.00    -0.276 N 
ATOM     29  C   UNL     1      33.802 -21.806 -19.426  0.00  0.00    +0.228 C 
ATOM     30  C   UNL     1      36.292 -21.754 -19.138  0.00  0.00    +0.115 C 
ATOM     31  C   UNL     1      35.239 -20.340 -20.859  0.00  0.00    +0.115 C 
ENDBRANCH  26  29
ENDBRANCH  25  26
ENDBRANCH   1  25
TORSDOF 5
ENDMDL
MODEL 2
REMARK VINA RESULT:     -10.9      4.334      8.152
REMARK  Name = 16755766
REMARK  5 active torsions:
REMARK  status: ('A' for Active; 'I' for Inactive)
REMARK    1  A    between atoms: N_1  and  C_25
REMARK    2  A    between atoms: N_3  and  C_12
REMARK    3  A    between atoms: C_5  and  C_20
REMARK    4  A    between atoms: C_25  and  C_26
REMARK    5  A    between atoms: C_26  and  C_29
REMARK                            x       y       z     vdW  Elec       q    Type
REMARK                         _______ _______ _______ _____ _____    ______ ____
ROOT
ATOM      1  N   UNL     1      34.786 -23.862 -15.654  0.00  0.00    -0.174 N 
ATOM      2  N   UNL     1      34.660 -23.089 -16.734  0.00  0.00    -0.096 NA
ATOM      3  N   UNL     1      36.407 -22.089 -18.035  0.00  0.00    -0.246 N 
ATOM      4  N   UNL     1      36.850 -23.417 -16.159  0.00  0.00    -0.319 NA
ATOM      5  C   UNL     1      36.078 -24.057 -15.312  0.00  0.00    +0.216 C 
ATOM      6  C   UNL     1      35.944 -22.844 -17.005  0.00  0.00    +0.165 C 
ATOM      7  H   UNL     1      37.382 -21.953 -18.021  0.00  0.00    +0.165 HD
ENDROOT
BRANCH   3  12
ATOM      8  F   UNL     1      34.927 -17.556 -22.713  0.00  0.00    -0.125 F 
ATOM      9  F   UNL     1      35.458 -19.241 -24.003  0.00  0.00    -0.125 F 
ATOM     10  O   UNL     1      36.328 -19.148 -21.912  0.00  0.00    -0.395 OA
ATOM     11  O   UNL     1      33.987 -19.581 -22.313  0.00  0.00    -0.395 OA
ATOM     12  C   UNL     1      35.753 -21.458 -19.130  0.00  0.00    +0.061 C 
ATOM     13  C   UNL     1      35.797 -20.011 -21.002  0.00  0.00    +0.183 C 
ATOM     14  C   UNL     1      36.475 -20.600 -19.954  0.00  0.00    +0.056 C 
ATOM     15  C   UNL     1      34.461 -20.258 -21.231  0.00  0.00    +0.182 C 
ATOM     16  C   UNL     1      34.394 -21.715 -19.355  0.00  0.00    +0.019 C 
ATOM     17  C   UNL     1      33.732 -21.107 -20.424  0.00  0.00    +0.042 C 
ATOM     18  C   UNL     1      35.175 -18.890 -22.724  0.00  0.00    +0.589 C 
ENDBRANCH   3  12
BRANCH   5  20
ATOM     19  N   UNL     1      37.353 -26.374 -12.001  0.00  0.00    -0.242 NA
ATOM     20  C   UNL     1      36.513 -24.845 -14.184  0.00  0.00    +0.050 C 
ATOM     21  C   UNL     1      36.468 -24.312 -12.901  0.00  0.00    +0.025 C 
ATOM     22  C   UNL     1      36.977 -26.141 -14.377  0.00  0.00    +0.025 C 
ATOM     23  C   UNL     1      36.896 -25.111 -11.852  0.00  0.00    +0.099 C 
ATOM     24  C   UNL     1      37.382 -26.858 -13.263  0.00  0.00    +0.099 C 
ENDBRANCH   5  20
BRANCH   1  25
ATOM     25  C   UNL     1      33.592 -24.372 -14.992  0.00  0.00    +0.129 C 
BRANCH  25  26
ATOM     26  C   UNL     1      32.550 -23.278 -14.761  0.00  0.00    +0.109 C 
BRANCH  26  29
ATOM     27  O   UNL     1      31.113 -23.047 -16.666  0.00  0.00    -0.275 OA
ATOM     28  N   UNL     1      30.300 -24.313 -14.901  0.00  0.00    -0.276 N 
ATOM     29  C   UNL     1      31.264 -23.526 -15.539  0.00  0.00    +0.228 C 
ATOM     30  C   UNL     1      30.501 -24.871 -13.566  0.00  0.00    +0.115 C 
ATOM     31  C   UNL     1      29.020 -24.635 -15.520  0.00  0.00    +0.115 C 
ENDBRANCH  26  29
ENDBRANCH  25  26
ENDBRANCH   1  25
TORSDOF 5
ENDMDL
MODEL 3
REMARK VINA RESULT:     -10.3      4.488      8.188
REMARK  Name = 16755766
REMARK  5 active torsions:
REMARK  status: ('A' for Active; 'I' for Inactive)
REMARK    1  A    between atoms: N_1  and  C_25
REMARK    2  A    between atoms: N_3  and  C_12
REMARK    3  A    between atoms: C_5  and  C_20
REMARK    4  A    between atoms: C_25  and  C_26
REMARK    5  A    between atoms: C_26  and  C_29
REMARK                            x       y       z     vdW  Elec       q    Type
REMARK                         _______ _______ _______ _____ _____    ______ ____
ROOT
ATOM      1  N   UNL     1      34.846 -23.787 -14.853  0.00  0.00    -0.174 N 
ATOM      2  N   UNL     1      33.563 -23.888 -15.203  0.00  0.00    -0.096 NA
ATOM      3  N   UNL     1      31.735 -24.667 -13.862  0.00  0.00    -0.246 N 
ATOM      4  N   UNL     1      33.928 -24.572 -13.050  0.00  0.00    -0.319 NA
ATOM      5  C   UNL     1      35.066 -24.190 -13.583  0.00  0.00    +0.216 C 
ATOM      6  C   UNL     1      33.044 -24.371 -14.071  0.00  0.00    +0.165 C 
ATOM      7  H   UNL     1      31.557 -25.094 -12.993  0.00  0.00    +0.165 HD
ENDROOT
BRANCH   3  12
ATOM      8  F   UNL     1      25.823 -22.321 -15.905  0.00  0.00    -0.125 F 
ATOM      9  F   UNL     1      27.070 -21.646 -17.571  0.00  0.00    -0.125 F 
ATOM     10  O   UNL     1      28.037 -21.989 -15.548  0.00  0.00    -0.395 OA
ATOM     11  O   UNL     1      27.213 -23.808 -16.905  0.00  0.00    -0.395 OA
ATOM     12  C   UNL     1      30.571 -24.478 -14.658  0.00  0.00    +0.061 C 
ATOM     13  C   UNL     1      28.800 -23.111 -15.431  0.00  0.00    +0.183 C 
ATOM     14  C   UNL     1      29.926 -23.245 -14.642  0.00  0.00    +0.056 C 
ATOM     15  C   UNL     1      28.330 -24.149 -16.206  0.00  0.00    +0.182 C 
ATOM     16  C   UNL     1      30.099 -25.539 -15.443  0.00  0.00    +0.019 C 
ATOM     17  C   UNL     1      28.959 -25.376 -16.233  0.00  0.00    +0.042 C 
ATOM     18  C   UNL     1      27.046 -22.449 -16.478  0.00  0.00    +0.589 C 
ENDBRANCH   3  12
BRANCH   5  20
ATOM     19  N   UNL     1      38.856 -24.210 -11.690  0.00  0.00    -0.242 NA
ATOM     20  C   UNL     1      36.357 -24.195 -12.939  0.00  0.00    +0.050 C 
ATOM     21  C   UNL     1      36.781 -23.087 -12.215  0.00  0.00    +0.025 C 
ATOM     22  C   UNL     1      37.180 -25.311 -13.040  0.00  0.00    +0.025 C 
ATOM     23  C   UNL     1      38.028 -23.144 -11.614  0.00  0.00    +0.099 C 
ATOM     24  C   UNL     1      38.410 -25.268 -12.402  0.00  0.00    +0.099 C 
ENDBRANCH   5  20
BRANCH   1  25
ATOM     25  C   UNL     1      35.818 -23.293 -15.822  0.00  0.00    +0.129 C 
BRANCH  25  26
ATOM     26  C   UNL     1      35.155 -22.840 -17.122  0.00  0.00    +0.109 C 
BRANCH  26  29
ATOM     27  O   UNL     1      37.301 -21.952 -17.714  0.00  0.00    -0.275 OA
ATOM     28  N   UNL     1      35.599 -21.668 -19.263  0.00  0.00    -0.276 N 
ATOM     29  C   UNL     1      36.125 -22.117 -18.047  0.00  0.00    +0.228 C 
ATOM     30  C   UNL     1      34.201 -21.875 -19.637  0.00  0.00    +0.115 C 
ATOM     31  C   UNL     1      36.405 -20.959 -20.249  0.00  0.00    +0.115 C 
ENDBRANCH  26  29
ENDBRANCH  25  26
ENDBRANCH   1  25
TORSDOF 5
ENDMDL
MODEL 4
REMARK VINA RESULT:     -10.2      3.885      7.303
REMARK  Name = 16755766
REMARK  5 active torsions:
REMARK  status: ('A' for Active; 'I' for Inactive)
REMARK    1  A    between atoms: N_1  and  C_25
REMARK    2  A    between atoms: N_3  and  C_12
REMARK    3  A    between atoms: C_5  and  C_20
REMARK    4  A    between atoms: C_25  and  C_26
REMARK    5  A    between atoms: C_26  and  C_29
REMARK                            x       y       z     vdW  Elec       q    Type
REMARK                         _______ _______ _______ _____ _____    ______ ____
ROOT
ATOM      1  N   UNL     1      33.334 -23.507 -16.186  0.00  0.00    -0.174 N 
ATOM      2  N   UNL     1      33.894 -22.858 -17.208  0.00  0.00    -0.096 NA
ATOM      3  N   UNL     1      32.807 -21.944 -19.139  0.00  0.00    -0.246 N 
ATOM      4  N   UNL     1      31.629 -23.059 -17.451  0.00  0.00    -0.319 NA
ATOM      5  C   UNL     1      31.996 -23.628 -16.326  0.00  0.00    +0.216 C 
ATOM      6  C   UNL     1      32.815 -22.605 -17.952  0.00  0.00    +0.165 C 
ATOM      7  H   UNL     1      31.927 -21.931 -19.580  0.00  0.00    +0.165 HD
ENDROOT
BRANCH   3  12
ATOM      8  F   UNL     1      35.911 -18.709 -24.091  0.00  0.00    -0.125 F 
ATOM      9  F   UNL     1      35.979 -17.157 -22.551  0.00  0.00    -0.125 F 
ATOM     10  O   UNL     1      34.347 -18.727 -22.450  0.00  0.00    -0.395 OA
ATOM     11  O   UNL     1      36.664 -19.251 -22.022  0.00  0.00    -0.395 OA
ATOM     12  C   UNL     1      33.826 -21.268 -19.865  0.00  0.00    +0.061 C 
ATOM     13  C   UNL     1      34.494 -19.684 -21.491  0.00  0.00    +0.183 C 
ATOM     14  C   UNL     1      33.470 -20.313 -20.812  0.00  0.00    +0.056 C 
ATOM     15  C   UNL     1      35.816 -19.983 -21.247  0.00  0.00    +0.182 C 
ATOM     16  C   UNL     1      35.169 -21.578 -19.610  0.00  0.00    +0.019 C 
ATOM     17  C   UNL     1      36.186 -20.927 -20.311  0.00  0.00    +0.042 C 
ATOM     18  C   UNL     1      35.721 -18.470 -22.769  0.00  0.00    +0.589 C 
ENDBRANCH   3  12
BRANCH   5  20
ATOM     19  N   UNL     1      29.453 -25.564 -13.544  0.00  0.00    -0.242 NA
ATOM     20  C   UNL     1      31.132 -24.288 -15.378  0.00  0.00    +0.050 C 
ATOM     21  C   UNL     1      31.349 -24.138 -14.013  0.00  0.00    +0.025 C 
ATOM     22  C   UNL     1      30.077 -25.074 -15.828  0.00  0.00    +0.025 C 
ATOM     23  C   UNL     1      30.489 -24.791 -13.145  0.00  0.00    +0.099 C 
ATOM     24  C   UNL     1      29.274 -25.685 -14.878  0.00  0.00    +0.099 C 
ENDBRANCH   5  20
BRANCH   1  25
ATOM     25  C   UNL     1      34.173 -23.997 -15.099  0.00  0.00    +0.129 C 
BRANCH  25  26
ATOM     26  C   UNL     1      35.630 -24.164 -15.527  0.00  0.00    +0.109 C 
BRANCH  26  29
ATOM     27  O   UNL     1      36.020 -26.529 -15.581  0.00  0.00    -0.275 OA
ATOM     28  N   UNL     1      37.054 -25.346 -13.874  0.00  0.00    -0.276 N 
ATOM     29  C   UNL     1      36.244 -25.458 -15.009  0.00  0.00    +0.228 C 
ATOM     30  C   UNL     1      37.306 -24.067 -13.214  0.00  0.00    +0.115 C 
ATOM     31  C   UNL     1      37.708 -26.497 -13.264  0.00  0.00    +0.115 C 
ENDBRANCH  26  29
ENDBRANCH  25  26
ENDBRANCH   1  25
TORSDOF 5
ENDMDL
MODEL 5
REMARK VINA RESULT:      -9.2      1.195      2.013
REMARK  Name = 16755766
REMARK  5 active torsions:
REMARK  status: ('A' for Active; 'I' for Inactive)
REMARK    1  A    between atoms: N_1  and  C_25
REMARK    2  A    between atoms: N_3  and  C_12
REMARK    3  A    between atoms: C_5  and  C_20
REMARK    4  A    between atoms: C_25  and  C_26
REMARK    5  A    between atoms: C_26  and  C_29
REMARK                            x       y       z     vdW  Elec       q    Type
REMARK                         _______ _______ _______ _____ _____    ______ ____
ROOT
ATOM      1  N   UNL     1      32.822 -23.404 -16.542  0.00  0.00    -0.174 N 
ATOM      2  N   UNL     1      34.004 -23.940 -16.233  0.00  0.00    -0.096 NA
ATOM      3  N   UNL     1      34.540 -25.328 -14.354  0.00  0.00    -0.246 N 
ATOM      4  N   UNL     1      32.387 -24.481 -14.709  0.00  0.00    -0.319 NA
ATOM      5  C   UNL     1      31.865 -23.721 -15.644  0.00  0.00    +0.216 C 
ATOM      6  C   UNL     1      33.687 -24.587 -15.109  0.00  0.00    +0.165 C 
ATOM      7  H   UNL     1      34.143 -25.657 -13.515  0.00  0.00    +0.165 HD
ENDROOT
BRANCH   3  12
ATOM      8  F   UNL     1      41.184 -24.922 -14.907  0.00  0.00    -0.125 F 
ATOM      9  F   UNL     1      41.050 -26.235 -13.163  0.00  0.00    -0.125 F 
ATOM     10  O   UNL     1      39.325 -24.835 -13.613  0.00  0.00    -0.395 OA
ATOM     11  O   UNL     1      39.833 -26.741 -15.007  0.00  0.00    -0.395 OA
ATOM     12  C   UNL     1      35.895 -25.718 -14.542  0.00  0.00    +0.061 C 
ATOM     13  C   UNL     1      38.205 -25.412 -14.134  0.00  0.00    +0.183 C 
ATOM     14  C   UNL     1      36.906 -24.995 -13.920  0.00  0.00    +0.056 C 
ATOM     15  C   UNL     1      38.496 -26.499 -14.928  0.00  0.00    +0.182 C 
ATOM     16  C   UNL     1      36.181 -26.825 -15.353  0.00  0.00    +0.019 C 
ATOM     17  C   UNL     1      37.504 -27.227 -15.552  0.00  0.00    +0.042 C 
ATOM     18  C   UNL     1      40.334 -25.685 -14.175  0.00  0.00    +0.589 C 
ENDBRANCH   3  12
BRANCH   5  20
ATOM     19  N   UNL     1      27.838 -22.420 -15.863  0.00  0.00    -0.242 NA
ATOM     20  C   UNL     1      30.494 -23.277 -15.720  0.00  0.00    +0.050 C 
ATOM     21  C   UNL     1      29.758 -23.480 -16.882  0.00  0.00    +0.025 C 
ATOM     22  C   UNL     1      29.905 -22.647 -14.630  0.00  0.00    +0.025 C 
ATOM     23  C   UNL     1      28.445 -23.036 -16.902  0.00  0.00    +0.099 C 
ATOM     24  C   UNL     1      28.586 -22.240 -14.751  0.00  0.00    +0.099 C 
ENDBRANCH   5  20
BRANCH   1  25
ATOM     25  C   UNL     1      32.698 -22.574 -17.735  0.00  0.00    +0.129 C 
BRANCH  25  26
ATOM     26  C   UNL     1      33.519 -23.120 -18.903  0.00  0.00    +0.109 C 
BRANCH  26  29
ATOM     27  O   UNL     1      35.809 -22.411 -18.875  0.00  0.00    -0.275 OA
ATOM     28  N   UNL     1      34.338 -21.120 -20.120  0.00  0.00    -0.276 N 
ATOM     29  C   UNL     1      34.666 -22.196 -19.289  0.00  0.00    +0.228 C 
ATOM     30  C   UNL     1      32.978 -20.884 -20.598  0.00  0.00    +0.115 C 
ATOM     31  C   UNL     1      35.329 -20.151 -20.571  0.00  0.00    +0.115 C 
ENDBRANCH  26  29
ENDBRANCH  25  26
ENDBRANCH   1  25
TORSDOF 5
ENDMDL
MODEL 6
REMARK VINA RESULT:      -8.7      4.597      8.220
REMARK  Name = 16755766
REMARK  5 active torsions:
REMARK  status: ('A' for Active; 'I' for Inactive)
REMARK    1  A    between atoms: N_1  and  C_25
REMARK    2  A    between atoms: N_3  and  C_12
REMARK    3  A    between atoms: C_5  and  C_20
REMARK    4  A    between atoms: C_25  and  C_26
REMARK    5  A    between atoms: C_26  and  C_29
REMARK                            x       y       z     vdW  Elec       q    Type
REMARK                         _______ _______ _______ _____ _____    ______ ____
ROOT
ATOM      1  N   UNL     1      35.304 -18.350 -21.514  0.00  0.00    -0.174 N 
ATOM      2  N   UNL     1      35.445 -19.174 -20.475  0.00  0.00    -0.096 NA
ATOM      3  N   UNL     1      34.835 -21.489 -20.345  0.00  0.00    -0.246 N 
ATOM      4  N   UNL     1      34.493 -20.213 -22.277  0.00  0.00    -0.319 NA
ATOM      5  C   UNL     1      34.742 -18.959 -22.580  0.00  0.00    +0.216 C 
ATOM      6  C   UNL     1      34.938 -20.297 -20.989  0.00  0.00    +0.165 C 
ATOM      7  H   UNL     1      34.354 -22.178 -20.858  0.00  0.00    +0.165 HD
ENDROOT
BRANCH   3  12
ATOM      8  F   UNL     1      34.733 -23.376 -13.938  0.00  0.00    -0.125 F 
ATOM      9  F   UNL     1      35.476 -25.224 -14.843  0.00  0.00    -0.125 F 
ATOM     10  O   UNL     1      34.237 -23.807 -16.108  0.00  0.00    -0.395 OA
ATOM     11  O   UNL     1      36.475 -23.263 -15.385  0.00  0.00    -0.395 OA
ATOM     12  C   UNL     1      35.289 -21.931 -19.071  0.00  0.00    +0.061 C 
ATOM     13  C   UNL     1      34.919 -23.078 -17.035  0.00  0.00    +0.183 C 
ATOM     14  C   UNL     1      34.434 -22.672 -18.262  0.00  0.00    +0.056 C 
ATOM     15  C   UNL     1      36.196 -22.768 -16.622  0.00  0.00    +0.182 C 
ATOM     16  C   UNL     1      36.589 -21.610 -18.659  0.00  0.00    +0.019 C 
ATOM     17  C   UNL     1      37.056 -22.035 -17.413  0.00  0.00    +0.042 C 
ATOM     18  C   UNL     1      35.232 -23.911 -15.081  0.00  0.00    +0.589 C 
ENDBRANCH   3  12
BRANCH   5  20
ATOM     19  N   UNL     1      33.922 -17.052 -26.274  0.00  0.00    -0.242 NA
ATOM     20  C   UNL     1      34.464 -18.311 -23.839  0.00  0.00    +0.050 C 
ATOM     21  C   UNL     1      33.606 -18.908 -24.757  0.00  0.00    +0.025 C 
ATOM     22  C   UNL     1      35.050 -17.087 -24.137  0.00  0.00    +0.025 C 
ATOM     23  C   UNL     1      33.370 -18.243 -25.949  0.00  0.00    +0.099 C 
ATOM     24  C   UNL     1      34.750 -16.504 -25.357  0.00  0.00    +0.099 C 
ENDBRANCH   5  20
BRANCH   1  25
ATOM     25  C   UNL     1      35.733 -16.961 -21.394  0.00  0.00    +0.129 C 
BRANCH  25  26
ATOM     26  C   UNL     1      34.722 -16.111 -20.625  0.00  0.00    +0.109 C 
BRANCH  26  29
ATOM     27  O   UNL     1      35.012 -14.416 -22.296  0.00  0.00    -0.275 OA
ATOM     28  N   UNL     1      33.064 -14.314 -21.041  0.00  0.00    -0.276 N 
ATOM     29  C   UNL     1      34.293 -14.874 -21.403  0.00  0.00    +0.228 C 
ATOM     30  C   UNL     1      32.229 -14.873 -19.981  0.00  0.00    +0.115 C 
ATOM     31  C   UNL     1      32.522 -13.129 -21.695  0.00  0.00    +0.115 C 
ENDBRANCH  26  29
ENDBRANCH  25  26
ENDBRANCH   1  25
TORSDOF 5
ENDMDL
