MODEL 1
REMARK VINA RESULT:     -12.1      0.000      0.000
REMARK  Name = 66571548
REMARK  8 active torsions:
REMARK  status: ('A' for Active; 'I' for Inactive)
REMARK    1  A    between atoms: C_2  and  C_10
REMARK    2  A    between atoms: C_2  and  C_22
REMARK    3  A    between atoms: N_3  and  C_15
REMARK    4  A    between atoms: C_15  and  C_18
REMARK    5  A    between atoms: C_18  and  O_19
REMARK    6  A    between atoms: C_25  and  N_28
REMARK    7  A    between atoms: C_29  and  C_31
REMARK    8  A    between atoms: C_31  and  C_34
REMARK                            x       y       z     vdW  Elec       q    Type
REMARK                         _______ _______ _______ _____ _____    ______ ____
ROOT
ATOM      1  O   UNL     1      32.274 -22.409 -19.007  0.00  0.00    -0.286 OA
ATOM      2  C   UNL     1      33.420 -22.414 -18.507  0.00  0.00    +0.199 C 
ENDROOT
BRANCH   2  10
ATOM      3  N   UNL     1      34.818 -24.013 -15.591  0.00  0.00    -0.261 N 
ATOM      4  N   UNL     1      33.000 -24.788 -14.209  0.00  0.00    -0.322 NA
ATOM      5  N   UNL     1      30.811 -24.287 -15.152  0.00  0.00    -0.170 NA
ATOM      6  N   UNL     1      31.032 -25.410 -13.110  0.00  0.00    -0.293 N 
ATOM      7  C   UNL     1      33.489 -24.181 -15.304  0.00  0.00    +0.201 C 
ATOM      8  C   UNL     1      34.950 -23.352 -16.784  0.00  0.00    +0.071 C 
ATOM      9  C   UNL     1      32.755 -23.616 -16.340  0.00  0.00    +0.069 C 
ATOM     10  C   UNL     1      33.686 -23.093 -17.272  0.00  0.00    +0.059 C 
ATOM     11  C   UNL     1      31.366 -23.688 -16.231  0.00  0.00    +0.116 C 
ATOM     12  C   UNL     1      31.652 -24.792 -14.221  0.00  0.00    +0.143 C 
ATOM     13  H   UNL     1      31.583 -25.800 -12.394  0.00  0.00    +0.155 HD
ATOM     14  H   UNL     1      30.051 -25.450 -13.053  0.00  0.00    +0.155 HD
BRANCH   3  15
ATOM     15  C   UNL     1      35.994 -24.490 -14.715  0.00  0.00    +0.091 C 
ATOM     16  C   UNL     1      36.303 -25.999 -14.862  0.00  0.00    +0.023 C 
ATOM     17  C   UNL     1      37.273 -23.726 -15.131  0.00  0.00    +0.023 C 
BRANCH  15  18
ATOM     18  C   UNL     1      35.705 -24.198 -13.221  0.00  0.00    +0.155 C 
BRANCH  18  19
ATOM     19  O   UNL     1      35.581 -25.411 -12.486  0.00  0.00    -0.380 OA
ATOM     20  H   UNL     1      35.579 -25.214 -11.536  0.00  0.00    +0.211 HD
ENDBRANCH  18  19
ENDBRANCH  15  18
ENDBRANCH   3  15
ENDBRANCH   2  10
BRANCH   2  22
ATOM     21  N   UNL     1      36.805 -21.077 -19.545  0.00  0.00    -0.241 NA
ATOM     22  C   UNL     1      34.476 -21.670 -19.279  0.00  0.00    +0.059 C 
ATOM     23  C   UNL     1      34.147 -20.909 -20.396  0.00  0.00    +0.021 C 
ATOM     24  C   UNL     1      35.807 -21.721 -18.897  0.00  0.00    +0.102 C 
ATOM     25  C   UNL     1      35.146 -20.231 -21.087  0.00  0.00    +0.070 C 
ATOM     26  C   UNL     1      36.447 -20.347 -20.625  0.00  0.00    +0.113 C 
BRANCH  25  28
ATOM     27  O   UNL     1      36.833 -18.261 -22.598  0.00  0.00    -0.274 OA
ATOM     28  N   UNL     1      34.846 -19.461 -22.208  0.00  0.00    -0.282 N 
ATOM     29  C   UNL     1      35.674 -18.547 -22.884  0.00  0.00    +0.232 C 
ATOM     30  H   UNL     1      33.939 -19.569 -22.573  0.00  0.00    +0.155 HD
BRANCH  29  31
ATOM     31  C   UNL     1      34.950 -17.918 -24.064  0.00  0.00    +0.131 C 
BRANCH  31  34
ATOM     32 CL   UNL     1      33.313 -12.258 -23.250  0.00  0.00    -0.081 Cl
ATOM     33  N   UNL     1      33.819 -15.893 -24.798  0.00  0.00    -0.247 NA
ATOM     34  C   UNL     1      34.551 -16.485 -23.828  0.00  0.00    +0.068 C 
ATOM     35  C   UNL     1      34.944 -15.855 -22.658  0.00  0.00    +0.016 C 
ATOM     36  C   UNL     1      34.559 -14.532 -22.471  0.00  0.00    +0.014 C 
ATOM     37  C   UNL     1      33.463 -14.607 -24.581  0.00  0.00    +0.110 C 
ATOM     38  C   UNL     1      33.805 -13.888 -23.447  0.00  0.00    +0.077 C 
ENDBRANCH  31  34
ENDBRANCH  29  31
ENDBRANCH  25  28
ENDBRANCH   2  22
TORSDOF 8
ENDMDL
MODEL 2
REMARK VINA RESULT:     -12.1      1.905      3.318
REMARK  Name = 66571548
REMARK  8 active torsions:
REMARK  status: ('A' for Active; 'I' for Inactive)
REMARK    1  A    between atoms: C_2  and  C_10
REMARK    2  A    between atoms: C_2  and  C_22
REMARK    3  A    between atoms: N_3  and  C_15
REMARK    4  A    between atoms: C_15  and  C_18
REMARK    5  A    between atoms: C_18  and  O_19
REMARK    6  A    between atoms: C_25  and  N_28
REMARK    7  A    between atoms: C_29  and  C_31
REMARK    8  A    between atoms: C_31  and  C_34
REMARK                            x       y       z     vdW  Elec       q    Type
REMARK                         _______ _______ _______ _____ _____    ______ ____
ROOT
ATOM      1  O   UNL     1      36.763 -22.378 -18.893  0.00  0.00    -0.286 OA
ATOM      2  C   UNL     1      35.577 -22.209 -18.535  0.00  0.00    +0.199 C 
ENDROOT
BRANCH   2  10
ATOM      3  N   UNL     1      33.719 -23.453 -15.702  0.00  0.00    -0.261 N 
ATOM      4  N   UNL     1      35.258 -23.779 -13.874  0.00  0.00    -0.322 NA
ATOM      5  N   UNL     1      37.551 -23.191 -14.447  0.00  0.00    -0.170 NA
ATOM      6  N   UNL     1      36.990 -23.982 -12.317  0.00  0.00    -0.293 N 
ATOM      7  C   UNL     1      34.966 -23.419 -15.136  0.00  0.00    +0.201 C 
ATOM      8  C   UNL     1      33.794 -23.020 -17.000  0.00  0.00    +0.071 C 
ATOM      9  C   UNL     1      35.858 -22.952 -16.094  0.00  0.00    +0.069 C 
ATOM     10  C   UNL     1      35.108 -22.701 -17.271  0.00  0.00    +0.059 C 
ATOM     11  C   UNL     1      37.192 -22.843 -15.705  0.00  0.00    +0.116 C 
ATOM     12  C   UNL     1      36.574 -23.631 -13.622  0.00  0.00    +0.143 C 
ATOM     13  H   UNL     1      36.332 -24.311 -11.663  0.00  0.00    +0.155 HD
ATOM     14  H   UNL     1      37.937 -23.899 -12.063  0.00  0.00    +0.155 HD
BRANCH   3  15
ATOM     15  C   UNL     1      32.425 -23.905 -14.999  0.00  0.00    +0.091 C 
ATOM     16  C   UNL     1      31.967 -22.951 -13.870  0.00  0.00    +0.023 C 
ATOM     17  C   UNL     1      31.279 -23.956 -16.037  0.00  0.00    +0.023 C 
BRANCH  15  18
ATOM     18  C   UNL     1      32.608 -25.320 -14.392  0.00  0.00    +0.155 C 
BRANCH  18  19
ATOM     19  O   UNL     1      32.726 -25.248 -12.975  0.00  0.00    -0.380 OA
ATOM     20  H   UNL     1      33.174 -24.424 -12.730  0.00  0.00    +0.211 HD
ENDBRANCH  18  19
ENDBRANCH  15  18
ENDBRANCH   3  15
ENDBRANCH   2  10
BRANCH   2  22
ATOM     21  N   UNL     1      32.486 -21.085 -20.408  0.00  0.00    -0.241 NA
ATOM     22  C   UNL     1      34.696 -21.469 -19.505  0.00  0.00    +0.059 C 
ATOM     23  C   UNL     1      35.225 -20.521 -20.375  0.00  0.00    +0.021 C 
ATOM     24  C   UNL     1      33.333 -21.713 -19.561  0.00  0.00    +0.102 C 
ATOM     25  C   UNL     1      34.385 -19.854 -21.261  0.00  0.00    +0.070 C 
ATOM     26  C   UNL     1      33.036 -20.169 -21.238  0.00  0.00    +0.113 C 
BRANCH  25  28
ATOM     27  O   UNL     1      33.762 -19.372 -24.158  0.00  0.00    -0.274 OA
ATOM     28  N   UNL     1      34.886 -18.901 -22.144  0.00  0.00    -0.282 N 
ATOM     29  C   UNL     1      34.561 -18.712 -23.499  0.00  0.00    +0.232 C 
ATOM     30  H   UNL     1      35.551 -18.280 -21.772  0.00  0.00    +0.155 HD
BRANCH  29  31
ATOM     31  C   UNL     1      35.342 -17.551 -24.095  0.00  0.00    +0.131 C 
BRANCH  31  34
ATOM     32 CL   UNL     1      32.924 -12.242 -22.932  0.00  0.00    -0.081 Cl
ATOM     33  N   UNL     1      35.018 -15.619 -22.652  0.00  0.00    -0.247 NA
ATOM     34  C   UNL     1      34.714 -16.208 -23.831  0.00  0.00    +0.068 C 
ATOM     35  C   UNL     1      33.875 -15.651 -24.782  0.00  0.00    +0.016 C 
ATOM     36  C   UNL     1      33.312 -14.410 -24.507  0.00  0.00    +0.014 C 
ATOM     37  C   UNL     1      34.452 -14.414 -22.419  0.00  0.00    +0.110 C 
ATOM     38  C   UNL     1      33.600 -13.773 -23.305  0.00  0.00    +0.077 C 
ENDBRANCH  31  34
ENDBRANCH  29  31
ENDBRANCH  25  28
ENDBRANCH   2  22
TORSDOF 8
ENDMDL
MODEL 3
REMARK VINA RESULT:     -11.2      1.836      3.278
REMARK  Name = 66571548
REMARK  8 active torsions:
REMARK  status: ('A' for Active; 'I' for Inactive)
REMARK    1  A    between atoms: C_2  and  C_10
REMARK    2  A    between atoms: C_2  and  C_22
REMARK    3  A    between atoms: N_3  and  C_15
REMARK    4  A    between atoms: C_15  and  C_18
REMARK    5  A    between atoms: C_18  and  O_19
REMARK    6  A    between atoms: C_25  and  N_28
REMARK    7  A    between atoms: C_29  and  C_31
REMARK    8  A    between atoms: C_31  and  C_34
REMARK                            x       y       z     vdW  Elec       q    Type
REMARK                         _______ _______ _______ _____ _____    ______ ____
ROOT
ATOM      1  O   UNL     1      32.515 -21.940 -20.443  0.00  0.00    -0.286 OA
ATOM      2  C   UNL     1      33.395 -21.882 -19.558  0.00  0.00    +0.199 C 
ENDROOT
BRANCH   2  10
ATOM      3  N   UNL     1      32.127 -23.268 -16.477  0.00  0.00    -0.261 N 
ATOM      4  N   UNL     1      34.005 -23.933 -15.118  0.00  0.00    -0.322 NA
ATOM      5  N   UNL     1      36.150 -23.489 -16.182  0.00  0.00    -0.170 NA
ATOM      6  N   UNL     1      36.020 -24.463 -14.057  0.00  0.00    -0.293 N 
ATOM      7  C   UNL     1      33.468 -23.409 -16.233  0.00  0.00    +0.201 C 
ATOM      8  C   UNL     1      31.943 -22.700 -17.710  0.00  0.00    +0.071 C 
ATOM      9  C   UNL     1      34.156 -22.917 -17.336  0.00  0.00    +0.069 C 
ATOM     10  C   UNL     1      33.184 -22.470 -18.266  0.00  0.00    +0.059 C 
ATOM     11  C   UNL     1      35.548 -22.972 -17.278  0.00  0.00    +0.116 C 
ATOM     12  C   UNL     1      35.352 -23.932 -15.184  0.00  0.00    +0.143 C 
ATOM     13  H   UNL     1      35.501 -24.804 -13.293  0.00  0.00    +0.155 HD
ATOM     14  H   UNL     1      37.004 -24.493 -14.037  0.00  0.00    +0.155 HD
BRANCH   3  15
ATOM     15  C   UNL     1      30.991 -23.680 -15.520  0.00  0.00    +0.091 C 
ATOM     16  C   UNL     1      31.098 -23.036 -14.117  0.00  0.00    +0.023 C 
ATOM     17  C   UNL     1      29.639 -23.230 -16.120  0.00  0.00    +0.023 C 
BRANCH  15  18
ATOM     18  C   UNL     1      30.968 -25.220 -15.345  0.00  0.00    +0.155 C 
BRANCH  18  19
ATOM     19  O   UNL     1      30.054 -25.596 -14.320  0.00  0.00    -0.380 OA
ATOM     20  H   UNL     1      29.983 -26.563 -14.289  0.00  0.00    +0.211 HD
ENDBRANCH  18  19
ENDBRANCH  15  18
ENDBRANCH   3  15
ENDBRANCH   2  10
BRANCH   2  22
ATOM     21  N   UNL     1      37.073 -21.022 -19.795  0.00  0.00    -0.241 NA
ATOM     22  C   UNL     1      34.663 -21.167 -19.937  0.00  0.00    +0.059 C 
ATOM     23  C   UNL     1      34.635 -20.032 -20.740  0.00  0.00    +0.021 C 
ATOM     24  C   UNL     1      35.896 -21.617 -19.493  0.00  0.00    +0.102 C 
ATOM     25  C   UNL     1      35.824 -19.392 -21.072  0.00  0.00    +0.070 C 
ATOM     26  C   UNL     1      37.006 -19.922 -20.578  0.00  0.00    +0.113 C 
BRANCH  25  28
ATOM     27  O   UNL     1      34.613 -18.918 -23.778  0.00  0.00    -0.274 OA
ATOM     28  N   UNL     1      35.827 -18.253 -21.874  0.00  0.00    -0.282 N 
ATOM     29  C   UNL     1      35.242 -18.078 -23.141  0.00  0.00    +0.232 C 
ATOM     30  H   UNL     1      36.299 -17.472 -21.507  0.00  0.00    +0.155 HD
BRANCH  29  31
ATOM     31  C   UNL     1      35.483 -16.672 -23.667  0.00  0.00    +0.131 C 
BRANCH  31  34
ATOM     32 CL   UNL     1      32.206 -12.575 -20.863  0.00  0.00    -0.081 Cl
ATOM     33  N   UNL     1      34.736 -15.552 -21.641  0.00  0.00    -0.247 NA
ATOM     34  C   UNL     1      34.641 -15.625 -22.987  0.00  0.00    +0.068 C 
ATOM     35  C   UNL     1      33.827 -14.805 -23.753  0.00  0.00    +0.016 C 
ATOM     36  C   UNL     1      33.063 -13.848 -23.094  0.00  0.00    +0.014 C 
ATOM     37  C   UNL     1      33.979 -14.611 -21.035  0.00  0.00    +0.110 C 
ATOM     38  C   UNL     1      33.134 -13.743 -21.709  0.00  0.00    +0.077 C 
ENDBRANCH  31  34
ENDBRANCH  29  31
ENDBRANCH  25  28
ENDBRANCH   2  22
TORSDOF 8
ENDMDL
MODEL 4
REMARK VINA RESULT:     -11.1      1.695      2.162
REMARK  Name = 66571548
REMARK  8 active torsions:
REMARK  status: ('A' for Active; 'I' for Inactive)
REMARK    1  A    between atoms: C_2  and  C_10
REMARK    2  A    between atoms: C_2  and  C_22
REMARK    3  A    between atoms: N_3  and  C_15
REMARK    4  A    between atoms: C_15  and  C_18
REMARK    5  A    between atoms: C_18  and  O_19
REMARK    6  A    between atoms: C_25  and  N_28
REMARK    7  A    between atoms: C_29  and  C_31
REMARK    8  A    between atoms: C_31  and  C_34
REMARK                            x       y       z     vdW  Elec       q    Type
REMARK                         _______ _______ _______ _____ _____    ______ ____
ROOT
ATOM      1  O   UNL     1      37.251 -22.437 -17.782  0.00  0.00    -0.286 OA
ATOM      2  C   UNL     1      36.051 -22.549 -17.453  0.00  0.00    +0.199 C 
ENDROOT
BRANCH   2  10
ATOM      3  N   UNL     1      35.858 -23.843 -14.089  0.00  0.00    -0.261 N 
ATOM      4  N   UNL     1      33.578 -24.503 -13.663  0.00  0.00    -0.322 NA
ATOM      5  N   UNL     1      32.108 -24.122 -15.566  0.00  0.00    -0.170 NA
ATOM      6  N   UNL     1      31.305 -25.040 -13.569  0.00  0.00    -0.293 N 
ATOM      7  C   UNL     1      34.546 -23.999 -14.449  0.00  0.00    +0.201 C 
ATOM      8  C   UNL     1      36.558 -23.298 -15.135  0.00  0.00    +0.071 C 
ATOM      9  C   UNL     1      34.404 -23.545 -15.754  0.00  0.00    +0.069 C 
ATOM     10  C   UNL     1      35.681 -23.103 -16.182  0.00  0.00    +0.059 C 
ATOM     11  C   UNL     1      33.126 -23.623 -16.307  0.00  0.00    +0.116 C 
ATOM     12  C   UNL     1      32.395 -24.525 -14.308  0.00  0.00    +0.143 C 
ATOM     13  H   UNL     1      31.441 -25.353 -12.646  0.00  0.00    +0.155 HD
ATOM     14  H   UNL     1      30.411 -25.086 -13.978  0.00  0.00    +0.155 HD
BRANCH   3  15
ATOM     15  C   UNL     1      36.468 -24.219 -12.724  0.00  0.00    +0.091 C 
ATOM     16  C   UNL     1      36.992 -25.674 -12.659  0.00  0.00    +0.023 C 
ATOM     17  C   UNL     1      37.673 -23.293 -12.439  0.00  0.00    +0.023 C 
BRANCH  15  18
ATOM     18  C   UNL     1      35.420 -24.031 -11.598  0.00  0.00    +0.155 C 
BRANCH  18  19
ATOM     19  O   UNL     1      34.975 -25.292 -11.110  0.00  0.00    -0.380 OA
ATOM     20  H   UNL     1      35.546 -25.994 -11.460  0.00  0.00    +0.211 HD
ENDBRANCH  18  19
ENDBRANCH  15  18
ENDBRANCH   3  15
ENDBRANCH   2  10
BRANCH   2  22
ATOM     21  N   UNL     1      32.752 -22.030 -19.233  0.00  0.00    -0.241 NA
ATOM     22  C   UNL     1      35.044 -22.072 -18.463  0.00  0.00    +0.059 C 
ATOM     23  C   UNL     1      35.425 -21.267 -19.532  0.00  0.00    +0.021 C 
ATOM     24  C   UNL     1      33.707 -22.423 -18.361  0.00  0.00    +0.102 C 
ATOM     25  C   UNL     1      34.472 -20.843 -20.451  0.00  0.00    +0.070 C 
ATOM     26  C   UNL     1      33.160 -21.248 -20.258  0.00  0.00    +0.113 C 
BRANCH  25  28
ATOM     27  O   UNL     1      36.469 -18.609 -20.639  0.00  0.00    -0.274 OA
ATOM     28  N   UNL     1      34.824 -20.037 -21.531  0.00  0.00    -0.282 N 
ATOM     29  C   UNL     1      35.771 -18.998 -21.571  0.00  0.00    +0.232 C 
ATOM     30  H   UNL     1      34.349 -20.218 -22.373  0.00  0.00    +0.155 HD
BRANCH  29  31
ATOM     31  C   UNL     1      35.844 -18.374 -22.956  0.00  0.00    +0.131 C 
BRANCH  31  34
ATOM     32 CL   UNL     1      33.340 -12.981 -23.138  0.00  0.00    -0.081 Cl
ATOM     33  N   UNL     1      35.194 -16.282 -21.898  0.00  0.00    -0.247 NA
ATOM     34  C   UNL     1      35.203 -17.014 -23.035  0.00  0.00    +0.068 C 
ATOM     35  C   UNL     1      34.665 -16.585 -24.237  0.00  0.00    +0.016 C 
ATOM     36  C   UNL     1      34.081 -15.324 -24.276  0.00  0.00    +0.014 C 
ATOM     37  C   UNL     1      34.618 -15.061 -21.974  0.00  0.00    +0.110 C 
ATOM     38  C   UNL     1      34.052 -14.541 -23.127  0.00  0.00    +0.077 C 
ENDBRANCH  31  34
ENDBRANCH  29  31
ENDBRANCH  25  28
ENDBRANCH   2  22
TORSDOF 8
ENDMDL
MODEL 5
REMARK VINA RESULT:     -10.8      5.100     11.866
REMARK  Name = 66571548
REMARK  8 active torsions:
REMARK  status: ('A' for Active; 'I' for Inactive)
REMARK    1  A    between atoms: C_2  and  C_10
REMARK    2  A    between atoms: C_2  and  C_22
REMARK    3  A    between atoms: N_3  and  C_15
REMARK    4  A    between atoms: C_15  and  C_18
REMARK    5  A    between atoms: C_18  and  O_19
REMARK    6  A    between atoms: C_25  and  N_28
REMARK    7  A    between atoms: C_29  and  C_31
REMARK    8  A    between atoms: C_31  and  C_34
REMARK                            x       y       z     vdW  Elec       q    Type
REMARK                         _______ _______ _______ _____ _____    ______ ____
ROOT
ATOM      1  O   UNL     1      33.943 -14.006 -26.902  0.00  0.00    -0.286 OA
ATOM      2  C   UNL     1      33.709 -14.347 -25.723  0.00  0.00    +0.199 C 
ENDROOT
BRANCH   2  10
ATOM      3  N   UNL     1      32.718 -12.442 -22.822  0.00  0.00    -0.261 N 
ATOM      4  N   UNL     1      33.629 -10.219 -23.032  0.00  0.00    -0.322 NA
ATOM      5  N   UNL     1      34.912  -9.908 -25.077  0.00  0.00    -0.170 NA
ATOM      6  N   UNL     1      34.641  -8.172 -23.531  0.00  0.00    -0.293 N 
ATOM      7  C   UNL     1      33.436 -11.474 -23.473  0.00  0.00    +0.201 C 
ATOM      8  C   UNL     1      32.734 -13.598 -23.560  0.00  0.00    +0.071 C 
ATOM      9  C   UNL     1      33.919 -12.023 -24.655  0.00  0.00    +0.069 C 
ATOM     10  C   UNL     1      33.471 -13.367 -24.703  0.00  0.00    +0.059 C 
ATOM     11  C   UNL     1      34.682 -11.183 -25.467  0.00  0.00    +0.116 C 
ATOM     12  C   UNL     1      34.378  -9.511 -23.900  0.00  0.00    +0.143 C 
ATOM     13  H   UNL     1      34.284  -7.815 -22.686  0.00  0.00    +0.155 HD
ATOM     14  H   UNL     1      35.182  -7.596 -24.118  0.00  0.00    +0.155 HD
BRANCH   3  15
ATOM     15  C   UNL     1      31.999 -12.272 -21.470  0.00  0.00    +0.091 C 
ATOM     16  C   UNL     1      30.538 -11.780 -21.603  0.00  0.00    +0.023 C 
ATOM     17  C   UNL     1      31.950 -13.640 -20.750  0.00  0.00    +0.023 C 
BRANCH  15  18
ATOM     18  C   UNL     1      32.768 -11.268 -20.574  0.00  0.00    +0.155 C 
BRANCH  18  19
ATOM     19  O   UNL     1      32.048 -10.046 -20.456  0.00  0.00    -0.380 OA
ATOM     20  H   UNL     1      31.304 -10.047 -21.079  0.00  0.00    +0.211 HD
ENDBRANCH  18  19
ENDBRANCH  15  18
ENDBRANCH   3  15
ENDBRANCH   2  10
BRANCH   2  22
ATOM     21  N   UNL     1      32.778 -18.007 -25.960  0.00  0.00    -0.241 NA
ATOM     22  C   UNL     1      33.696 -15.828 -25.457  0.00  0.00    +0.059 C 
ATOM     23  C   UNL     1      34.538 -16.394 -24.506  0.00  0.00    +0.021 C 
ATOM     24  C   UNL     1      32.842 -16.670 -26.150  0.00  0.00    +0.102 C 
ATOM     25  C   UNL     1      34.501 -17.766 -24.282  0.00  0.00    +0.070 C 
ATOM     26  C   UNL     1      33.612 -18.522 -25.029  0.00  0.00    +0.113 C 
BRANCH  25  28
ATOM     27  O   UNL     1      35.274 -16.856 -21.527  0.00  0.00    -0.274 OA
ATOM     28  N   UNL     1      35.332 -18.361 -23.335  0.00  0.00    -0.282 N 
ATOM     29  C   UNL     1      35.665 -17.894 -22.052  0.00  0.00    +0.232 C 
ATOM     30  H   UNL     1      35.739 -19.217 -23.600  0.00  0.00    +0.155 HD
BRANCH  29  31
ATOM     31  C   UNL     1      36.608 -18.856 -21.345  0.00  0.00    +0.131 C 
BRANCH  31  34
ATOM     32 CL   UNL     1      33.920 -23.306 -18.455  0.00  0.00    -0.081 Cl
ATOM     33  N   UNL     1      36.655 -20.754 -19.824  0.00  0.00    -0.247 NA
ATOM     34  C   UNL     1      35.898 -19.974 -20.627  0.00  0.00    +0.068 C 
ATOM     35  C   UNL     1      34.537 -20.148 -20.819  0.00  0.00    +0.016 C 
ATOM     36  C   UNL     1      33.912 -21.189 -20.142  0.00  0.00    +0.014 C 
ATOM     37  C   UNL     1      36.013 -21.755 -19.181  0.00  0.00    +0.110 C 
ATOM     38  C   UNL     1      34.657 -22.013 -19.306  0.00  0.00    +0.077 C 
ENDBRANCH  31  34
ENDBRANCH  29  31
ENDBRANCH  25  28
ENDBRANCH   2  22
TORSDOF 8
ENDMDL
MODEL 6
REMARK VINA RESULT:     -10.7      6.867     10.777
REMARK  Name = 66571548
REMARK  8 active torsions:
REMARK  status: ('A' for Active; 'I' for Inactive)
REMARK    1  A    between atoms: C_2  and  C_10
REMARK    2  A    between atoms: C_2  and  C_22
REMARK    3  A    between atoms: N_3  and  C_15
REMARK    4  A    between atoms: C_15  and  C_18
REMARK    5  A    between atoms: C_18  and  O_19
REMARK    6  A    between atoms: C_25  and  N_28
REMARK    7  A    between atoms: C_29  and  C_31
REMARK    8  A    between atoms: C_31  and  C_34
REMARK                            x       y       z     vdW  Elec       q    Type
REMARK                         _______ _______ _______ _____ _____    ______ ____
ROOT
ATOM      1  O   UNL     1      34.193 -12.646 -24.757  0.00  0.00    -0.286 OA
ATOM      2  C   UNL     1      33.769 -13.274 -23.763  0.00  0.00    +0.199 C 
ENDROOT
BRANCH   2  10
ATOM      3  N   UNL     1      34.811 -16.528 -22.601  0.00  0.00    -0.261 N 
ATOM      4  N   UNL     1      34.368 -18.131 -24.347  0.00  0.00    -0.322 NA
ATOM      5  N   UNL     1      33.379 -17.124 -26.331  0.00  0.00    -0.170 NA
ATOM      6  N   UNL     1      33.820 -19.420 -26.220  0.00  0.00    -0.293 N 
ATOM      7  C   UNL     1      34.361 -16.884 -23.844  0.00  0.00    +0.201 C 
ATOM      8  C   UNL     1      34.649 -15.178 -22.424  0.00  0.00    +0.071 C 
ATOM      9  C   UNL     1      33.902 -15.736 -24.478  0.00  0.00    +0.069 C 
ATOM     10  C   UNL     1      34.087 -14.660 -23.573  0.00  0.00    +0.059 C 
ATOM     11  C   UNL     1      33.398 -15.893 -25.769  0.00  0.00    +0.116 C 
ATOM     12  C   UNL     1      33.858 -18.152 -25.595  0.00  0.00    +0.143 C 
ATOM     13  H   UNL     1      34.153 -20.213 -25.741  0.00  0.00    +0.155 HD
ATOM     14  H   UNL     1      33.460 -19.509 -27.131  0.00  0.00    +0.155 HD
BRANCH   3  15
ATOM     15  C   UNL     1      35.411 -17.486 -21.553  0.00  0.00    +0.091 C 
ATOM     16  C   UNL     1      36.844 -17.961 -21.896  0.00  0.00    +0.023 C 
ATOM     17  C   UNL     1      35.493 -16.756 -20.192  0.00  0.00    +0.023 C 
BRANCH  15  18
ATOM     18  C   UNL     1      34.512 -18.738 -21.392  0.00  0.00    +0.155 C 
BRANCH  18  19
ATOM     19  O   UNL     1      35.081 -19.857 -22.064  0.00  0.00    -0.380 OA
ATOM     20  H   UNL     1      35.954 -19.615 -22.411  0.00  0.00    +0.211 HD
ENDBRANCH  18  19
ENDBRANCH  15  18
ENDBRANCH   3  15
ENDBRANCH   2  10
BRANCH   2  22
ATOM     21  N   UNL     1      31.442 -12.473 -20.888  0.00  0.00    -0.241 NA
ATOM     22  C   UNL     1      32.921 -12.488 -22.801  0.00  0.00    +0.059 C 
ATOM     23  C   UNL     1      32.811 -11.105 -22.905  0.00  0.00    +0.021 C 
ATOM     24  C   UNL     1      32.222 -13.119 -21.785  0.00  0.00    +0.102 C 
ATOM     25  C   UNL     1      32.017 -10.406 -22.002  0.00  0.00    +0.070 C 
ATOM     26  C   UNL     1      31.360 -11.130 -21.021  0.00  0.00    +0.113 C 
BRANCH  25  28
ATOM     27  O   UNL     1      32.743  -8.268 -20.023  0.00  0.00    -0.274 OA
ATOM     28  N   UNL     1      31.888  -9.021 -22.083  0.00  0.00    -0.282 N 
ATOM     29  C   UNL     1      32.244  -8.056 -21.125  0.00  0.00    +0.232 C 
ATOM     30  H   UNL     1      31.496  -8.675 -22.916  0.00  0.00    +0.155 HD
BRANCH  29  31
ATOM     31  C   UNL     1      31.931  -6.652 -21.618  0.00  0.00    +0.131 C 
BRANCH  31  34
ATOM     32 CL   UNL     1      35.132  -5.181 -26.412  0.00  0.00    -0.081 Cl
ATOM     33  N   UNL     1      33.861  -6.941 -23.072  0.00  0.00    -0.247 NA
ATOM     34  C   UNL     1      32.719  -6.255 -22.839  0.00  0.00    +0.068 C 
ATOM     35  C   UNL     1      32.250  -5.233 -23.648  0.00  0.00    +0.016 C 
ATOM     36  C   UNL     1      33.000  -4.892 -24.768  0.00  0.00    +0.014 C 
ATOM     37  C   UNL     1      34.564  -6.582 -24.169  0.00  0.00    +0.110 C 
ATOM     38  C   UNL     1      34.181  -5.574 -25.040  0.00  0.00    +0.077 C 
ENDBRANCH  31  34
ENDBRANCH  29  31
ENDBRANCH  25  28
ENDBRANCH   2  22
TORSDOF 8
ENDMDL
MODEL 7
REMARK VINA RESULT:     -10.4      3.731     10.914
REMARK  Name = 66571548
REMARK  8 active torsions:
REMARK  status: ('A' for Active; 'I' for Inactive)
REMARK    1  A    between atoms: C_2  and  C_10
REMARK    2  A    between atoms: C_2  and  C_22
REMARK    3  A    between atoms: N_3  and  C_15
REMARK    4  A    between atoms: C_15  and  C_18
REMARK    5  A    between atoms: C_18  and  O_19
REMARK    6  A    between atoms: C_25  and  N_28
REMARK    7  A    between atoms: C_29  and  C_31
REMARK    8  A    between atoms: C_31  and  C_34
REMARK                            x       y       z     vdW  Elec       q    Type
REMARK                         _______ _______ _______ _____ _____    ______ ____
ROOT
ATOM      1  O   UNL     1      34.886 -19.242 -24.479  0.00  0.00    -0.286 OA
ATOM      2  C   UNL     1      35.032 -18.496 -23.487  0.00  0.00    +0.199 C 
ENDROOT
BRANCH   2  10
ATOM      3  N   UNL     1      34.145 -15.058 -22.839  0.00  0.00    -0.261 N 
ATOM      4  N   UNL     1      33.374 -14.076 -24.902  0.00  0.00    -0.322 NA
ATOM      5  N   UNL     1      33.412 -15.638 -26.770  0.00  0.00    -0.170 NA
ATOM      6  N   UNL     1      32.685 -13.429 -27.041  0.00  0.00    -0.293 N 
ATOM      7  C   UNL     1      33.850 -15.102 -24.176  0.00  0.00    +0.201 C 
ATOM      8  C   UNL     1      34.609 -16.282 -22.432  0.00  0.00    +0.071 C 
ATOM      9  C   UNL     1      34.130 -16.384 -24.634  0.00  0.00    +0.069 C 
ATOM     10  C   UNL     1      34.610 -17.125 -23.524  0.00  0.00    +0.059 C 
ATOM     11  C   UNL     1      33.891 -16.631 -25.985  0.00  0.00    +0.116 C 
ATOM     12  C   UNL     1      33.187 -14.438 -26.187  0.00  0.00    +0.143 C 
ATOM     13  H   UNL     1      32.499 -12.531 -26.684  0.00  0.00    +0.155 HD
ATOM     14  H   UNL     1      32.525 -13.624 -27.992  0.00  0.00    +0.155 HD
BRANCH   3  15
ATOM     15  C   UNL     1      33.984 -13.830 -21.923  0.00  0.00    +0.091 C 
ATOM     16  C   UNL     1      32.618 -13.772 -21.197  0.00  0.00    +0.023 C 
ATOM     17  C   UNL     1      35.074 -13.873 -20.827  0.00  0.00    +0.023 C 
BRANCH  15  18
ATOM     18  C   UNL     1      34.153 -12.523 -22.739  0.00  0.00    +0.155 C 
BRANCH  18  19
ATOM     19  O   UNL     1      32.898 -11.875 -22.917  0.00  0.00    -0.380 OA
ATOM     20  H   UNL     1      32.902 -11.387 -23.755  0.00  0.00    +0.211 HD
ENDBRANCH  18  19
ENDBRANCH  15  18
ENDBRANCH   3  15
ENDBRANCH   2  10
BRANCH   2  22
ATOM     21  N   UNL     1      37.531 -19.220 -20.739  0.00  0.00    -0.241 NA
ATOM     22  C   UNL     1      35.668 -19.126 -22.278  0.00  0.00    +0.059 C 
ATOM     23  C   UNL     1      35.038 -20.157 -21.590  0.00  0.00    +0.021 C 
ATOM     24  C   UNL     1      36.903 -18.698 -21.816  0.00  0.00    +0.102 C 
ATOM     25  C   UNL     1      35.653 -20.720 -20.477  0.00  0.00    +0.070 C 
ATOM     26  C   UNL     1      36.887 -20.220 -20.095  0.00  0.00    +0.113 C 
BRANCH  25  28
ATOM     27  O   UNL     1      32.804 -21.061 -19.593  0.00  0.00    -0.274 OA
ATOM     28  N   UNL     1      35.046 -21.755 -19.768  0.00  0.00    -0.282 N 
ATOM     29  C   UNL     1      33.701 -21.871 -19.377  0.00  0.00    +0.232 C 
ATOM     30  H   UNL     1      35.634 -22.500 -19.509  0.00  0.00    +0.155 HD
BRANCH  29  31
ATOM     31  C   UNL     1      33.459 -23.166 -18.617  0.00  0.00    +0.131 C 
BRANCH  31  34
ATOM     32 CL   UNL     1      36.368 -23.357 -13.431  0.00  0.00    -0.081 Cl
ATOM     33  N   UNL     1      35.490 -22.946 -17.295  0.00  0.00    -0.247 NA
ATOM     34  C   UNL     1      34.167 -23.223 -17.288  0.00  0.00    +0.068 C 
ATOM     35  C   UNL     1      33.448 -23.548 -16.149  0.00  0.00    +0.016 C 
ATOM     36  C   UNL     1      34.131 -23.591 -14.939  0.00  0.00    +0.014 C 
ATOM     37  C   UNL     1      36.120 -22.998 -16.100  0.00  0.00    +0.110 C 
ATOM     38  C   UNL     1      35.493 -23.313 -14.905  0.00  0.00    +0.077 C 
ENDBRANCH  31  34
ENDBRANCH  29  31
ENDBRANCH  25  28
ENDBRANCH   2  22
TORSDOF 8
ENDMDL
MODEL 8
REMARK VINA RESULT:     -10.3      5.590     12.957
REMARK  Name = 66571548
REMARK  8 active torsions:
REMARK  status: ('A' for Active; 'I' for Inactive)
REMARK    1  A    between atoms: C_2  and  C_10
REMARK    2  A    between atoms: C_2  and  C_22
REMARK    3  A    between atoms: N_3  and  C_15
REMARK    4  A    between atoms: C_15  and  C_18
REMARK    5  A    between atoms: C_18  and  O_19
REMARK    6  A    between atoms: C_25  and  N_28
REMARK    7  A    between atoms: C_29  and  C_31
REMARK    8  A    between atoms: C_31  and  C_34
REMARK                            x       y       z     vdW  Elec       q    Type
REMARK                         _______ _______ _______ _____ _____    ______ ____
ROOT
ATOM      1  O   UNL     1      34.893 -11.159 -25.847  0.00  0.00    -0.286 OA
ATOM      2  C   UNL     1      34.126 -11.527 -24.931  0.00  0.00    +0.199 C 
ENDROOT
BRANCH   2  10
ATOM      3  N   UNL     1      32.816  -8.618 -23.245  0.00  0.00    -0.261 N 
ATOM      4  N   UNL     1      31.678  -9.350 -21.249  0.00  0.00    -0.322 NA
ATOM      5  N   UNL     1      31.740 -11.766 -20.953  0.00  0.00    -0.170 NA
ATOM      6  N   UNL     1      30.664 -10.375 -19.408  0.00  0.00    -0.293 N 
ATOM      7  C   UNL     1      32.382  -9.579 -22.372  0.00  0.00    +0.201 C 
ATOM      8  C   UNL     1      33.498  -9.210 -24.276  0.00  0.00    +0.071 C 
ATOM      9  C   UNL     1      32.797 -10.814 -22.854  0.00  0.00    +0.069 C 
ATOM     10  C   UNL     1      33.503 -10.573 -24.060  0.00  0.00    +0.059 C 
ATOM     11  C   UNL     1      32.449 -11.931 -22.094  0.00  0.00    +0.116 C 
ATOM     12  C   UNL     1      31.403 -10.503 -20.607  0.00  0.00    +0.143 C 
ATOM     13  H   UNL     1      30.385  -9.484 -19.096  0.00  0.00    +0.155 HD
ATOM     14  H   UNL     1      30.428 -11.176 -18.888  0.00  0.00    +0.155 HD
BRANCH   3  15
ATOM     15  C   UNL     1      32.581  -7.101 -23.103  0.00  0.00    +0.091 C 
ATOM     16  C   UNL     1      33.519  -6.244 -23.987  0.00  0.00    +0.023 C 
ATOM     17  C   UNL     1      31.133  -6.773 -23.534  0.00  0.00    +0.023 C 
BRANCH  15  18
ATOM     18  C   UNL     1      32.772  -6.663 -21.629  0.00  0.00    +0.155 C 
BRANCH  18  19
ATOM     19  O   UNL     1      31.547  -6.184 -21.084  0.00  0.00    -0.380 OA
ATOM     20  H   UNL     1      30.811  -6.715 -21.427  0.00  0.00    +0.211 HD
ENDBRANCH  18  19
ENDBRANCH  15  18
ENDBRANCH   3  15
ENDBRANCH   2  10
BRANCH   2  22
ATOM     21  N   UNL     1      32.823 -15.010 -25.632  0.00  0.00    -0.241 NA
ATOM     22  C   UNL     1      33.908 -13.011 -24.812  0.00  0.00    +0.059 C 
ATOM     23  C   UNL     1      34.545 -13.753 -23.824  0.00  0.00    +0.021 C 
ATOM     24  C   UNL     1      33.064 -13.681 -25.683  0.00  0.00    +0.102 C 
ATOM     25  C   UNL     1      34.322 -15.123 -23.738  0.00  0.00    +0.070 C 
ATOM     26  C   UNL     1      33.461 -15.699 -24.658  0.00  0.00    +0.113 C 
BRANCH  25  28
ATOM     27  O   UNL     1      35.190 -17.998 -23.783  0.00  0.00    -0.274 OA
ATOM     28  N   UNL     1      34.946 -15.892 -22.759  0.00  0.00    -0.282 N 
ATOM     29  C   UNL     1      35.335 -17.242 -22.826  0.00  0.00    +0.232 C 
ATOM     30  H   UNL     1      35.138 -15.432 -21.911  0.00  0.00    +0.155 HD
BRANCH  29  31
ATOM     31  C   UNL     1      35.986 -17.692 -21.528  0.00  0.00    +0.131 C 
BRANCH  31  34
ATOM     32 CL   UNL     1      34.153 -22.999 -19.562  0.00  0.00    -0.081 Cl
ATOM     33  N   UNL     1      36.411 -19.850 -20.489  0.00  0.00    -0.247 NA
ATOM     34  C   UNL     1      35.490 -19.028 -21.040  0.00  0.00    +0.068 C 
ATOM     35  C   UNL     1      34.149 -19.345 -21.175  0.00  0.00    +0.016 C 
ATOM     36  C   UNL     1      33.724 -20.586 -20.714  0.00  0.00    +0.014 C 
ATOM     37  C   UNL     1      35.961 -21.048 -20.052  0.00  0.00    +0.110 C 
ATOM     38  C   UNL     1      34.641 -21.460 -20.142  0.00  0.00    +0.077 C 
ENDBRANCH  31  34
ENDBRANCH  29  31
ENDBRANCH  25  28
ENDBRANCH   2  22
TORSDOF 8
ENDMDL
MODEL 9
REMARK VINA RESULT:     -10.2      4.210     10.984
REMARK  Name = 66571548
REMARK  8 active torsions:
REMARK  status: ('A' for Active; 'I' for Inactive)
REMARK    1  A    between atoms: C_2  and  C_10
REMARK    2  A    between atoms: C_2  and  C_22
REMARK    3  A    between atoms: N_3  and  C_15
REMARK    4  A    between atoms: C_15  and  C_18
REMARK    5  A    between atoms: C_18  and  O_19
REMARK    6  A    between atoms: C_25  and  N_28
REMARK    7  A    between atoms: C_29  and  C_31
REMARK    8  A    between atoms: C_31  and  C_34
REMARK                            x       y       z     vdW  Elec       q    Type
REMARK                         _______ _______ _______ _____ _____    ______ ____
ROOT
ATOM      1  O   UNL     1      37.483 -19.014 -22.011  0.00  0.00    -0.286 OA
ATOM      2  C   UNL     1      36.281 -18.822 -21.725  0.00  0.00    +0.199 C 
ENDROOT
BRANCH   2  10
ATOM      3  N   UNL     1      34.656 -15.631 -22.172  0.00  0.00    -0.261 N 
ATOM      4  N   UNL     1      33.862 -15.499 -24.445  0.00  0.00    -0.322 NA
ATOM      5  N   UNL     1      34.367 -17.496 -25.744  0.00  0.00    -0.170 NA
ATOM      6  N   UNL     1      33.224 -15.684 -26.687  0.00  0.00    -0.293 N 
ATOM      7  C   UNL     1      34.482 -16.133 -23.434  0.00  0.00    +0.201 C 
ATOM      8  C   UNL     1      35.330 -16.545 -21.404  0.00  0.00    +0.071 C 
ATOM      9  C   UNL     1      35.055 -17.398 -23.474  0.00  0.00    +0.069 C 
ATOM     10  C   UNL     1      35.590 -17.652 -22.186  0.00  0.00    +0.059 C 
ATOM     11  C   UNL     1      34.978 -18.081 -24.688  0.00  0.00    +0.116 C 
ATOM     12  C   UNL     1      33.855 -16.258 -25.559  0.00  0.00    +0.143 C 
ATOM     13  H   UNL     1      32.829 -14.785 -26.624  0.00  0.00    +0.155 HD
ATOM     14  H   UNL     1      33.181 -16.182 -27.534  0.00  0.00    +0.155 HD
BRANCH   3  15
ATOM     15  C   UNL     1      34.175 -14.253 -21.677  0.00  0.00    +0.091 C 
ATOM     16  C   UNL     1      32.780 -14.288 -21.007  0.00  0.00    +0.023 C 
ATOM     17  C   UNL     1      35.170 -13.722 -20.620  0.00  0.00    +0.023 C 
BRANCH  15  18
ATOM     18  C   UNL     1      34.119 -13.248 -22.856  0.00  0.00    +0.155 C 
BRANCH  18  19
ATOM     19  O   UNL     1      32.773 -13.014 -23.255  0.00  0.00    -0.380 OA
ATOM     20  H   UNL     1      32.179 -13.192 -22.508  0.00  0.00    +0.211 HD
ENDBRANCH  18  19
ENDBRANCH  15  18
ENDBRANCH   3  15
ENDBRANCH   2  10
BRANCH   2  22
ATOM     21  N   UNL     1      33.619 -21.076 -20.257  0.00  0.00    -0.241 NA
ATOM     22  C   UNL     1      35.627 -19.883 -20.883  0.00  0.00    +0.059 C 
ATOM     23  C   UNL     1      36.366 -20.636 -19.976  0.00  0.00    +0.021 C 
ATOM     24  C   UNL     1      34.269 -20.139 -20.984  0.00  0.00    +0.102 C 
ATOM     25  C   UNL     1      35.732 -21.609 -19.210  0.00  0.00    +0.070 C 
ATOM     26  C   UNL     1      34.369 -21.788 -19.387  0.00  0.00    +0.113 C 
BRANCH  25  28
ATOM     27  O   UNL     1      37.228 -20.795 -16.737  0.00  0.00    -0.274 OA
ATOM     28  N   UNL     1      36.445 -22.378 -18.293  0.00  0.00    -0.282 N 
ATOM     29  C   UNL     1      37.132 -21.950 -17.144  0.00  0.00    +0.232 C 
ATOM     30  H   UNL     1      36.472 -23.345 -18.474  0.00  0.00    +0.155 HD
BRANCH  29  31
ATOM     31  C   UNL     1      37.779 -23.121 -16.422  0.00  0.00    +0.131 C 
BRANCH  31  34
ATOM     32 CL   UNL     1      35.415 -24.308 -11.093  0.00  0.00    -0.081 Cl
ATOM     33  N   UNL     1      37.981 -23.468 -14.022  0.00  0.00    -0.247 NA
ATOM     34  C   UNL     1      37.150 -23.424 -15.087  0.00  0.00    +0.068 C 
ATOM     35  C   UNL     1      35.783 -23.639 -15.013  0.00  0.00    +0.016 C 
ATOM     36  C   UNL     1      35.234 -23.915 -13.766  0.00  0.00    +0.014 C 
ATOM     37  C   UNL     1      37.412 -23.739 -12.826  0.00  0.00    +0.110 C 
ATOM     38  C   UNL     1      36.057 -23.969 -12.647  0.00  0.00    +0.077 C 
ENDBRANCH  31  34
ENDBRANCH  29  31
ENDBRANCH  25  28
ENDBRANCH   2  22
TORSDOF 8
ENDMDL
