MODEL 1
REMARK VINA RESULT:     -12.2      0.000      0.000
REMARK  Name = 24752833
REMARK  4 active torsions:
REMARK  status: ('A' for Active; 'I' for Inactive)
REMARK    1  A    between atoms: C_1  and  N_8
REMARK    2  A    between atoms: C_2  and  N_23
REMARK    3  A    between atoms: C_9  and  C_14
REMARK    4  A    between atoms: C_24  and  C_28
REMARK                            x       y       z     vdW  Elec       q    Type
REMARK                         _______ _______ _______ _____ _____    ______ ____
ROOT
ATOM      1  C   UNL     1      31.440 -23.403 -15.338  0.00  0.00    +0.090 C 
ATOM      2  C   UNL     1      31.003 -23.504 -16.810  0.00  0.00    +0.090 C 
ATOM      3  C   UNL     1      30.498 -24.189 -14.420  0.00  0.00    +0.021 C 
ATOM      4  C   UNL     1      29.532 -23.114 -16.989  0.00  0.00    +0.021 C 
ATOM      5  C   UNL     1      29.040 -23.784 -14.611  0.00  0.00    +0.002 C 
ATOM      6  C   UNL     1      28.614 -23.913 -16.069  0.00  0.00    +0.002 C 
ENDROOT
BRANCH   1   8
ATOM      7  O   UNL     1      32.905 -23.541 -12.872  0.00  0.00    -0.267 OA
ATOM      8  N   UNL     1      32.798 -23.871 -15.164  0.00  0.00    -0.298 N 
ATOM      9  C   UNL     1      33.421 -23.900 -13.926  0.00  0.00    +0.282 C 
ATOM     10  H   UNL     1      33.298 -24.182 -15.954  0.00  0.00    +0.150 HD
BRANCH   9  14
ATOM     11  S   UNL     1      35.848 -24.111 -15.277  0.00  0.00    -0.074 S 
ATOM     12  N   UNL     1      39.167 -26.189 -14.203  0.00  0.00    +0.387 N 
ATOM     13  N   UNL     1      35.355 -25.035 -12.903  0.00  0.00    -0.399 NA
ATOM     14  C   UNL     1      34.825 -24.385 -13.919  0.00  0.00    +0.210 C 
ATOM     15  C   UNL     1      36.661 -25.337 -13.216  0.00  0.00    +0.093 C 
ATOM     16  C   UNL     1      37.094 -24.922 -14.457  0.00  0.00    +0.082 C 
ATOM     17  C   UNL     1      37.551 -26.090 -12.293  0.00  0.00    +0.032 C 
ATOM     18  C   UNL     1      38.477 -25.129 -14.978  0.00  0.00    -0.059 C 
ATOM     19  C   UNL     1      39.027 -25.982 -12.744  0.00  0.00    -0.070 C 
ATOM     20  C   UNL     1      40.577 -26.257 -14.582  0.00  0.00    -0.101 C 
ATOM     21  H   UNL     1      38.721 -27.080 -14.427  0.00  0.00    -0.080 HD
ENDBRANCH   9  14
ENDBRANCH   1   8
BRANCH   2  23
ATOM     22  O   UNL     1      33.474 -24.269 -18.056  0.00  0.00    -0.269 OA
ATOM     23  N   UNL     1      31.835 -22.679 -17.657  0.00  0.00    -0.300 N 
ATOM     24  C   UNL     1      33.016 -23.140 -18.214  0.00  0.00    +0.259 C 
ATOM     25  H   UNL     1      31.551 -21.755 -17.845  0.00  0.00    +0.150 HD
BRANCH  24  28
ATOM     26 CL   UNL     1      35.957 -17.754 -22.903  0.00  0.00    -0.082 Cl
ATOM     27  N   UNL     1      35.129 -22.015 -18.993  0.00  0.00    -0.309 N 
ATOM     28  C   UNL     1      33.768 -22.160 -19.040  0.00  0.00    +0.102 C 
ATOM     29  C   UNL     1      33.276 -21.260 -19.956  0.00  0.00    +0.020 C 
ATOM     30  C   UNL     1      35.530 -21.031 -19.868  0.00  0.00    +0.048 C 
ATOM     31  C   UNL     1      34.380 -20.538 -20.489  0.00  0.00    +0.016 C 
ATOM     32  C   UNL     1      36.810 -20.543 -20.154  0.00  0.00    +0.015 C 
ATOM     33  C   UNL     1      34.512 -19.509 -21.442  0.00  0.00    +0.013 C 
ATOM     34  C   UNL     1      35.786 -19.012 -21.740  0.00  0.00    +0.058 C 
ATOM     35  C   UNL     1      36.917 -19.523 -21.104  0.00  0.00    +0.013 C 
ATOM     36  H   UNL     1      35.732 -22.537 -18.418  0.00  0.00    +0.152 HD
ENDBRANCH  24  28
ENDBRANCH   2  23
TORSDOF 4
ENDMDL
MODEL 2
REMARK VINA RESULT:     -11.5      2.611      7.423
REMARK  Name = 24752833
REMARK  4 active torsions:
REMARK  status: ('A' for Active; 'I' for Inactive)
REMARK    1  A    between atoms: C_1  and  N_8
REMARK    2  A    between atoms: C_2  and  N_23
REMARK    3  A    between atoms: C_9  and  C_14
REMARK    4  A    between atoms: C_24  and  C_28
REMARK                            x       y       z     vdW  Elec       q    Type
REMARK                         _______ _______ _______ _____ _____    ______ ____
ROOT
ATOM      1  C   UNL     1      30.937 -23.505 -16.788  0.00  0.00    +0.090 C 
ATOM      2  C   UNL     1      31.377 -23.340 -15.322  0.00  0.00    +0.090 C 
ATOM      3  C   UNL     1      29.458 -23.149 -16.970  0.00  0.00    +0.021 C 
ATOM      4  C   UNL     1      30.456 -24.107 -14.367  0.00  0.00    +0.021 C 
ATOM      5  C   UNL     1      28.559 -23.926 -16.014  0.00  0.00    +0.002 C 
ATOM      6  C   UNL     1      28.991 -23.732 -14.564  0.00  0.00    +0.002 C 
ENDROOT
BRANCH   1   8
ATOM      7  O   UNL     1      33.532 -24.169 -17.822  0.00  0.00    -0.267 OA
ATOM      8  N   UNL     1      31.749 -22.695 -17.670  0.00  0.00    -0.298 N 
ATOM      9  C   UNL     1      32.995 -23.105 -18.117  0.00  0.00    +0.282 C 
ATOM     10  H   UNL     1      31.403 -21.821 -17.964  0.00  0.00    +0.150 HD
BRANCH   9  14
ATOM     11  S   UNL     1      32.839 -21.133 -20.079  0.00  0.00    -0.074 S 
ATOM     12  N   UNL     1      35.864 -19.347 -22.115  0.00  0.00    +0.387 N 
ATOM     13  N   UNL     1      35.026 -22.024 -19.002  0.00  0.00    -0.399 NA
ATOM     14  C   UNL     1      33.714 -22.148 -18.997  0.00  0.00    +0.210 C 
ATOM     15  C   UNL     1      35.365 -21.058 -19.923  0.00  0.00    +0.093 C 
ATOM     16  C   UNL     1      34.316 -20.477 -20.601  0.00  0.00    +0.082 C 
ATOM     17  C   UNL     1      36.776 -20.678 -20.199  0.00  0.00    +0.032 C 
ATOM     18  C   UNL     1      34.467 -19.397 -21.620  0.00  0.00    -0.059 C 
ATOM     19  C   UNL     1      36.841 -19.357 -21.002  0.00  0.00    -0.070 C 
ATOM     20  C   UNL     1      36.060 -18.172 -22.963  0.00  0.00    -0.101 C 
ATOM     21  H   UNL     1      36.030 -20.187 -22.670  0.00  0.00    -0.080 HD
ENDBRANCH   9  14
ENDBRANCH   1   8
BRANCH   2  23
ATOM     22  O   UNL     1      32.755 -23.658 -12.823  0.00  0.00    -0.269 OA
ATOM     23  N   UNL     1      32.744 -23.774 -15.138  0.00  0.00    -0.300 N 
ATOM     24  C   UNL     1      33.322 -23.896 -13.886  0.00  0.00    +0.259 C 
ATOM     25  H   UNL     1      33.283 -23.991 -15.933  0.00  0.00    +0.150 HD
BRANCH  24  28
ATOM     26 CL   UNL     1      40.793 -25.648 -14.762  0.00  0.00    -0.082 Cl
ATOM     27  N   UNL     1      35.309 -25.038 -12.843  0.00  0.00    -0.309 N 
ATOM     28  C   UNL     1      34.744 -24.329 -13.869  0.00  0.00    +0.102 C 
ATOM     29  C   UNL     1      35.713 -24.113 -14.821  0.00  0.00    +0.020 C 
ATOM     30  C   UNL     1      36.636 -25.288 -13.115  0.00  0.00    +0.048 C 
ATOM     31  C   UNL     1      36.917 -24.714 -14.357  0.00  0.00    +0.016 C 
ATOM     32  C   UNL     1      37.599 -25.969 -12.363  0.00  0.00    +0.015 C 
ATOM     33  C   UNL     1      38.222 -24.826 -14.876  0.00  0.00    +0.013 C 
ATOM     34  C   UNL     1      39.195 -25.507 -14.136  0.00  0.00    +0.058 C 
ATOM     35  C   UNL     1      38.887 -26.068 -12.898  0.00  0.00    +0.013 C 
ATOM     36  H   UNL     1      34.836 -25.327 -12.031  0.00  0.00    +0.152 HD
ENDBRANCH  24  28
ENDBRANCH   2  23
TORSDOF 4
ENDMDL
