MODEL 1
REMARK VINA RESULT:     -11.8      0.000      0.000
REMARK  Name = 54576693
REMARK  3 active torsions:
REMARK  status: ('A' for Active; 'I' for Inactive)
REMARK    1  A    between atoms: N_2  and  C_19
REMARK    2  A    between atoms: N_4  and  C_14
REMARK    3  A    between atoms: C_19  and  C_24
REMARK                            x       y       z     vdW  Elec       q    Type
REMARK                         _______ _______ _______ _____ _____    ______ ____
ROOT
ATOM      1  O   UNL     1      32.118 -22.557 -18.008  0.00  0.00    -0.252 OA
ATOM      2  N   UNL     1      35.122 -20.263 -21.261  0.00  0.00    +0.392 N 
ATOM      3  N   UNL     1      33.935 -22.051 -19.349  0.00  0.00    -0.268 N 
ATOM      4  N   UNL     1      34.198 -23.417 -17.441  0.00  0.00    -0.266 N 
ATOM      5  C   UNL     1      33.799 -19.972 -20.694  0.00  0.00    -0.055 C 
ATOM      6  C   UNL     1      35.961 -20.937 -20.261  0.00  0.00    -0.055 C 
ATOM      7  C   UNL     1      35.324 -22.246 -19.786  0.00  0.00    +0.072 C 
ATOM      8  C   UNL     1      33.108 -21.264 -20.265  0.00  0.00    +0.072 C 
ATOM      9  C   UNL     1      33.326 -22.666 -18.232  0.00  0.00    +0.308 C 
ATOM     10  H   UNL     1      35.006 -20.884 -22.062  0.00  0.00    -0.079 HD
ATOM     11  H   UNL     1      34.961 -23.830 -17.905  0.00  0.00    +0.156 HD
ENDROOT
BRANCH   4  14
ATOM     12 CL   UNL     1      36.808 -23.354 -15.832  0.00  0.00    -0.081 Cl
ATOM     13  N   UNL     1      32.682 -24.128 -14.153  0.00  0.00    -0.241 NA
ATOM     14  C   UNL     1      34.107 -23.650 -16.047  0.00  0.00    +0.082 C 
ATOM     15  C   UNL     1      35.223 -23.647 -15.216  0.00  0.00    +0.074 C 
ATOM     16  C   UNL     1      32.871 -23.894 -15.470  0.00  0.00    +0.114 C 
ATOM     17  C   UNL     1      35.069 -23.884 -13.854  0.00  0.00    +0.033 C 
ATOM     18  C   UNL     1      33.790 -24.117 -13.377  0.00  0.00    +0.100 C 
ENDBRANCH   4  14
BRANCH   2  19
ATOM     19  C   UNL     1      35.764 -19.034 -21.725  0.00  0.00    -0.050 C 
BRANCH  19  24
ATOM     20  F   UNL     1      32.301 -14.997 -25.909  0.00  0.00    -0.125 F 
ATOM     21  F   UNL     1      34.260 -14.914 -26.882  0.00  0.00    -0.125 F 
ATOM     22  O   UNL     1      34.157 -15.393 -24.668  0.00  0.00    -0.395 OA
ATOM     23  O   UNL     1      33.385 -16.938 -26.355  0.00  0.00    -0.395 OA
ATOM     24  C   UNL     1      35.120 -18.506 -22.980  0.00  0.00    -0.040 C 
ATOM     25  C   UNL     1      34.976 -17.128 -23.157  0.00  0.00    +0.034 C 
ATOM     26  C   UNL     1      34.671 -19.406 -23.962  0.00  0.00    -0.003 C 
ATOM     27  C   UNL     1      34.381 -16.691 -24.323  0.00  0.00    +0.181 C 
ATOM     28  C   UNL     1      33.940 -17.573 -25.286  0.00  0.00    +0.182 C 
ATOM     29  C   UNL     1      34.071 -18.938 -25.134  0.00  0.00    +0.040 C 
ATOM     30  C   UNL     1      33.529 -15.571 -25.947  0.00  0.00    +0.589 C 
ENDBRANCH  19  24
ENDBRANCH   2  19
TORSDOF 3
ENDMDL
MODEL 2
REMARK VINA RESULT:     -11.6      4.673      7.165
REMARK  Name = 54576693
REMARK  3 active torsions:
REMARK  status: ('A' for Active; 'I' for Inactive)
REMARK    1  A    between atoms: N_2  and  C_19
REMARK    2  A    between atoms: N_4  and  C_14
REMARK    3  A    between atoms: C_19  and  C_24
REMARK                            x       y       z     vdW  Elec       q    Type
REMARK                         _______ _______ _______ _____ _____    ______ ____
ROOT
ATOM      1  O   UNL     1      34.961 -19.350 -24.070  0.00  0.00    -0.252 OA
ATOM      2  N   UNL     1      33.880 -14.500 -24.486  0.00  0.00    +0.392 N 
ATOM      3  N   UNL     1      34.808 -17.083 -23.632  0.00  0.00    -0.268 N 
ATOM      4  N   UNL     1      35.126 -18.624 -21.872  0.00  0.00    -0.266 N 
ATOM      5  C   UNL     1      33.591 -15.695 -25.289  0.00  0.00    -0.055 C 
ATOM      6  C   UNL     1      33.894 -14.843 -23.059  0.00  0.00    -0.055 C 
ATOM      7  C   UNL     1      34.943 -15.916 -22.751  0.00  0.00    +0.072 C 
ATOM      8  C   UNL     1      34.655 -16.765 -25.053  0.00  0.00    +0.072 C 
ATOM      9  C   UNL     1      34.957 -18.434 -23.245  0.00  0.00    +0.308 C 
ATOM     10  H   UNL     1      34.802 -14.146 -24.746  0.00  0.00    -0.079 HD
ATOM     11  H   UNL     1      35.570 -17.894 -21.382  0.00  0.00    +0.156 HD
ENDROOT
BRANCH   4  14
ATOM     12 CL   UNL     1      37.333 -20.187 -20.426  0.00  0.00    -0.081 Cl
ATOM     13  N   UNL     1      32.916 -21.149 -20.336  0.00  0.00    -0.241 NA
ATOM     14  C   UNL     1      34.730 -19.748 -21.106  0.00  0.00    +0.082 C 
ATOM     15  C   UNL     1      35.642 -20.533 -20.408  0.00  0.00    +0.074 C 
ATOM     16  C   UNL     1      33.391 -20.096 -21.038  0.00  0.00    +0.114 C 
ATOM     17  C   UNL     1      35.192 -21.626 -19.675  0.00  0.00    +0.033 C 
ATOM     18  C   UNL     1      33.832 -21.888 -19.671  0.00  0.00    +0.100 C 
ENDBRANCH   4  14
BRANCH   2  19
ATOM     19  C   UNL     1      32.896 -13.452 -24.753  0.00  0.00    -0.050 C 
BRANCH  19  24
ATOM     20  F   UNL     1      33.238  -6.878 -23.185  0.00  0.00    -0.125 F 
ATOM     21  F   UNL     1      34.515  -7.684 -21.601  0.00  0.00    -0.125 F 
ATOM     22  O   UNL     1      32.944  -9.029 -22.531  0.00  0.00    -0.395 OA
ATOM     23  O   UNL     1      34.904  -8.310 -23.745  0.00  0.00    -0.395 OA
ATOM     24  C   UNL     1      33.461 -12.078 -24.507  0.00  0.00    -0.040 C 
ATOM     25  C   UNL     1      32.848 -11.232 -23.580  0.00  0.00    +0.034 C 
ATOM     26  C   UNL     1      34.602 -11.659 -25.214  0.00  0.00    -0.003 C 
ATOM     27  C   UNL     1      33.402  -9.983 -23.388  0.00  0.00    +0.181 C 
ATOM     28  C   UNL     1      34.521  -9.572 -24.081  0.00  0.00    +0.182 C 
ATOM     29  C   UNL     1      35.144 -10.389 -25.002  0.00  0.00    +0.040 C 
ATOM     30  C   UNL     1      33.901  -7.986 -22.772  0.00  0.00    +0.589 C 
ENDBRANCH  19  24
ENDBRANCH   2  19
TORSDOF 3
ENDMDL
MODEL 3
REMARK VINA RESULT:     -11.3      5.085      9.442
REMARK  Name = 54576693
REMARK  3 active torsions:
REMARK  status: ('A' for Active; 'I' for Inactive)
REMARK    1  A    between atoms: N_2  and  C_19
REMARK    2  A    between atoms: N_4  and  C_14
REMARK    3  A    between atoms: C_19  and  C_24
REMARK                            x       y       z     vdW  Elec       q    Type
REMARK                         _______ _______ _______ _____ _____    ______ ____
ROOT
ATOM      1  O   UNL     1      37.208 -21.561 -17.663  0.00  0.00    -0.252 OA
ATOM      2  N   UNL     1      33.666 -23.948 -15.090  0.00  0.00    +0.392 N 
ATOM      3  N   UNL     1      35.370 -22.865 -17.135  0.00  0.00    -0.268 N 
ATOM      4  N   UNL     1      35.572 -21.890 -19.276  0.00  0.00    -0.266 N 
ATOM      5  C   UNL     1      34.774 -23.053 -14.735  0.00  0.00    -0.055 C 
ATOM      6  C   UNL     1      33.103 -23.563 -16.390  0.00  0.00    -0.055 C 
ATOM      7  C   UNL     1      34.161 -23.617 -17.496  0.00  0.00    +0.072 C 
ATOM      8  C   UNL     1      35.877 -23.128 -15.787  0.00  0.00    +0.072 C 
ATOM      9  C   UNL     1      36.130 -22.053 -18.007  0.00  0.00    +0.308 C 
ATOM     10  H   UNL     1      34.024 -24.901 -15.158  0.00  0.00    -0.079 HD
ATOM     11  H   UNL     1      35.025 -22.638 -19.611  0.00  0.00    +0.156 HD
ENDROOT
BRANCH   4  14
ATOM     12 CL   UNL     1      33.015 -20.822 -20.591  0.00  0.00    -0.081 Cl
ATOM     13  N   UNL     1      37.177 -19.144 -21.146  0.00  0.00    -0.241 NA
ATOM     14  C   UNL     1      35.702 -20.771 -20.134  0.00  0.00    +0.082 C 
ATOM     15  C   UNL     1      34.613 -20.200 -20.786  0.00  0.00    +0.074 C 
ATOM     16  C   UNL     1      36.951 -20.209 -20.347  0.00  0.00    +0.114 C 
ATOM     17  C   UNL     1      34.806 -19.102 -21.618  0.00  0.00    +0.033 C 
ATOM     18  C   UNL     1      36.095 -18.616 -21.763  0.00  0.00    +0.100 C 
ENDBRANCH   4  14
BRANCH   2  19
ATOM     19  C   UNL     1      32.632 -23.922 -14.055  0.00  0.00    -0.050 C 
BRANCH  19  24
ATOM     20  F   UNL     1      26.329 -22.306 -15.912  0.00  0.00    -0.125 F 
ATOM     21  F   UNL     1      27.196 -22.669 -17.889  0.00  0.00    -0.125 F 
ATOM     22  O   UNL     1      28.567 -22.069 -16.186  0.00  0.00    -0.395 OA
ATOM     23  O   UNL     1      27.484 -24.225 -16.265  0.00  0.00    -0.395 OA
ATOM     24  C   UNL     1      31.250 -24.039 -14.641  0.00  0.00    -0.040 C 
ATOM     25  C   UNL     1      30.608 -22.901 -15.135  0.00  0.00    +0.034 C 
ATOM     26  C   UNL     1      30.620 -25.295 -14.687  0.00  0.00    -0.003 C 
ATOM     27  C   UNL     1      29.343 -23.058 -15.662  0.00  0.00    +0.181 C 
ATOM     28  C   UNL     1      28.724 -24.289 -15.708  0.00  0.00    +0.182 C 
ATOM     29  C   UNL     1      29.338 -25.428 -15.227  0.00  0.00    +0.040 C 
ATOM     30  C   UNL     1      27.404 -22.823 -16.558  0.00  0.00    +0.589 C 
ENDBRANCH  19  24
ENDBRANCH   2  19
TORSDOF 3
ENDMDL
MODEL 4
REMARK VINA RESULT:     -11.1      7.977     12.474
REMARK  Name = 54576693
REMARK  3 active torsions:
REMARK  status: ('A' for Active; 'I' for Inactive)
REMARK    1  A    between atoms: N_2  and  C_19
REMARK    2  A    between atoms: N_4  and  C_14
REMARK    3  A    between atoms: C_19  and  C_24
REMARK                            x       y       z     vdW  Elec       q    Type
REMARK                         _______ _______ _______ _____ _____    ______ ____
ROOT
ATOM      1  O   UNL     1      31.859  -9.320 -21.506  0.00  0.00    -0.252 OA
ATOM      2  N   UNL     1      33.510 -13.114 -24.288  0.00  0.00    +0.392 N 
ATOM      3  N   UNL     1      33.115 -10.585 -22.981  0.00  0.00    -0.268 N 
ATOM      4  N   UNL     1      33.119  -8.228 -23.121  0.00  0.00    -0.266 N 
ATOM      5  C   UNL     1      32.371 -12.917 -23.383  0.00  0.00    -0.055 C 
ATOM      6  C   UNL     1      33.816 -11.864 -24.994  0.00  0.00    -0.055 C 
ATOM      7  C   UNL     1      34.147 -10.734 -24.015  0.00  0.00    +0.072 C 
ATOM      8  C   UNL     1      32.691 -11.837 -22.352  0.00  0.00    +0.072 C 
ATOM      9  C   UNL     1      32.630  -9.361 -22.468  0.00  0.00    +0.308 C 
ATOM     10  H   UNL     1      34.324 -13.384 -23.735  0.00  0.00    -0.079 HD
ATOM     11  H   UNL     1      34.021  -8.304 -23.509  0.00  0.00    +0.156 HD
ENDROOT
BRANCH   4  14
ATOM     12 CL   UNL     1      34.588  -6.071 -24.732  0.00  0.00    -0.081 Cl
ATOM     13  N   UNL     1      30.508  -5.637 -22.831  0.00  0.00    -0.241 NA
ATOM     14  C   UNL     1      32.464  -6.983 -23.287  0.00  0.00    +0.082 C 
ATOM     15  C   UNL     1      33.032  -5.930 -23.997  0.00  0.00    +0.074 C 
ATOM     16  C   UNL     1      31.211  -6.786 -22.729  0.00  0.00    +0.114 C 
ATOM     17  C   UNL     1      32.340  -4.731 -24.124  0.00  0.00    +0.033 C 
ATOM     18  C   UNL     1      31.092  -4.636 -23.529  0.00  0.00    +0.100 C 
ENDBRANCH   4  14
BRANCH   2  19
ATOM     19  C   UNL     1      33.229 -14.188 -25.240  0.00  0.00    -0.050 C 
BRANCH  19  24
ATOM     20  F   UNL     1      37.366 -18.643 -22.271  0.00  0.00    -0.125 F 
ATOM     21  F   UNL     1      35.512 -19.127 -21.214  0.00  0.00    -0.125 F 
ATOM     22  O   UNL     1      35.759 -17.052 -22.097  0.00  0.00    -0.395 OA
ATOM     23  O   UNL     1      35.483 -19.014 -23.478  0.00  0.00    -0.395 OA
ATOM     24  C   UNL     1      33.821 -15.499 -24.798  0.00  0.00    -0.040 C 
ATOM     25  C   UNL     1      34.524 -15.570 -23.593  0.00  0.00    +0.034 C 
ATOM     26  C   UNL     1      33.660 -16.641 -25.602  0.00  0.00    -0.003 C 
ATOM     27  C   UNL     1      35.048 -16.793 -23.229  0.00  0.00    +0.181 C 
ATOM     28  C   UNL     1      34.891 -17.913 -24.017  0.00  0.00    +0.182 C 
ATOM     29  C   UNL     1      34.201 -17.868 -25.211  0.00  0.00    +0.040 C 
ATOM     30  C   UNL     1      36.023 -18.453 -22.274  0.00  0.00    +0.589 C 
ENDBRANCH  19  24
ENDBRANCH   2  19
TORSDOF 3
ENDMDL
MODEL 5
REMARK VINA RESULT:     -11.0      5.978     11.009
REMARK  Name = 54576693
REMARK  3 active torsions:
REMARK  status: ('A' for Active; 'I' for Inactive)
REMARK    1  A    between atoms: N_2  and  C_19
REMARK    2  A    between atoms: N_4  and  C_14
REMARK    3  A    between atoms: C_19  and  C_24
REMARK                            x       y       z     vdW  Elec       q    Type
REMARK                         _______ _______ _______ _____ _____    ______ ____
ROOT
ATOM      1  O   UNL     1      37.255 -19.910 -19.989  0.00  0.00    -0.252 OA
ATOM      2  N   UNL     1      34.454 -23.240 -17.554  0.00  0.00    +0.392 N 
ATOM      3  N   UNL     1      35.659 -21.516 -19.513  0.00  0.00    -0.268 N 
ATOM      4  N   UNL     1      35.382 -20.060 -21.351  0.00  0.00    -0.266 N 
ATOM      5  C   UNL     1      35.532 -22.320 -17.170  0.00  0.00    -0.055 C 
ATOM      6  C   UNL     1      33.632 -22.640 -18.613  0.00  0.00    -0.055 C 
ATOM      7  C   UNL     1      34.469 -22.309 -19.852  0.00  0.00    +0.072 C 
ATOM      8  C   UNL     1      36.425 -22.017 -18.371  0.00  0.00    +0.072 C 
ATOM      9  C   UNL     1      36.177 -20.439 -20.267  0.00  0.00    +0.308 C 
ATOM     10  H   UNL     1      34.869 -24.101 -17.912  0.00  0.00    -0.079 HD
ATOM     11  H   UNL     1      34.846 -20.773 -21.769  0.00  0.00    +0.156 HD
ENDROOT
BRANCH   4  14
ATOM     12 CL   UNL     1      34.896 -19.886 -24.375  0.00  0.00    -0.081 Cl
ATOM     13  N   UNL     1      35.264 -16.378 -21.547  0.00  0.00    -0.241 NA
ATOM     14  C   UNL     1      35.261 -18.767 -21.916  0.00  0.00    +0.082 C 
ATOM     15  C   UNL     1      35.040 -18.564 -23.275  0.00  0.00    +0.074 C 
ATOM     16  C   UNL     1      35.365 -17.650 -21.103  0.00  0.00    +0.114 C 
ATOM     17  C   UNL     1      34.932 -17.269 -23.770  0.00  0.00    +0.033 C 
ATOM     18  C   UNL     1      35.050 -16.220 -22.873  0.00  0.00    +0.100 C 
ENDBRANCH   4  14
BRANCH   2  19
ATOM     19  C   UNL     1      33.630 -23.579 -16.394  0.00  0.00    -0.050 C 
BRANCH  19  24
ATOM     20  F   UNL     1      36.759 -23.822 -10.399  0.00  0.00    -0.125 F 
ATOM     21  F   UNL     1      35.387 -25.508 -10.148  0.00  0.00    -0.125 F 
ATOM     22  O   UNL     1      34.837 -23.857 -11.602  0.00  0.00    -0.395 OA
ATOM     23  O   UNL     1      36.650 -25.395 -12.027  0.00  0.00    -0.395 OA
ATOM     24  C   UNL     1      34.461 -24.085 -15.246  0.00  0.00    -0.040 C 
ATOM     25  C   UNL     1      34.176 -23.663 -13.945  0.00  0.00    +0.034 C 
ATOM     26  C   UNL     1      35.516 -24.981 -15.493  0.00  0.00    -0.003 C 
ATOM     27  C   UNL     1      34.964 -24.155 -12.925  0.00  0.00    +0.181 C 
ATOM     28  C   UNL     1      35.999 -25.033 -13.167  0.00  0.00    +0.182 C 
ATOM     29  C   UNL     1      36.300 -25.465 -14.443  0.00  0.00    +0.040 C 
ATOM     30  C   UNL     1      35.906 -24.646 -11.057  0.00  0.00    +0.589 C 
ENDBRANCH  19  24
ENDBRANCH   2  19
TORSDOF 3
ENDMDL
MODEL 6
REMARK VINA RESULT:     -11.0      5.857     10.713
REMARK  Name = 54576693
REMARK  3 active torsions:
REMARK  status: ('A' for Active; 'I' for Inactive)
REMARK    1  A    between atoms: N_2  and  C_19
REMARK    2  A    between atoms: N_4  and  C_14
REMARK    3  A    between atoms: C_19  and  C_24
REMARK                            x       y       z     vdW  Elec       q    Type
REMARK                         _______ _______ _______ _____ _____    ______ ____
ROOT
ATOM      1  O   UNL     1      33.047 -13.203 -25.426  0.00  0.00    -0.252 OA
ATOM      2  N   UNL     1      35.082 -17.089 -23.055  0.00  0.00    +0.392 N 
ATOM      3  N   UNL     1      33.721 -14.656 -23.757  0.00  0.00    -0.268 N 
ATOM      4  N   UNL     1      33.266 -12.393 -23.262  0.00  0.00    -0.266 N 
ATOM      5  C   UNL     1      35.028 -16.646 -24.454  0.00  0.00    -0.055 C 
ATOM      6  C   UNL     1      35.142 -15.926 -22.160  0.00  0.00    -0.055 C 
ATOM      7  C   UNL     1      33.927 -15.013 -22.347  0.00  0.00    +0.072 C 
ATOM      8  C   UNL     1      33.792 -15.781 -24.691  0.00  0.00    +0.072 C 
ATOM      9  C   UNL     1      33.329 -13.387 -24.240  0.00  0.00    +0.308 C 
ATOM     10  H   UNL     1      34.236 -17.618 -22.846  0.00  0.00    -0.079 HD
ATOM     11  H   UNL     1      33.039 -12.691 -22.351  0.00  0.00    +0.156 HD
ENDROOT
BRANCH   4  14
ATOM     12 CL   UNL     1      31.236 -10.473 -21.996  0.00  0.00    -0.081 Cl
ATOM     13  N   UNL     1      34.891  -9.271 -24.370  0.00  0.00    -0.241 NA
ATOM     14  C   UNL     1      33.490 -11.005 -23.434  0.00  0.00    +0.082 C 
ATOM     15  C   UNL     1      32.638 -10.041 -22.906  0.00  0.00    +0.074 C 
ATOM     16  C   UNL     1      34.593 -10.571 -24.151  0.00  0.00    +0.114 C 
ATOM     17  C   UNL     1      32.911  -8.692 -23.110  0.00  0.00    +0.033 C 
ATOM     18  C   UNL     1      34.040  -8.363 -23.841  0.00  0.00    +0.100 C 
ENDBRANCH   4  14
BRANCH   2  19
ATOM     19  C   UNL     1      36.234 -17.964 -22.838  0.00  0.00    -0.050 C 
BRANCH  19  24
ATOM     20  F   UNL     1      32.861 -21.785 -18.388  0.00  0.00    -0.125 F 
ATOM     21  F   UNL     1      33.366 -23.323 -19.860  0.00  0.00    -0.125 F 
ATOM     22  O   UNL     1      33.240 -21.162 -20.535  0.00  0.00    -0.395 OA
ATOM     23  O   UNL     1      35.008 -21.960 -19.095  0.00  0.00    -0.395 OA
ATOM     24  C   UNL     1      35.940 -19.035 -21.822  0.00  0.00    -0.040 C 
ATOM     25  C   UNL     1      34.649 -19.559 -21.722  0.00  0.00    +0.034 C 
ATOM     26  C   UNL     1      36.969 -19.499 -20.984  0.00  0.00    -0.003 C 
ATOM     27  C   UNL     1      34.427 -20.539 -20.776  0.00  0.00    +0.181 C 
ATOM     28  C   UNL     1      35.436 -20.994 -19.955  0.00  0.00    +0.182 C 
ATOM     29  C   UNL     1      36.719 -20.493 -20.035  0.00  0.00    +0.040 C 
ATOM     30  C   UNL     1      33.627 -22.050 -19.475  0.00  0.00    +0.589 C 
ENDBRANCH  19  24
ENDBRANCH   2  19
TORSDOF 3
ENDMDL
MODEL 7
REMARK VINA RESULT:     -10.9      8.721     11.968
REMARK  Name = 54576693
REMARK  3 active torsions:
REMARK  status: ('A' for Active; 'I' for Inactive)
REMARK    1  A    between atoms: N_2  and  C_19
REMARK    2  A    between atoms: N_4  and  C_14
REMARK    3  A    between atoms: C_19  and  C_24
REMARK                            x       y       z     vdW  Elec       q    Type
REMARK                         _______ _______ _______ _____ _____    ______ ____
ROOT
ATOM      1  O   UNL     1      32.149 -13.426 -22.376  0.00  0.00    -0.252 OA
ATOM      2  N   UNL     1      33.861  -8.914 -23.629  0.00  0.00    +0.392 N 
ATOM      3  N   UNL     1      33.192 -11.708 -23.520  0.00  0.00    -0.268 N 
ATOM      4  N   UNL     1      33.855 -13.948 -23.860  0.00  0.00    -0.266 N 
ATOM      5  C   UNL     1      33.123  -9.456 -22.481  0.00  0.00    -0.055 C 
ATOM      6  C   UNL     1      34.801  -9.917 -24.143  0.00  0.00    -0.055 C 
ATOM      7  C   UNL     1      34.076 -11.195 -24.576  0.00  0.00    +0.072 C 
ATOM      8  C   UNL     1      32.336 -10.698 -22.893  0.00  0.00    +0.072 C 
ATOM      9  C   UNL     1      33.009 -13.068 -23.184  0.00  0.00    +0.308 C 
ATOM     10  H   UNL     1      33.195  -8.682 -24.367  0.00  0.00    -0.079 HD
ATOM     11  H   UNL     1      34.139 -13.673 -24.762  0.00  0.00    +0.156 HD
ENDROOT
BRANCH   4  14
ATOM     12 CL   UNL     1      33.873 -16.286 -25.845  0.00  0.00    -0.081 Cl
ATOM     13  N   UNL     1      35.287 -16.446 -21.553  0.00  0.00    -0.241 NA
ATOM     14  C   UNL     1      34.350 -15.191 -23.395  0.00  0.00    +0.082 C 
ATOM     15  C   UNL     1      34.407 -16.321 -24.204  0.00  0.00    +0.074 C 
ATOM     16  C   UNL     1      34.799 -15.306 -22.089  0.00  0.00    +0.114 C 
ATOM     17  C   UNL     1      34.902 -17.514 -23.688  0.00  0.00    +0.033 C 
ATOM     18  C   UNL     1      35.326 -17.524 -22.369  0.00  0.00    +0.100 C 
ENDBRANCH   4  14
BRANCH   2  19
ATOM     19  C   UNL     1      34.570  -7.691 -23.253  0.00  0.00    -0.050 C 
BRANCH  19  24
ATOM     20  F   UNL     1      29.948  -3.064 -24.989  0.00  0.00    -0.125 F 
ATOM     21  F   UNL     1      31.313  -1.787 -23.851  0.00  0.00    -0.125 F 
ATOM     22  O   UNL     1      31.265  -4.010 -23.404  0.00  0.00    -0.395 OA
ATOM     23  O   UNL     1      32.163  -3.131 -25.466  0.00  0.00    -0.395 OA
ATOM     24  C   UNL     1      33.948  -6.469 -23.875  0.00  0.00    -0.040 C 
ATOM     25  C   UNL     1      32.858  -5.854 -23.253  0.00  0.00    +0.034 C 
ATOM     26  C   UNL     1      34.471  -5.958 -25.075  0.00  0.00    -0.003 C 
ATOM     27  C   UNL     1      32.322  -4.737 -23.860  0.00  0.00    +0.181 C 
ATOM     28  C   UNL     1      32.835  -4.235 -25.038  0.00  0.00    +0.182 C 
ATOM     29  C   UNL     1      33.910  -4.825 -25.670  0.00  0.00    +0.040 C 
ATOM     30  C   UNL     1      31.181  -3.007 -24.428  0.00  0.00    +0.589 C 
ENDBRANCH  19  24
ENDBRANCH   2  19
TORSDOF 3
ENDMDL
MODEL 8
REMARK VINA RESULT:     -10.8      8.652     11.911
REMARK  Name = 54576693
REMARK  3 active torsions:
REMARK  status: ('A' for Active; 'I' for Inactive)
REMARK    1  A    between atoms: N_2  and  C_19
REMARK    2  A    between atoms: N_4  and  C_14
REMARK    3  A    between atoms: C_19  and  C_24
REMARK                            x       y       z     vdW  Elec       q    Type
REMARK                         _______ _______ _______ _____ _____    ______ ____
ROOT
ATOM      1  O   UNL     1      32.189 -13.400 -22.199  0.00  0.00    -0.252 OA
ATOM      2  N   UNL     1      33.767  -8.873 -23.569  0.00  0.00    +0.392 N 
ATOM      3  N   UNL     1      33.146 -11.675 -23.408  0.00  0.00    -0.268 N 
ATOM      4  N   UNL     1      33.823 -13.908 -23.768  0.00  0.00    -0.266 N 
ATOM      5  C   UNL     1      33.098  -9.418 -22.380  0.00  0.00    -0.055 C 
ATOM      6  C   UNL     1      34.694  -9.866 -24.126  0.00  0.00    -0.055 C 
ATOM      7  C   UNL     1      33.965 -11.157 -24.512  0.00  0.00    +0.072 C 
ATOM      8  C   UNL     1      32.309 -10.674 -22.743  0.00  0.00    +0.072 C 
ATOM      9  C   UNL     1      33.000 -13.035 -23.053  0.00  0.00    +0.308 C 
ATOM     10  H   UNL     1      33.060  -8.656 -24.272  0.00  0.00    -0.079 HD
ATOM     11  H   UNL     1      34.055 -13.635 -24.685  0.00  0.00    +0.156 HD
ENDROOT
BRANCH   4  14
ATOM     12 CL   UNL     1      33.940 -16.207 -25.794  0.00  0.00    -0.081 Cl
ATOM     13  N   UNL     1      35.329 -16.394 -21.496  0.00  0.00    -0.241 NA
ATOM     14  C   UNL     1      34.360 -15.140 -23.321  0.00  0.00    +0.082 C 
ATOM     15  C   UNL     1      34.463 -16.253 -24.150  0.00  0.00    +0.074 C 
ATOM     16  C   UNL     1      34.804 -15.263 -22.014  0.00  0.00    +0.114 C 
ATOM     17  C   UNL     1      34.999 -17.436 -23.652  0.00  0.00    +0.033 C 
ATOM     18  C   UNL     1      35.414 -17.454 -22.331  0.00  0.00    +0.100 C 
ENDBRANCH   4  14
BRANCH   2  19
ATOM     19  C   UNL     1      34.476  -7.638 -23.238  0.00  0.00    -0.050 C 
BRANCH  19  24
ATOM     20  F   UNL     1      33.972  -1.918 -26.819  0.00  0.00    -0.125 F 
ATOM     21  F   UNL     1      32.820  -3.250 -28.120  0.00  0.00    -0.125 F 
ATOM     22  O   UNL     1      34.386  -4.147 -26.746  0.00  0.00    -0.395 OA
ATOM     23  O   UNL     1      32.333  -3.191 -25.906  0.00  0.00    -0.395 OA
ATOM     24  C   UNL     1      33.874  -6.444 -23.929  0.00  0.00    -0.040 C 
ATOM     25  C   UNL     1      34.506  -5.900 -25.050  0.00  0.00    +0.034 C 
ATOM     26  C   UNL     1      32.678  -5.887 -23.441  0.00  0.00    -0.003 C 
ATOM     27  C   UNL     1      33.916  -4.807 -25.651  0.00  0.00    +0.181 C 
ATOM     28  C   UNL     1      32.744  -4.261 -25.172  0.00  0.00    +0.182 C 
ATOM     29  C   UNL     1      32.101  -4.780 -24.067  0.00  0.00    +0.040 C 
ATOM     30  C   UNL     1      33.377  -3.135 -26.888  0.00  0.00    +0.589 C 
ENDBRANCH  19  24
ENDBRANCH   2  19
TORSDOF 3
ENDMDL
MODEL 9
REMARK VINA RESULT:     -10.6      5.862     10.829
REMARK  Name = 54576693
REMARK  3 active torsions:
REMARK  status: ('A' for Active; 'I' for Inactive)
REMARK    1  A    between atoms: N_2  and  C_19
REMARK    2  A    between atoms: N_4  and  C_14
REMARK    3  A    between atoms: C_19  and  C_24
REMARK                            x       y       z     vdW  Elec       q    Type
REMARK                         _______ _______ _______ _____ _____    ______ ____
ROOT
ATOM      1  O   UNL     1      37.263 -19.875 -20.027  0.00  0.00    -0.252 OA
ATOM      2  N   UNL     1      34.473 -23.190 -17.560  0.00  0.00    +0.392 N 
ATOM      3  N   UNL     1      35.670 -21.480 -19.536  0.00  0.00    -0.268 N 
ATOM      4  N   UNL     1      35.387 -20.039 -21.385  0.00  0.00    -0.266 N 
ATOM      5  C   UNL     1      35.550 -22.265 -17.186  0.00  0.00    -0.055 C 
ATOM      6  C   UNL     1      33.648 -22.600 -18.622  0.00  0.00    -0.055 C 
ATOM      7  C   UNL     1      34.482 -22.278 -19.865  0.00  0.00    +0.072 C 
ATOM      8  C   UNL     1      36.440 -21.970 -18.391  0.00  0.00    +0.072 C 
ATOM      9  C   UNL     1      36.184 -20.408 -20.300  0.00  0.00    +0.308 C 
ATOM     10  H   UNL     1      34.889 -24.053 -17.912  0.00  0.00    -0.079 HD
ATOM     11  H   UNL     1      34.852 -20.756 -21.796  0.00  0.00    +0.156 HD
ENDROOT
BRANCH   4  14
ATOM     12 CL   UNL     1      34.872 -19.891 -24.405  0.00  0.00    -0.081 Cl
ATOM     13  N   UNL     1      35.273 -16.358 -21.612  0.00  0.00    -0.241 NA
ATOM     14  C   UNL     1      35.262 -18.751 -21.960  0.00  0.00    +0.082 C 
ATOM     15  C   UNL     1      35.029 -18.560 -23.318  0.00  0.00    +0.074 C 
ATOM     16  C   UNL     1      35.375 -17.627 -21.158  0.00  0.00    +0.114 C 
ATOM     17  C   UNL     1      34.917 -17.269 -23.824  0.00  0.00    +0.033 C 
ATOM     18  C   UNL     1      35.045 -16.212 -22.937  0.00  0.00    +0.100 C 
ENDBRANCH   4  14
BRANCH   2  19
ATOM     19  C   UNL     1      33.652 -23.521 -16.396  0.00  0.00    -0.050 C 
BRANCH  19  24
ATOM     20  F   UNL     1      38.434 -26.643 -12.767  0.00  0.00    -0.125 F 
ATOM     21  F   UNL     1      39.059 -24.568 -12.460  0.00  0.00    -0.125 F 
ATOM     22  O   UNL     1      37.860 -25.087 -14.313  0.00  0.00    -0.395 OA
ATOM     23  O   UNL     1      36.890 -25.122 -12.102  0.00  0.00    -0.395 OA
ATOM     24  C   UNL     1      34.492 -23.946 -15.221  0.00  0.00    -0.040 C 
ATOM     25  C   UNL     1      35.825 -24.315 -15.420  0.00  0.00    +0.034 C 
ATOM     26  C   UNL     1      33.927 -23.966 -13.933  0.00  0.00    -0.003 C 
ATOM     27  C   UNL     1      36.555 -24.696 -14.313  0.00  0.00    +0.181 C 
ATOM     28  C   UNL     1      36.002 -24.717 -13.051  0.00  0.00    +0.182 C 
ATOM     29  C   UNL     1      34.688 -24.356 -12.829  0.00  0.00    +0.040 C 
ATOM     30  C   UNL     1      38.049 -25.351 -12.914  0.00  0.00    +0.589 C 
ENDBRANCH  19  24
ENDBRANCH   2  19
TORSDOF 3
ENDMDL
