MODEL 1
REMARK VINA RESULT:     -11.9      0.000      0.000
REMARK  Name = 58212050
REMARK  2 active torsions:
REMARK  status: ('A' for Active; 'I' for Inactive)
REMARK    1  A    between atoms: C_2  and  C_13
REMARK    2  A    between atoms: C_10  and  C_26
REMARK                            x       y       z     vdW  Elec       q    Type
REMARK                         _______ _______ _______ _____ _____    ______ ____
ROOT
ATOM      1  N   UNL     1      36.873 -23.409 -16.465  0.00  0.00    +0.389 N 
ATOM      2  C   UNL     1      34.437 -23.587 -16.868  0.00  0.00    +0.023 C 
ATOM      3  C   UNL     1      35.563 -23.493 -15.810  0.00  0.00    -0.068 C 
ATOM      4  C   UNL     1      34.616 -22.597 -18.012  0.00  0.00    -0.026 C 
ATOM      5  C   UNL     1      35.846 -21.931 -18.180  0.00  0.00    -0.047 C 
ATOM      6  C   UNL     1      36.977 -22.137 -17.199  0.00  0.00    -0.050 C 
ATOM      7  C   UNL     1      33.601 -22.397 -18.963  0.00  0.00    -0.004 C 
ATOM      8  C   UNL     1      36.011 -21.031 -19.243  0.00  0.00    -0.005 C 
ATOM      9  C   UNL     1      37.951 -23.517 -15.482  0.00  0.00    -0.100 C 
ATOM     10  C   UNL     1      34.983 -20.821 -20.160  0.00  0.00    +0.019 C 
ATOM     11  C   UNL     1      33.781 -21.509 -20.023  0.00  0.00    +0.001 C 
ATOM     12  H   UNL     1      36.964 -24.184 -17.122  0.00  0.00    -0.079 HD
ENDROOT
BRANCH   2  13
ATOM     13  C   UNL     1      33.084 -23.500 -16.170  0.00  0.00    -0.020 C 
ATOM     14  C   UNL     1      31.923 -23.316 -16.921  0.00  0.00    -0.004 C 
ATOM     15  C   UNL     1      33.009 -23.604 -14.785  0.00  0.00    -0.004 C 
ATOM     16  C   UNL     1      30.670 -23.233 -16.294  0.00  0.00    -0.000 C 
ATOM     17  C   UNL     1      30.593 -23.339 -14.885  0.00  0.00    -0.000 C 
ATOM     18  C   UNL     1      31.772 -23.524 -14.145  0.00  0.00    -0.000 C 
ATOM     19  C   UNL     1      29.491 -23.048 -17.035  0.00  0.00    -0.000 C 
ATOM     20  C   UNL     1      29.340 -23.255 -14.257  0.00  0.00    -0.000 C 
ATOM     21  C   UNL     1      28.254 -22.967 -16.395  0.00  0.00    -0.000 C 
ATOM     22  C   UNL     1      28.178 -23.071 -15.009  0.00  0.00    -0.000 C 
ENDBRANCH   2  13
BRANCH  10  26
ATOM     23  N   UNL     1      34.183 -19.889 -22.181  0.00  0.00    -0.147 NA
ATOM     24  N   UNL     1      34.279 -19.047 -23.245  0.00  0.00    -0.133 NA
ATOM     25  N   UNL     1      35.456 -17.363 -24.455  0.00  0.00    -0.341 N 
ATOM     26  C   UNL     1      35.167 -19.895 -21.256  0.00  0.00    +0.103 C 
ATOM     27  C   UNL     1      36.278 -19.080 -21.336  0.00  0.00    +0.024 C 
ATOM     28  C   UNL     1      36.376 -18.224 -22.418  0.00  0.00    +0.037 C 
ATOM     29  C   UNL     1      35.356 -18.239 -23.348  0.00  0.00    +0.147 C 
ATOM     30  H   UNL     1      34.745 -17.348 -25.136  0.00  0.00    +0.144 HD
ATOM     31  H   UNL     1      36.236 -16.769 -24.543  0.00  0.00    +0.144 HD
ENDBRANCH  10  26
TORSDOF 2
ENDMDL
MODEL 2
REMARK VINA RESULT:     -11.0      8.847     14.124
REMARK  Name = 58212050
REMARK  2 active torsions:
REMARK  status: ('A' for Active; 'I' for Inactive)
REMARK    1  A    between atoms: C_2  and  C_13
REMARK    2  A    between atoms: C_10  and  C_26
REMARK                            x       y       z     vdW  Elec       q    Type
REMARK                         _______ _______ _______ _____ _____    ______ ____
ROOT
ATOM      1  N   UNL     1      31.172 -10.462 -20.325  0.00  0.00    +0.389 N 
ATOM      2  C   UNL     1      31.962  -9.715 -22.549  0.00  0.00    +0.023 C 
ATOM      3  C   UNL     1      31.753  -9.335 -21.063  0.00  0.00    -0.068 C 
ATOM      4  C   UNL     1      32.581 -11.096 -22.724  0.00  0.00    -0.026 C 
ATOM      5  C   UNL     1      32.635 -11.986 -21.634  0.00  0.00    -0.047 C 
ATOM      6  C   UNL     1      32.142 -11.568 -20.268  0.00  0.00    -0.050 C 
ATOM      7  C   UNL     1      33.025 -11.536 -23.983  0.00  0.00    -0.004 C 
ATOM      8  C   UNL     1      33.193 -13.262 -21.804  0.00  0.00    -0.005 C 
ATOM      9  C   UNL     1      30.789 -10.054 -18.973  0.00  0.00    -0.100 C 
ATOM     10  C   UNL     1      33.657 -13.672 -23.053  0.00  0.00    +0.019 C 
ATOM     11  C   UNL     1      33.566 -12.812 -24.143  0.00  0.00    +0.001 C 
ATOM     12  H   UNL     1      30.332 -10.777 -20.810  0.00  0.00    -0.079 HD
ENDROOT
BRANCH   2  13
ATOM     13  C   UNL     1      32.720  -8.594 -23.251  0.00  0.00    -0.020 C 
ATOM     14  C   UNL     1      32.018  -7.562 -23.874  0.00  0.00    -0.004 C 
ATOM     15  C   UNL     1      34.111  -8.603 -23.272  0.00  0.00    -0.004 C 
ATOM     16  C   UNL     1      32.701  -6.524 -24.527  0.00  0.00    -0.000 C 
ATOM     17  C   UNL     1      34.116  -6.532 -24.548  0.00  0.00    -0.000 C 
ATOM     18  C   UNL     1      34.806  -7.578 -23.916  0.00  0.00    -0.000 C 
ATOM     19  C   UNL     1      32.010  -5.477 -25.159  0.00  0.00    -0.000 C 
ATOM     20  C   UNL     1      34.799  -5.493 -25.201  0.00  0.00    -0.000 C 
ATOM     21  C   UNL     1      32.705  -4.453 -25.803  0.00  0.00    -0.000 C 
ATOM     22  C   UNL     1      34.096  -4.461 -25.824  0.00  0.00    -0.000 C 
ENDBRANCH   2  13
BRANCH  10  26
ATOM     23  N   UNL     1      34.852 -15.492 -22.131  0.00  0.00    -0.147 NA
ATOM     24  N   UNL     1      35.414 -16.729 -22.201  0.00  0.00    -0.133 NA
ATOM     25  N   UNL     1      35.913 -18.712 -23.429  0.00  0.00    -0.341 N 
ATOM     26  C   UNL     1      34.224 -14.992 -23.217  0.00  0.00    +0.103 C 
ATOM     27  C   UNL     1      34.122 -15.681 -24.409  0.00  0.00    +0.024 C 
ATOM     28  C   UNL     1      34.693 -16.940 -24.480  0.00  0.00    +0.037 C 
ATOM     29  C   UNL     1      35.329 -17.425 -23.355  0.00  0.00    +0.147 C 
ATOM     30  H   UNL     1      36.374 -19.088 -22.644  0.00  0.00    +0.144 HD
ATOM     31  H   UNL     1      35.859 -19.230 -24.264  0.00  0.00    +0.144 HD
ENDBRANCH  10  26
TORSDOF 2
ENDMDL
MODEL 3
REMARK VINA RESULT:      -9.8      5.719     10.886
REMARK  Name = 58212050
REMARK  2 active torsions:
REMARK  status: ('A' for Active; 'I' for Inactive)
REMARK    1  A    between atoms: C_2  and  C_13
REMARK    2  A    between atoms: C_10  and  C_26
REMARK                            x       y       z     vdW  Elec       q    Type
REMARK                         _______ _______ _______ _____ _____    ______ ____
ROOT
ATOM      1  N   UNL     1      33.970 -14.875 -25.909  0.00  0.00    +0.389 N 
ATOM      2  C   UNL     1      34.090 -13.629 -23.774  0.00  0.00    +0.023 C 
ATOM      3  C   UNL     1      33.337 -13.818 -25.112  0.00  0.00    -0.068 C 
ATOM      4  C   UNL     1      34.428 -14.950 -23.093  0.00  0.00    -0.026 C 
ATOM      5  C   UNL     1      34.317 -16.158 -23.809  0.00  0.00    -0.047 C 
ATOM      6  C   UNL     1      33.806 -16.171 -25.231  0.00  0.00    -0.050 C 
ATOM      7  C   UNL     1      34.934 -14.981 -21.783  0.00  0.00    -0.004 C 
ATOM      8  C   UNL     1      34.643 -17.370 -23.183  0.00  0.00    -0.005 C 
ATOM      9  C   UNL     1      33.392 -14.929 -27.252  0.00  0.00    -0.100 C 
ATOM     10  C   UNL     1      35.115 -17.386 -21.871  0.00  0.00    +0.019 C 
ATOM     11  C   UNL     1      35.267 -16.191 -21.175  0.00  0.00    +0.001 C 
ATOM     12  H   UNL     1      34.965 -14.669 -26.001  0.00  0.00    -0.079 HD
ENDROOT
BRANCH   2  13
ATOM     13  C   UNL     1      33.316 -12.652 -22.896  0.00  0.00    -0.020 C 
ATOM     14  C   UNL     1      33.464 -11.278 -23.086  0.00  0.00    -0.004 C 
ATOM     15  C   UNL     1      32.465 -13.131 -21.906  0.00  0.00    -0.004 C 
ATOM     16  C   UNL     1      32.759 -10.365 -22.286  0.00  0.00    -0.000 C 
ATOM     17  C   UNL     1      31.893 -10.852 -21.279  0.00  0.00    -0.000 C 
ATOM     18  C   UNL     1      31.757 -12.238 -21.102  0.00  0.00    -0.000 C 
ATOM     19  C   UNL     1      32.895  -8.978 -22.464  0.00  0.00    -0.000 C 
ATOM     20  C   UNL     1      31.188  -9.938 -20.478  0.00  0.00    -0.000 C 
ATOM     21  C   UNL     1      32.187  -8.084 -21.659  0.00  0.00    -0.000 C 
ATOM     22  C   UNL     1      31.336  -8.564 -20.668  0.00  0.00    -0.000 C 
ENDBRANCH   2  13
BRANCH  10  26
ATOM     23  N   UNL     1      36.693 -18.708 -20.707  0.00  0.00    -0.147 NA
ATOM     24  N   UNL     1      37.091 -19.854 -20.093  0.00  0.00    -0.133 NA
ATOM     25  N   UNL     1      36.650 -22.090 -19.391  0.00  0.00    -0.341 N 
ATOM     26  C   UNL     1      35.453 -18.642 -21.238  0.00  0.00    +0.103 C 
ATOM     27  C   UNL     1      34.559 -19.693 -21.189  0.00  0.00    +0.024 C 
ATOM     28  C   UNL     1      34.964 -20.859 -20.564  0.00  0.00    +0.037 C 
ATOM     29  C   UNL     1      36.236 -20.897 -20.030  0.00  0.00    +0.147 C 
ATOM     30  H   UNL     1      37.551 -22.151 -19.000  0.00  0.00    +0.144 HD
ATOM     31  H   UNL     1      36.037 -22.858 -19.340  0.00  0.00    +0.144 HD
ENDBRANCH  10  26
TORSDOF 2
ENDMDL
MODEL 4
REMARK VINA RESULT:      -9.7      2.102      5.774
REMARK  Name = 58212050
REMARK  2 active torsions:
REMARK  status: ('A' for Active; 'I' for Inactive)
REMARK    1  A    between atoms: C_2  and  C_13
REMARK    2  A    between atoms: C_10  and  C_26
REMARK                            x       y       z     vdW  Elec       q    Type
REMARK                         _______ _______ _______ _____ _____    ______ ____
ROOT
ATOM      1  N   UNL     1      32.308 -23.725 -15.573  0.00  0.00    +0.389 N 
ATOM      2  C   UNL     1      34.779 -23.758 -15.432  0.00  0.00    +0.023 C 
ATOM      3  C   UNL     1      33.467 -24.550 -15.215  0.00  0.00    -0.068 C 
ATOM      4  C   UNL     1      34.803 -23.004 -16.755  0.00  0.00    -0.026 C 
ATOM      5  C   UNL     1      33.615 -22.840 -17.493  0.00  0.00    -0.047 C 
ATOM      6  C   UNL     1      32.319 -23.458 -17.021  0.00  0.00    -0.050 C 
ATOM      7  C   UNL     1      35.979 -22.389 -17.217  0.00  0.00    -0.004 C 
ATOM      8  C   UNL     1      33.639 -22.133 -18.705  0.00  0.00    -0.005 C 
ATOM      9  C   UNL     1      31.062 -24.389 -15.189  0.00  0.00    -0.100 C 
ATOM     10  C   UNL     1      34.821 -21.555 -19.164  0.00  0.00    +0.019 C 
ATOM     11  C   UNL     1      35.988 -21.677 -18.417  0.00  0.00    +0.001 C 
ATOM     12  H   UNL     1      32.364 -22.840 -15.068  0.00  0.00    -0.079 HD
ENDROOT
BRANCH   2  13
ATOM     13  C   UNL     1      35.968 -24.688 -15.218  0.00  0.00    -0.020 C 
ATOM     14  C   UNL     1      37.249 -24.158 -15.070  0.00  0.00    -0.004 C 
ATOM     15  C   UNL     1      35.773 -26.065 -15.172  0.00  0.00    -0.004 C 
ATOM     16  C   UNL     1      38.355 -25.001 -14.874  0.00  0.00    -0.000 C 
ATOM     17  C   UNL     1      38.158 -26.401 -14.828  0.00  0.00    -0.000 C 
ATOM     18  C   UNL     1      36.861 -26.917 -14.978  0.00  0.00    -0.000 C 
ATOM     19  C   UNL     1      39.652 -24.484 -14.724  0.00  0.00    -0.000 C 
ATOM     20  C   UNL     1      39.264 -27.245 -14.632  0.00  0.00    -0.000 C 
ATOM     21  C   UNL     1      40.740 -25.337 -14.530  0.00  0.00    -0.000 C 
ATOM     22  C   UNL     1      40.546 -26.714 -14.484  0.00  0.00    -0.000 C 
ENDBRANCH   2  13
BRANCH  10  26
ATOM     23  N   UNL     1      33.618 -20.563 -20.942  0.00  0.00    -0.147 NA
ATOM     24  N   UNL     1      33.539 -19.879 -22.115  0.00  0.00    -0.133 NA
ATOM     25  N   UNL     1      34.597 -18.763 -23.937  0.00  0.00    -0.341 N 
ATOM     26  C   UNL     1      34.832 -20.822 -20.411  0.00  0.00    +0.103 C 
ATOM     27  C   UNL     1      36.012 -20.422 -21.006  0.00  0.00    +0.024 C 
ATOM     28  C   UNL     1      35.932 -19.726 -22.198  0.00  0.00    +0.037 C 
ATOM     29  C   UNL     1      34.678 -19.475 -22.718  0.00  0.00    +0.147 C 
ATOM     30  H   UNL     1      33.718 -18.567 -24.335  0.00  0.00    +0.144 HD
ATOM     31  H   UNL     1      35.420 -18.464 -24.388  0.00  0.00    +0.144 HD
ENDBRANCH  10  26
TORSDOF 2
ENDMDL
MODEL 5
REMARK VINA RESULT:      -9.6      3.133      8.304
REMARK  Name = 58212050
REMARK  2 active torsions:
REMARK  status: ('A' for Active; 'I' for Inactive)
REMARK    1  A    between atoms: C_2  and  C_13
REMARK    2  A    between atoms: C_10  and  C_26
REMARK                            x       y       z     vdW  Elec       q    Type
REMARK                         _______ _______ _______ _____ _____    ______ ____
ROOT
ATOM      1  N   UNL     1      31.178 -23.329 -16.917  0.00  0.00    +0.389 N 
ATOM      2  C   UNL     1      33.069 -22.783 -18.419  0.00  0.00    +0.023 C 
ATOM      3  C   UNL     1      31.620 -22.439 -17.997  0.00  0.00    -0.068 C 
ATOM      4  C   UNL     1      33.996 -23.001 -17.229  0.00  0.00    -0.026 C 
ATOM      5  C   UNL     1      33.456 -23.163 -15.938  0.00  0.00    -0.047 C 
ATOM      6  C   UNL     1      31.967 -23.063 -15.704  0.00  0.00    -0.050 C 
ATOM      7  C   UNL     1      35.384 -23.129 -17.406  0.00  0.00    -0.004 C 
ATOM      8  C   UNL     1      34.312 -23.377 -14.847  0.00  0.00    -0.005 C 
ATOM      9  C   UNL     1      29.752 -23.146 -16.647  0.00  0.00    -0.100 C 
ATOM     10  C   UNL     1      35.690 -23.471 -15.036  0.00  0.00    +0.019 C 
ATOM     11  C   UNL     1      36.224 -23.354 -16.316  0.00  0.00    +0.001 C 
ATOM     12  H   UNL     1      31.323 -24.297 -17.207  0.00  0.00    -0.079 HD
ENDROOT
BRANCH   2  13
ATOM     13  C   UNL     1      33.563 -21.741 -19.416  0.00  0.00    -0.020 C 
ATOM     14  C   UNL     1      34.923 -21.444 -19.498  0.00  0.00    -0.004 C 
ATOM     15  C   UNL     1      32.655 -21.086 -20.242  0.00  0.00    -0.004 C 
ATOM     16  C   UNL     1      35.394 -20.486 -20.409  0.00  0.00    -0.000 C 
ATOM     17  C   UNL     1      34.471 -19.819 -21.250  0.00  0.00    -0.000 C 
ATOM     18  C   UNL     1      33.105 -20.131 -21.154  0.00  0.00    -0.000 C 
ATOM     19  C   UNL     1      36.760 -20.175 -20.505  0.00  0.00    -0.000 C 
ATOM     20  C   UNL     1      34.942 -18.860 -22.162  0.00  0.00    -0.000 C 
ATOM     21  C   UNL     1      37.210 -19.220 -21.417  0.00  0.00    -0.000 C 
ATOM     22  C   UNL     1      36.303 -18.563 -22.244  0.00  0.00    -0.000 C 
ENDBRANCH   2  13
BRANCH  10  26
ATOM     23  N   UNL     1      37.826 -24.062 -14.211  0.00  0.00    -0.147 NA
ATOM     24  N   UNL     1      38.711 -24.295 -13.205  0.00  0.00    -0.133 NA
ATOM     25  N   UNL     1      39.223 -24.398 -10.878  0.00  0.00    -0.341 N 
ATOM     26  C   UNL     1      36.562 -23.698 -13.905  0.00  0.00    +0.103 C 
ATOM     27  C   UNL     1      36.118 -23.548 -12.606  0.00  0.00    +0.024 C 
ATOM     28  C   UNL     1      37.018 -23.785 -11.583  0.00  0.00    +0.037 C 
ATOM     29  C   UNL     1      38.303 -24.156 -11.925  0.00  0.00    +0.147 C 
ATOM     30  H   UNL     1      40.148 -24.664 -11.088  0.00  0.00    +0.144 HD
ATOM     31  H   UNL     1      38.939 -24.301  -9.941  0.00  0.00    +0.144 HD
ENDBRANCH  10  26
TORSDOF 2
ENDMDL
MODEL 6
REMARK VINA RESULT:      -9.2      6.773     11.974
REMARK  Name = 58212050
REMARK  2 active torsions:
REMARK  status: ('A' for Active; 'I' for Inactive)
REMARK    1  A    between atoms: C_2  and  C_13
REMARK    2  A    between atoms: C_10  and  C_26
REMARK                            x       y       z     vdW  Elec       q    Type
REMARK                         _______ _______ _______ _____ _____    ______ ____
ROOT
ATOM      1  N   UNL     1      33.322 -13.127 -26.330  0.00  0.00    +0.389 N 
ATOM      2  C   UNL     1      33.762 -12.091 -24.124  0.00  0.00    +0.023 C 
ATOM      3  C   UNL     1      32.857 -12.110 -25.380  0.00  0.00    -0.068 C 
ATOM      4  C   UNL     1      34.074 -13.488 -23.600  0.00  0.00    -0.026 C 
ATOM      5  C   UNL     1      33.799 -14.616 -24.397  0.00  0.00    -0.047 C 
ATOM      6  C   UNL     1      33.138 -14.467 -25.748  0.00  0.00    -0.050 C 
ATOM      7  C   UNL     1      34.715 -13.670 -22.363  0.00  0.00    -0.004 C 
ATOM      8  C   UNL     1      34.101 -15.898 -23.916  0.00  0.00    -0.005 C 
ATOM      9  C   UNL     1      32.600 -13.021 -27.597  0.00  0.00    -0.100 C 
ATOM     10  C   UNL     1      34.710 -16.064 -22.673  0.00  0.00    +0.019 C 
ATOM     11  C   UNL     1      35.023 -14.950 -21.901  0.00  0.00    +0.001 C 
ATOM     12  H   UNL     1      34.313 -12.976 -26.516  0.00  0.00    -0.079 HD
ENDROOT
BRANCH   2  13
ATOM     13  C   UNL     1      33.160 -11.152 -23.086  0.00  0.00    -0.020 C 
ATOM     14  C   UNL     1      33.456  -9.789 -23.124  0.00  0.00    -0.004 C 
ATOM     15  C   UNL     1      32.316 -11.654 -22.100  0.00  0.00    -0.004 C 
ATOM     16  C   UNL     1      32.911  -8.911 -22.174  0.00  0.00    -0.000 C 
ATOM     17  C   UNL     1      32.053  -9.422 -21.171  0.00  0.00    -0.000 C 
ATOM     18  C   UNL     1      31.766 -10.796 -21.148  0.00  0.00    -0.000 C 
ATOM     19  C   UNL     1      33.200  -7.536 -22.197  0.00  0.00    -0.000 C 
ATOM     20  C   UNL     1      31.508  -8.543 -20.220  0.00  0.00    -0.000 C 
ATOM     21  C   UNL     1      32.649  -6.678 -21.245  0.00  0.00    -0.000 C 
ATOM     22  C   UNL     1      31.805  -7.180 -20.258  0.00  0.00    -0.000 C 
ENDBRANCH   2  13
BRANCH  10  26
ATOM     23  N   UNL     1      35.653 -17.440 -20.997  0.00  0.00    -0.147 NA
ATOM     24  N   UNL     1      35.983 -18.650 -20.472  0.00  0.00    -0.133 NA
ATOM     25  N   UNL     1      36.015 -21.031 -20.610  0.00  0.00    -0.341 N 
ATOM     26  C   UNL     1      35.023 -17.391 -22.191  0.00  0.00    +0.103 C 
ATOM     27  C   UNL     1      34.693 -18.521 -22.913  0.00  0.00    +0.024 C 
ATOM     28  C   UNL     1      35.029 -19.752 -22.378  0.00  0.00    +0.037 C 
ATOM     29  C   UNL     1      35.672 -19.772 -21.157  0.00  0.00    +0.147 C 
ATOM     30  H   UNL     1      36.475 -21.081 -19.741  0.00  0.00    +0.144 HD
ATOM     31  H   UNL     1      35.796 -21.856 -21.099  0.00  0.00    +0.144 HD
ENDBRANCH  10  26
TORSDOF 2
ENDMDL
MODEL 7
REMARK VINA RESULT:      -9.1      7.239     11.860
REMARK  Name = 58212050
REMARK  2 active torsions:
REMARK  status: ('A' for Active; 'I' for Inactive)
REMARK    1  A    between atoms: C_2  and  C_13
REMARK    2  A    between atoms: C_10  and  C_26
REMARK                            x       y       z     vdW  Elec       q    Type
REMARK                         _______ _______ _______ _____ _____    ______ ____
ROOT
ATOM      1  N   UNL     1      33.675 -13.000 -26.409  0.00  0.00    +0.389 N 
ATOM      2  C   UNL     1      33.373 -14.130 -24.228  0.00  0.00    +0.023 C 
ATOM      3  C   UNL     1      34.205 -14.049 -25.530  0.00  0.00    -0.068 C 
ATOM      4  C   UNL     1      33.075 -12.761 -23.629  0.00  0.00    -0.026 C 
ATOM      5  C   UNL     1      33.291 -11.598 -24.393  0.00  0.00    -0.047 C 
ATOM      6  C   UNL     1      33.876 -11.683 -25.784  0.00  0.00    -0.050 C 
ATOM      7  C   UNL     1      32.503 -12.638 -22.352  0.00  0.00    -0.004 C 
ATOM      8  C   UNL     1      33.003 -10.340 -23.843  0.00  0.00    -0.005 C 
ATOM      9  C   UNL     1      34.325 -13.045 -27.719  0.00  0.00    -0.100 C 
ATOM     10  C   UNL     1      32.464 -10.233 -22.562  0.00  0.00    +0.019 C 
ATOM     11  C   UNL     1      32.208 -11.382 -21.820  0.00  0.00    +0.001 C 
ATOM     12  H   UNL     1      32.676 -13.157 -26.546  0.00  0.00    -0.079 HD
ENDROOT
BRANCH   2  13
ATOM     13  C   UNL     1      34.043 -15.103 -23.264  0.00  0.00    -0.020 C 
ATOM     14  C   UNL     1      34.478 -16.347 -23.721  0.00  0.00    -0.004 C 
ATOM     15  C   UNL     1      34.219 -14.750 -21.930  0.00  0.00    -0.004 C 
ATOM     16  C   UNL     1      35.097 -17.255 -22.847  0.00  0.00    -0.000 C 
ATOM     17  C   UNL     1      35.276 -16.896 -21.490  0.00  0.00    -0.000 C 
ATOM     18  C   UNL     1      34.831 -15.640 -21.047  0.00  0.00    -0.000 C 
ATOM     19  C   UNL     1      35.541 -18.512 -23.290  0.00  0.00    -0.000 C 
ATOM     20  C   UNL     1      35.894 -17.804 -20.614  0.00  0.00    -0.000 C 
ATOM     21  C   UNL     1      36.153 -19.402 -22.406  0.00  0.00    -0.000 C 
ATOM     22  C   UNL     1      36.329 -19.049 -21.072  0.00  0.00    -0.000 C 
ENDBRANCH   2  13
BRANCH  10  26
ATOM     23  N   UNL     1      31.518  -8.083 -22.837  0.00  0.00    -0.147 NA
ATOM     24  N   UNL     1      31.199  -6.838 -22.394  0.00  0.00    -0.133 NA
ATOM     25  N   UNL     1      31.203  -5.186 -20.675  0.00  0.00    -0.341 N 
ATOM     26  C   UNL     1      32.164  -8.931 -22.008  0.00  0.00    +0.103 C 
ATOM     27  C   UNL     1      32.521  -8.594 -20.718  0.00  0.00    +0.024 C 
ATOM     28  C   UNL     1      32.195  -7.327 -20.267  0.00  0.00    +0.037 C 
ATOM     29  C   UNL     1      31.535  -6.481 -21.136  0.00  0.00    +0.147 C 
ATOM     30  H   UNL     1      30.732  -4.558 -21.269  0.00  0.00    +0.144 HD
ATOM     31  H   UNL     1      31.444  -4.912 -19.760  0.00  0.00    +0.144 HD
ENDBRANCH  10  26
TORSDOF 2
ENDMDL
