MODEL 1
REMARK VINA RESULT:     -11.4      0.000      0.000
REMARK  Name = 56832738
REMARK  10 active torsions:
REMARK  status: ('A' for Active; 'I' for Inactive)
REMARK    1  A    between atoms: C_2  and  C_11
REMARK    2  A    between atoms: C_5  and  C_25
REMARK    3  A    between atoms: C_10  and  C_22
REMARK    4  A    between atoms: C_12  and  O_16
REMARK    5  A    between atoms: C_13  and  O_18
REMARK    6  A    between atoms: C_14  and  O_20
REMARK    7  A    between atoms: C_22  and  O_23
REMARK    8  A    between atoms: C_25  and  C_27
REMARK    9  A    between atoms: C_32  and  O_33
REMARK   10  A    between atoms: O_33  and  C_34
REMARK                            x       y       z     vdW  Elec       q    Type
REMARK                         _______ _______ _______ _____ _____    ______ ____
ROOT
ATOM      1 CL   UNL     1      30.864 -22.760 -17.251  0.00  0.00    -0.083 Cl
ATOM      2  C   UNL     1      34.541 -23.894 -14.889  0.00  0.00    +0.031 C 
ATOM      3  C   UNL     1      34.551 -24.021 -16.277  0.00  0.00    -0.003 C 
ATOM      4  C   UNL     1      33.403 -23.417 -14.240  0.00  0.00    +0.001 C 
ATOM      5  C   UNL     1      33.420 -23.673 -17.017  0.00  0.00    -0.007 C 
ATOM      6  C   UNL     1      32.272 -23.070 -14.979  0.00  0.00    +0.011 C 
ATOM      7  C   UNL     1      32.281 -23.197 -16.369  0.00  0.00    +0.054 C 
ENDROOT
BRANCH   2  11
ATOM      8  O   UNL     1      35.432 -24.703 -12.752  0.00  0.00    -0.326 OA
ATOM      9  O   UNL     1      36.637 -23.122 -13.953  0.00  0.00    -0.326 OA
ATOM     10  C   UNL     1      36.643 -24.452 -12.027  0.00  0.00    +0.176 C 
ATOM     11  C   UNL     1      35.770 -24.271 -14.085  0.00  0.00    +0.235 C 
ATOM     12  C   UNL     1      37.658 -25.560 -12.410  0.00  0.00    +0.169 C 
ATOM     13  C   UNL     1      36.589 -25.411 -14.733  0.00  0.00    +0.196 C 
ATOM     14  C   UNL     1      37.875 -25.697 -13.933  0.00  0.00    +0.172 C 
ATOM     15  C   UNL     1      37.005 -23.076 -12.567  0.00  0.00    +0.177 C 
BRANCH  12  16
ATOM     16  O   UNL     1      37.164 -26.809 -11.918  0.00  0.00    -0.379 OA
ATOM     17  H   UNL     1      37.397 -26.903 -10.981  0.00  0.00    +0.211 HD
ENDBRANCH  12  16
BRANCH  13  18
ATOM     18  O   UNL     1      35.803 -26.601 -14.781  0.00  0.00    -0.377 OA
ATOM     19  H   UNL     1      36.365 -27.368 -14.589  0.00  0.00    +0.211 HD
ENDBRANCH  13  18
BRANCH  14  20
ATOM     20  O   UNL     1      38.879 -24.769 -14.350  0.00  0.00    -0.379 OA
ATOM     21  H   UNL     1      38.509 -23.873 -14.352  0.00  0.00    +0.211 HD
ENDBRANCH  14  20
BRANCH  10  22
ATOM     22  C   UNL     1      36.346 -24.424 -10.533  0.00  0.00    +0.169 C 
BRANCH  22  23
ATOM     23  O   UNL     1      35.369 -25.410 -10.249  0.00  0.00    -0.379 OA
ATOM     24  H   UNL     1      35.148 -25.383  -9.305  0.00  0.00    +0.211 HD
ENDBRANCH  22  23
ENDBRANCH  10  22
ENDBRANCH   2  11
BRANCH   5  25
ATOM     25  C   UNL     1      33.470 -23.826 -18.503  0.00  0.00    +0.054 C 
BRANCH  25  27
ATOM     26  F   UNL     1      37.117 -21.000 -20.109  0.00  0.00    -0.201 F 
ATOM     27  C   UNL     1      33.970 -22.594 -19.228  0.00  0.00    -0.015 C 
ATOM     28  C   UNL     1      35.340 -22.357 -19.339  0.00  0.00    +0.029 C 
ATOM     29  C   UNL     1      33.059 -21.696 -19.785  0.00  0.00    -0.001 C 
ATOM     30  C   UNL     1      35.799 -21.222 -20.006  0.00  0.00    +0.174 C 
ATOM     31  C   UNL     1      33.518 -20.561 -20.452  0.00  0.00    +0.039 C 
ATOM     32  C   UNL     1      34.889 -20.324 -20.562  0.00  0.00    +0.166 C 
BRANCH  32  33
ATOM     33  O   UNL     1      35.336 -19.215 -21.214  0.00  0.00    -0.473 OA
BRANCH  33  34
ATOM     34  C   UNL     1      35.178 -19.188 -22.632  0.00  0.00    +0.206 C 
ATOM     35  C   UNL     1      35.292 -17.757 -23.113  0.00  0.00    +0.051 C 
ENDBRANCH  33  34
ENDBRANCH  32  33
ENDBRANCH  25  27
ENDBRANCH   5  25
TORSDOF 10
ENDMDL
MODEL 2
REMARK VINA RESULT:     -10.4      0.933      2.341
REMARK  Name = 56832738
REMARK  10 active torsions:
REMARK  status: ('A' for Active; 'I' for Inactive)
REMARK    1  A    between atoms: C_2  and  C_11
REMARK    2  A    between atoms: C_5  and  C_25
REMARK    3  A    between atoms: C_10  and  C_22
REMARK    4  A    between atoms: C_12  and  O_16
REMARK    5  A    between atoms: C_13  and  O_18
REMARK    6  A    between atoms: C_14  and  O_20
REMARK    7  A    between atoms: C_22  and  O_23
REMARK    8  A    between atoms: C_25  and  C_27
REMARK    9  A    between atoms: C_32  and  O_33
REMARK   10  A    between atoms: O_33  and  C_34
REMARK                            x       y       z     vdW  Elec       q    Type
REMARK                         _______ _______ _______ _____ _____    ______ ____
ROOT
ATOM      1 CL   UNL     1      31.063 -22.745 -17.054  0.00  0.00    -0.083 Cl
ATOM      2  C   UNL     1      34.742 -24.305 -14.953  0.00  0.00    +0.031 C 
ATOM      3  C   UNL     1      34.674 -24.351 -16.345  0.00  0.00    -0.003 C 
ATOM      4  C   UNL     1      33.679 -23.778 -14.220  0.00  0.00    +0.001 C 
ATOM      5  C   UNL     1      33.542 -23.872 -17.004  0.00  0.00    -0.007 C 
ATOM      6  C   UNL     1      32.547 -23.298 -14.879  0.00  0.00    +0.011 C 
ATOM      7  C   UNL     1      32.479 -23.345 -16.272  0.00  0.00    +0.054 C 
ENDROOT
BRANCH   2  11
ATOM      8  O   UNL     1      37.158 -24.089 -14.590  0.00  0.00    -0.326 OA
ATOM      9  O   UNL     1      36.201 -26.205 -14.604  0.00  0.00    -0.326 OA
ATOM     10  C   UNL     1      38.203 -25.029 -14.312  0.00  0.00    +0.176 C 
ATOM     11  C   UNL     1      35.971 -24.826 -14.236  0.00  0.00    +0.235 C 
ATOM     12  C   UNL     1      38.384 -25.087 -12.773  0.00  0.00    +0.169 C 
ATOM     13  C   UNL     1      35.845 -24.762 -12.696  0.00  0.00    +0.196 C 
ATOM     14  C   UNL     1      37.076 -25.387 -12.010  0.00  0.00    +0.172 C 
ATOM     15  C   UNL     1      37.601 -26.293 -14.907  0.00  0.00    +0.177 C 
BRANCH  12  16
ATOM     16  O   UNL     1      38.876 -23.818 -12.332  0.00  0.00    -0.379 OA
ATOM     17  H   UNL     1      38.140 -23.286 -11.992  0.00  0.00    +0.211 HD
ENDBRANCH  12  16
BRANCH  13  18
ATOM     18  O   UNL     1      35.727 -23.402 -12.280  0.00  0.00    -0.377 OA
ATOM     19  H   UNL     1      35.126 -22.931 -12.880  0.00  0.00    +0.211 HD
ENDBRANCH  13  18
BRANCH  14  20
ATOM     20  O   UNL     1      36.884 -26.800 -11.943  0.00  0.00    -0.379 OA
ATOM     21  H   UNL     1      36.812 -27.159 -12.841  0.00  0.00    +0.211 HD
ENDBRANCH  14  20
BRANCH  10  22
ATOM     22  C   UNL     1      39.476 -24.603 -15.033  0.00  0.00    +0.169 C 
BRANCH  22  23
ATOM     23  O   UNL     1      40.585 -25.192 -14.377  0.00  0.00    -0.379 OA
ATOM     24  H   UNL     1      41.077 -25.743 -15.006  0.00  0.00    +0.211 HD
ENDBRANCH  22  23
ENDBRANCH  10  22
ENDBRANCH   2  11
BRANCH   5  25
ATOM     25  C   UNL     1      33.508 -23.941 -18.497  0.00  0.00    +0.054 C 
BRANCH  25  27
ATOM     26  F   UNL     1      37.187 -21.059 -19.920  0.00  0.00    -0.201 F 
ATOM     27  C   UNL     1      34.023 -22.691 -19.179  0.00  0.00    -0.015 C 
ATOM     28  C   UNL     1      35.395 -22.443 -19.239  0.00  0.00    +0.029 C 
ATOM     29  C   UNL     1      33.126 -21.786 -19.747  0.00  0.00    -0.001 C 
ATOM     30  C   UNL     1      35.868 -21.292 -19.866  0.00  0.00    +0.174 C 
ATOM     31  C   UNL     1      33.600 -20.635 -20.374  0.00  0.00    +0.039 C 
ATOM     32  C   UNL     1      34.971 -20.387 -20.434  0.00  0.00    +0.166 C 
BRANCH  32  33
ATOM     33  O   UNL     1      35.433 -19.262 -21.047  0.00  0.00    -0.473 OA
BRANCH  33  34
ATOM     34  C   UNL     1      35.077 -19.078 -22.416  0.00  0.00    +0.206 C 
ATOM     35  C   UNL     1      35.481 -17.683 -22.846  0.00  0.00    +0.051 C 
ENDBRANCH  33  34
ENDBRANCH  32  33
ENDBRANCH  25  27
ENDBRANCH   5  25
TORSDOF 10
ENDMDL
MODEL 3
REMARK VINA RESULT:      -9.9      1.331      2.287
REMARK  Name = 56832738
REMARK  10 active torsions:
REMARK  status: ('A' for Active; 'I' for Inactive)
REMARK    1  A    between atoms: C_2  and  C_11
REMARK    2  A    between atoms: C_5  and  C_25
REMARK    3  A    between atoms: C_10  and  C_22
REMARK    4  A    between atoms: C_12  and  O_16
REMARK    5  A    between atoms: C_13  and  O_18
REMARK    6  A    between atoms: C_14  and  O_20
REMARK    7  A    between atoms: C_22  and  O_23
REMARK    8  A    between atoms: C_25  and  C_27
REMARK    9  A    between atoms: C_32  and  O_33
REMARK   10  A    between atoms: O_33  and  C_34
REMARK                            x       y       z     vdW  Elec       q    Type
REMARK                         _______ _______ _______ _____ _____    ______ ____
ROOT
ATOM      1 CL   UNL     1      30.759 -23.041 -16.974  0.00  0.00    -0.083 Cl
ATOM      2  C   UNL     1      34.395 -23.705 -14.381  0.00  0.00    +0.031 C 
ATOM      3  C   UNL     1      34.476 -23.946 -15.753  0.00  0.00    -0.003 C 
ATOM      4  C   UNL     1      33.198 -23.261 -13.821  0.00  0.00    +0.001 C 
ATOM      5  C   UNL     1      33.359 -23.744 -16.563  0.00  0.00    -0.007 C 
ATOM      6  C   UNL     1      32.081 -23.058 -14.631  0.00  0.00    +0.011 C 
ATOM      7  C   UNL     1      32.161 -23.300 -16.003  0.00  0.00    +0.054 C 
ENDROOT
BRANCH   2  11
ATOM      8  O   UNL     1      36.290 -25.155 -13.814  0.00  0.00    -0.326 OA
ATOM      9  O   UNL     1      35.197 -24.005 -12.117  0.00  0.00    -0.326 OA
ATOM     10  C   UNL     1      36.975 -25.451 -12.591  0.00  0.00    +0.176 C 
ATOM     11  C   UNL     1      35.609 -23.924 -13.500  0.00  0.00    +0.235 C 
ATOM     12  C   UNL     1      38.195 -24.498 -12.493  0.00  0.00    +0.169 C 
ATOM     13  C   UNL     1      36.653 -22.790 -13.618  0.00  0.00    +0.196 C 
ATOM     14  C   UNL     1      37.823 -23.006 -12.638  0.00  0.00    +0.172 C 
ATOM     15  C   UNL     1      35.878 -25.148 -11.581  0.00  0.00    +0.177 C 
BRANCH  12  16
ATOM     16  O   UNL     1      39.109 -24.833 -13.541  0.00  0.00    -0.379 OA
ATOM     17  H   UNL     1      39.523 -25.688 -13.349  0.00  0.00    +0.211 HD
ENDBRANCH  12  16
BRANCH  13  18
ATOM     18  O   UNL     1      37.169 -22.748 -14.949  0.00  0.00    -0.377 OA
ATOM     19  H   UNL     1      36.489 -22.401 -15.548  0.00  0.00    +0.211 HD
ENDBRANCH  13  18
BRANCH  14  20
ATOM     20  O   UNL     1      37.441 -22.491 -11.362  0.00  0.00    -0.379 OA
ATOM     21  H   UNL     1      37.538 -23.184 -10.691  0.00  0.00    +0.211 HD
ENDBRANCH  14  20
BRANCH  10  22
ATOM     22  C   UNL     1      37.381 -26.920 -12.577  0.00  0.00    +0.169 C 
BRANCH  22  23
ATOM     23  O   UNL     1      37.756 -27.296 -13.890  0.00  0.00    -0.379 OA
ATOM     24  H   UNL     1      38.671 -27.619 -13.885  0.00  0.00    +0.211 HD
ENDBRANCH  22  23
ENDBRANCH  10  22
ENDBRANCH   2  11
BRANCH   5  25
ATOM     25  C   UNL     1      33.486 -24.015 -18.028  0.00  0.00    +0.054 C 
BRANCH  25  27
ATOM     26  F   UNL     1      32.465 -20.180 -20.876  0.00  0.00    -0.201 F 
ATOM     27  C   UNL     1      33.924 -22.812 -18.836  0.00  0.00    -0.015 C 
ATOM     28  C   UNL     1      32.976 -22.032 -19.498  0.00  0.00    +0.029 C 
ATOM     29  C   UNL     1      35.278 -22.484 -18.920  0.00  0.00    -0.001 C 
ATOM     30  C   UNL     1      33.381 -20.925 -20.243  0.00  0.00    +0.174 C 
ATOM     31  C   UNL     1      35.682 -21.377 -19.665  0.00  0.00    +0.039 C 
ATOM     32  C   UNL     1      34.734 -20.598 -20.327  0.00  0.00    +0.166 C 
BRANCH  32  33
ATOM     33  O   UNL     1      35.130 -19.517 -21.054  0.00  0.00    -0.473 OA
BRANCH  33  34
ATOM     34  C   UNL     1      35.037 -19.622 -22.474  0.00  0.00    +0.206 C 
ATOM     35  C   UNL     1      35.129 -18.236 -23.077  0.00  0.00    +0.051 C 
ENDBRANCH  33  34
ENDBRANCH  32  33
ENDBRANCH  25  27
ENDBRANCH   5  25
TORSDOF 10
ENDMDL
MODEL 4
REMARK VINA RESULT:      -9.8      3.204      5.010
REMARK  Name = 56832738
REMARK  10 active torsions:
REMARK  status: ('A' for Active; 'I' for Inactive)
REMARK    1  A    between atoms: C_2  and  C_11
REMARK    2  A    between atoms: C_5  and  C_25
REMARK    3  A    between atoms: C_10  and  C_22
REMARK    4  A    between atoms: C_12  and  O_16
REMARK    5  A    between atoms: C_13  and  O_18
REMARK    6  A    between atoms: C_14  and  O_20
REMARK    7  A    between atoms: C_22  and  O_23
REMARK    8  A    between atoms: C_25  and  C_27
REMARK    9  A    between atoms: C_32  and  O_33
REMARK   10  A    between atoms: O_33  and  C_34
REMARK                            x       y       z     vdW  Elec       q    Type
REMARK                         _______ _______ _______ _____ _____    ______ ____
ROOT
ATOM      1 CL   UNL     1      37.159 -22.337 -17.636  0.00  0.00    -0.083 Cl
ATOM      2  C   UNL     1      33.209 -23.424 -15.740  0.00  0.00    +0.031 C 
ATOM      3  C   UNL     1      33.337 -23.459 -17.128  0.00  0.00    -0.003 C 
ATOM      4  C   UNL     1      34.297 -23.057 -14.948  0.00  0.00    +0.001 C 
ATOM      5  C   UNL     1      34.553 -23.125 -17.724  0.00  0.00    -0.007 C 
ATOM      6  C   UNL     1      35.513 -22.724 -15.544  0.00  0.00    +0.011 C 
ATOM      7  C   UNL     1      35.641 -22.758 -16.933  0.00  0.00    +0.054 C 
ENDROOT
BRANCH   2  11
ATOM      8  O   UNL     1      30.986 -24.421 -16.018  0.00  0.00    -0.326 OA
ATOM      9  O   UNL     1      31.235 -22.588 -14.615  0.00  0.00    -0.326 OA
ATOM     10  C   UNL     1      29.703 -24.155 -15.437  0.00  0.00    +0.176 C 
ATOM     11  C   UNL     1      31.887 -23.786 -15.091  0.00  0.00    +0.235 C 
ATOM     12  C   UNL     1      29.533 -25.101 -14.221  0.00  0.00    +0.169 C 
ATOM     13  C   UNL     1      32.048 -24.747 -13.891  0.00  0.00    +0.196 C 
ATOM     14  C   UNL     1      30.693 -25.014 -13.205  0.00  0.00    +0.172 C 
ATOM     15  C   UNL     1      29.874 -22.692 -15.056  0.00  0.00    +0.177 C 
BRANCH  12  16
ATOM     16  O   UNL     1      29.467 -26.446 -14.706  0.00  0.00    -0.379 OA
ATOM     17  H   UNL     1      29.021 -27.005 -14.050  0.00  0.00    +0.211 HD
ENDBRANCH  12  16
BRANCH  13  18
ATOM     18  O   UNL     1      32.590 -25.990 -14.338  0.00  0.00    -0.377 OA
ATOM     19  H   UNL     1      33.558 -25.954 -14.296  0.00  0.00    +0.211 HD
ENDBRANCH  13  18
BRANCH  14  20
ATOM     20  O   UNL     1      30.436 -23.948 -12.289  0.00  0.00    -0.379 OA
ATOM     21  H   UNL     1      29.722 -23.390 -12.634  0.00  0.00    +0.211 HD
ENDBRANCH  14  20
BRANCH  10  22
ATOM     22  C   UNL     1      28.617 -24.354 -16.487  0.00  0.00    +0.169 C 
BRANCH  22  23
ATOM     23  O   UNL     1      28.610 -23.229 -17.348  0.00  0.00    -0.379 OA
ATOM     24  H   UNL     1      27.712 -22.866 -17.399  0.00  0.00    +0.211 HD
ENDBRANCH  22  23
ENDBRANCH  10  22
ENDBRANCH   2  11
BRANCH   5  25
ATOM     25  C   UNL     1      34.649 -23.173 -19.216  0.00  0.00    +0.054 C 
BRANCH  25  27
ATOM     26  F   UNL     1      37.436 -19.497 -20.823  0.00  0.00    -0.201 F 
ATOM     27  C   UNL     1      34.802 -21.813 -19.863  0.00  0.00    -0.015 C 
ATOM     28  C   UNL     1      36.073 -21.268 -20.050  0.00  0.00    +0.029 C 
ATOM     29  C   UNL     1      33.672 -21.104 -20.270  0.00  0.00    -0.001 C 
ATOM     30  C   UNL     1      36.213 -20.015 -20.646  0.00  0.00    +0.174 C 
ATOM     31  C   UNL     1      33.813 -19.851 -20.866  0.00  0.00    +0.039 C 
ATOM     32  C   UNL     1      35.083 -19.306 -21.053  0.00  0.00    +0.166 C 
BRANCH  32  33
ATOM     33  O   UNL     1      35.219 -18.082 -21.634  0.00  0.00    -0.473 OA
BRANCH  33  34
ATOM     34  C   UNL     1      35.379 -18.052 -23.052  0.00  0.00    +0.206 C 
ATOM     35  C   UNL     1      35.023 -16.671 -23.558  0.00  0.00    +0.051 C 
ENDBRANCH  33  34
ENDBRANCH  32  33
ENDBRANCH  25  27
ENDBRANCH   5  25
TORSDOF 10
ENDMDL
MODEL 5
REMARK VINA RESULT:      -9.4      3.192      5.237
REMARK  Name = 56832738
REMARK  10 active torsions:
REMARK  status: ('A' for Active; 'I' for Inactive)
REMARK    1  A    between atoms: C_2  and  C_11
REMARK    2  A    between atoms: C_5  and  C_25
REMARK    3  A    between atoms: C_10  and  C_22
REMARK    4  A    between atoms: C_12  and  O_16
REMARK    5  A    between atoms: C_13  and  O_18
REMARK    6  A    between atoms: C_14  and  O_20
REMARK    7  A    between atoms: C_22  and  O_23
REMARK    8  A    between atoms: C_25  and  C_27
REMARK    9  A    between atoms: C_32  and  O_33
REMARK   10  A    between atoms: O_33  and  C_34
REMARK                            x       y       z     vdW  Elec       q    Type
REMARK                         _______ _______ _______ _____ _____    ______ ____
ROOT
ATOM      1 CL   UNL     1      35.466 -21.247 -19.806  0.00  0.00    -0.083 Cl
ATOM      2  C   UNL     1      36.682 -23.220 -15.931  0.00  0.00    +0.031 C 
ATOM      3  C   UNL     1      35.393 -23.415 -16.426  0.00  0.00    -0.003 C 
ATOM      4  C   UNL     1      37.586 -22.422 -16.634  0.00  0.00    +0.001 C 
ATOM      5  C   UNL     1      35.007 -22.810 -17.623  0.00  0.00    -0.007 C 
ATOM      6  C   UNL     1      37.199 -21.818 -17.830  0.00  0.00    +0.011 C 
ATOM      7  C   UNL     1      35.910 -22.012 -18.325  0.00  0.00    +0.054 C 
ENDROOT
BRANCH   2  11
ATOM      8  O   UNL     1      35.990 -24.489 -13.950  0.00  0.00    -0.326 OA
ATOM      9  O   UNL     1      37.653 -22.882 -13.740  0.00  0.00    -0.326 OA
ATOM     10  C   UNL     1      36.436 -24.515 -12.588  0.00  0.00    +0.176 C 
ATOM     11  C   UNL     1      37.103 -23.877 -14.632  0.00  0.00    +0.235 C 
ATOM     12  C   UNL     1      37.479 -25.655 -12.458  0.00  0.00    +0.169 C 
ATOM     13  C   UNL     1      38.170 -24.978 -14.829  0.00  0.00    +0.196 C 
ATOM     14  C   UNL     1      38.635 -25.552 -13.476  0.00  0.00    +0.172 C 
ATOM     15  C   UNL     1      37.034 -23.121 -12.469  0.00  0.00    +0.177 C 
BRANCH  12  16
ATOM     16  O   UNL     1      36.809 -26.901 -12.670  0.00  0.00    -0.379 OA
ATOM     17  H   UNL     1      36.388 -26.897 -13.544  0.00  0.00    +0.211 HD
ENDBRANCH  12  16
BRANCH  13  18
ATOM     18  O   UNL     1      37.627 -26.038 -15.616  0.00  0.00    -0.377 OA
ATOM     19  H   UNL     1      37.934 -25.950 -16.533  0.00  0.00    +0.211 HD
ENDBRANCH  13  18
BRANCH  14  20
ATOM     20  O   UNL     1      39.650 -24.695 -12.950  0.00  0.00    -0.379 OA
ATOM     21  H   UNL     1      40.069 -25.122 -12.187  0.00  0.00    +0.211 HD
ENDBRANCH  14  20
BRANCH  10  22
ATOM     22  C   UNL     1      35.241 -24.710 -11.664  0.00  0.00    +0.169 C 
BRANCH  22  23
ATOM     23  O   UNL     1      35.670 -25.416 -10.513  0.00  0.00    -0.379 OA
ATOM     24  H   UNL     1      36.499 -25.881 -10.710  0.00  0.00    +0.211 HD
ENDBRANCH  22  23
ENDBRANCH  10  22
ENDBRANCH   2  11
BRANCH   5  25
ATOM     25  C   UNL     1      33.616 -23.042 -18.118  0.00  0.00    +0.054 C 
BRANCH  25  27
ATOM     26  F   UNL     1      29.032 -22.767 -16.452  0.00  0.00    -0.201 F 
ATOM     27  C   UNL     1      32.595 -23.222 -17.014  0.00  0.00    -0.015 C 
ATOM     28  C   UNL     1      31.256 -22.906 -17.243  0.00  0.00    +0.029 C 
ATOM     29  C   UNL     1      32.995 -23.703 -15.767  0.00  0.00    -0.001 C 
ATOM     30  C   UNL     1      30.317 -23.072 -16.226  0.00  0.00    +0.174 C 
ATOM     31  C   UNL     1      32.056 -23.869 -14.750  0.00  0.00    +0.039 C 
ATOM     32  C   UNL     1      30.717 -23.553 -14.979  0.00  0.00    +0.166 C 
BRANCH  32  33
ATOM     33  O   UNL     1      29.800 -23.714 -13.985  0.00  0.00    -0.473 OA
BRANCH  33  34
ATOM     34  C   UNL     1      29.628 -25.035 -13.471  0.00  0.00    +0.206 C 
ATOM     35  C   UNL     1      29.142 -25.937 -14.585  0.00  0.00    +0.051 C 
ENDBRANCH  33  34
ENDBRANCH  32  33
ENDBRANCH  25  27
ENDBRANCH   5  25
TORSDOF 10
ENDMDL
MODEL 6
REMARK VINA RESULT:      -8.6      3.790      7.532
REMARK  Name = 56832738
REMARK  10 active torsions:
REMARK  status: ('A' for Active; 'I' for Inactive)
REMARK    1  A    between atoms: C_2  and  C_11
REMARK    2  A    between atoms: C_5  and  C_25
REMARK    3  A    between atoms: C_10  and  C_22
REMARK    4  A    between atoms: C_12  and  O_16
REMARK    5  A    between atoms: C_13  and  O_18
REMARK    6  A    between atoms: C_14  and  O_20
REMARK    7  A    between atoms: C_22  and  O_23
REMARK    8  A    between atoms: C_25  and  C_27
REMARK    9  A    between atoms: C_32  and  O_33
REMARK   10  A    between atoms: O_33  and  C_34
REMARK                            x       y       z     vdW  Elec       q    Type
REMARK                         _______ _______ _______ _____ _____    ______ ____
ROOT
ATOM      1 CL   UNL     1      36.827 -22.053 -18.263  0.00  0.00    -0.083 Cl
ATOM      2  C   UNL     1      33.145 -23.354 -15.998  0.00  0.00    +0.031 C 
ATOM      3  C   UNL     1      34.288 -22.977 -15.293  0.00  0.00    -0.003 C 
ATOM      4  C   UNL     1      33.145 -23.326 -17.392  0.00  0.00    +0.001 C 
ATOM      5  C   UNL     1      35.431 -22.573 -15.983  0.00  0.00    -0.007 C 
ATOM      6  C   UNL     1      34.288 -22.921 -18.082  0.00  0.00    +0.011 C 
ATOM      7  C   UNL     1      35.432 -22.545 -17.377  0.00  0.00    +0.054 C 
ENDROOT
BRANCH   2  11
ATOM      8  O   UNL     1      30.989 -24.519 -16.094  0.00  0.00    -0.326 OA
ATOM      9  O   UNL     1      31.197 -22.633 -14.755  0.00  0.00    -0.326 OA
ATOM     10  C   UNL     1      29.734 -24.329 -15.429  0.00  0.00    +0.176 C 
ATOM     11  C   UNL     1      31.903 -23.793 -15.248  0.00  0.00    +0.235 C 
ATOM     12  C   UNL     1      29.719 -25.251 -14.182  0.00  0.00    +0.169 C 
ATOM     13  C   UNL     1      32.218 -24.705 -14.040  0.00  0.00    +0.196 C 
ATOM     14  C   UNL     1      30.937 -25.050 -13.254  0.00  0.00    +0.172 C 
ATOM     15  C   UNL     1      29.821 -22.847 -15.096  0.00  0.00    +0.177 C 
BRANCH  12  16
ATOM     16  O   UNL     1      29.720 -26.610 -14.629  0.00  0.00    -0.379 OA
ATOM     17  H   UNL     1      29.116 -26.703 -15.382  0.00  0.00    +0.211 HD
ENDBRANCH  12  16
BRANCH  13  18
ATOM     18  O   UNL     1      32.818 -25.917 -14.496  0.00  0.00    -0.377 OA
ATOM     19  H   UNL     1      32.626 -26.038 -15.439  0.00  0.00    +0.211 HD
ENDBRANCH  13  18
BRANCH  14  20
ATOM     20  O   UNL     1      30.666 -23.980 -12.347  0.00  0.00    -0.379 OA
ATOM     21  H   UNL     1      31.374 -23.929 -11.686  0.00  0.00    +0.211 HD
ENDBRANCH  14  20
BRANCH  10  22
ATOM     22  C   UNL     1      28.595 -24.637 -16.394  0.00  0.00    +0.169 C 
BRANCH  22  23
ATOM     23  O   UNL     1      28.605 -23.667 -17.427  0.00  0.00    -0.379 OA
ATOM     24  H   UNL     1      27.693 -23.410 -17.637  0.00  0.00    +0.211 HD
ENDBRANCH  22  23
ENDBRANCH  10  22
ENDBRANCH   2  11
BRANCH   5  25
ATOM     25  C   UNL     1      36.636 -22.179 -15.191  0.00  0.00    +0.054 C 
BRANCH  25  27
ATOM     26  F   UNL     1      37.947 -25.457 -11.815  0.00  0.00    -0.201 F 
ATOM     27  C   UNL     1      37.484 -23.351 -14.742  0.00  0.00    -0.015 C 
ATOM     28  C   UNL     1      37.324 -23.877 -13.460  0.00  0.00    +0.029 C 
ATOM     29  C   UNL     1      38.425 -23.903 -15.610  0.00  0.00    -0.001 C 
ATOM     30  C   UNL     1      38.105 -24.956 -13.048  0.00  0.00    +0.174 C 
ATOM     31  C   UNL     1      39.206 -24.982 -15.198  0.00  0.00    +0.039 C 
ATOM     32  C   UNL     1      39.046 -25.509 -13.916  0.00  0.00    +0.166 C 
BRANCH  32  33
ATOM     33  O   UNL     1      39.809 -26.562 -13.514  0.00  0.00    -0.473 OA
BRANCH  33  34
ATOM     34  C   UNL     1      40.961 -26.865 -14.301  0.00  0.00    +0.206 C 
ATOM     35  C   UNL     1      41.872 -27.778 -13.508  0.00  0.00    +0.051 C 
ENDBRANCH  33  34
ENDBRANCH  32  33
ENDBRANCH  25  27
ENDBRANCH   5  25
TORSDOF 10
ENDMDL
MODEL 7
REMARK VINA RESULT:      -8.6      3.463      7.372
REMARK  Name = 56832738
REMARK  10 active torsions:
REMARK  status: ('A' for Active; 'I' for Inactive)
REMARK    1  A    between atoms: C_2  and  C_11
REMARK    2  A    between atoms: C_5  and  C_25
REMARK    3  A    between atoms: C_10  and  C_22
REMARK    4  A    between atoms: C_12  and  O_16
REMARK    5  A    between atoms: C_13  and  O_18
REMARK    6  A    between atoms: C_14  and  O_20
REMARK    7  A    between atoms: C_22  and  O_23
REMARK    8  A    between atoms: C_25  and  C_27
REMARK    9  A    between atoms: C_32  and  O_33
REMARK   10  A    between atoms: O_33  and  C_34
REMARK                            x       y       z     vdW  Elec       q    Type
REMARK                         _______ _______ _______ _____ _____    ______ ____
ROOT
ATOM      1 CL   UNL     1      36.315 -21.892 -19.428  0.00  0.00    -0.083 Cl
ATOM      2  C   UNL     1      33.078 -23.222 -16.576  0.00  0.00    +0.031 C 
ATOM      3  C   UNL     1      34.407 -23.222 -16.154  0.00  0.00    -0.003 C 
ATOM      4  C   UNL     1      32.756 -22.811 -17.869  0.00  0.00    +0.001 C 
ATOM      5  C   UNL     1      35.415 -22.812 -17.027  0.00  0.00    -0.007 C 
ATOM      6  C   UNL     1      33.764 -22.402 -18.742  0.00  0.00    +0.011 C 
ATOM      7  C   UNL     1      35.094 -22.402 -18.321  0.00  0.00    +0.054 C 
ENDROOT
BRANCH   2  11
ATOM      8  O   UNL     1      30.964 -24.434 -16.299  0.00  0.00    -0.326 OA
ATOM      9  O   UNL     1      31.334 -22.507 -15.056  0.00  0.00    -0.326 OA
ATOM     10  C   UNL     1      29.825 -24.253 -15.447  0.00  0.00    +0.176 C 
ATOM     11  C   UNL     1      31.982 -23.666 -15.627  0.00  0.00    +0.235 C 
ATOM     12  C   UNL     1      30.033 -25.140 -14.191  0.00  0.00    +0.169 C 
ATOM     13  C   UNL     1      32.507 -24.537 -14.463  0.00  0.00    +0.196 C 
ATOM     14  C   UNL     1      31.377 -24.887 -13.475  0.00  0.00    +0.172 C 
ATOM     15  C   UNL     1      29.927 -22.761 -15.167  0.00  0.00    +0.177 C 
BRANCH  12  16
ATOM     16  O   UNL     1      29.998 -26.510 -14.601  0.00  0.00    -0.379 OA
ATOM     17  H   UNL     1      30.005 -27.082 -13.817  0.00  0.00    +0.211 HD
ENDBRANCH  12  16
BRANCH  13  18
ATOM     18  O   UNL     1      33.058 -25.748 -14.980  0.00  0.00    -0.377 OA
ATOM     19  H   UNL     1      32.706 -26.502 -14.480  0.00  0.00    +0.211 HD
ENDBRANCH  13  18
BRANCH  14  20
ATOM     20  O   UNL     1      31.226 -23.799 -12.562  0.00  0.00    -0.379 OA
ATOM     21  H   UNL     1      30.324 -23.798 -12.207  0.00  0.00    +0.211 HD
ENDBRANCH  14  20
BRANCH  10  22
ATOM     22  C   UNL     1      28.556 -24.611 -16.210  0.00  0.00    +0.169 C 
BRANCH  22  23
ATOM     23  O   UNL     1      28.501 -23.826 -17.388  0.00  0.00    -0.379 OA
ATOM     24  H   UNL     1      28.896 -24.320 -18.124  0.00  0.00    +0.211 HD
ENDBRANCH  22  23
ENDBRANCH  10  22
ENDBRANCH   2  11
BRANCH   5  25
ATOM     25  C   UNL     1      36.828 -22.828 -16.538  0.00  0.00    +0.054 C 
BRANCH  25  27
ATOM     26  F   UNL     1      37.136 -26.678 -13.546  0.00  0.00    -0.201 F 
ATOM     27  C   UNL     1      36.988 -23.420 -15.153  0.00  0.00    -0.015 C 
ATOM     28  C   UNL     1      36.989 -24.804 -14.980  0.00  0.00    +0.029 C 
ATOM     29  C   UNL     1      37.134 -22.580 -14.049  0.00  0.00    -0.001 C 
ATOM     30  C   UNL     1      37.137 -25.347 -13.705  0.00  0.00    +0.174 C 
ATOM     31  C   UNL     1      37.282 -23.123 -12.774  0.00  0.00    +0.039 C 
ATOM     32  C   UNL     1      37.283 -24.507 -12.601  0.00  0.00    +0.166 C 
BRANCH  32  33
ATOM     33  O   UNL     1      37.427 -25.037 -11.355  0.00  0.00    -0.473 OA
BRANCH  33  34
ATOM     34  C   UNL     1      36.760 -24.367 -10.285  0.00  0.00    +0.206 C 
ATOM     35  C   UNL     1      35.343 -24.889 -10.185  0.00  0.00    +0.051 C 
ENDBRANCH  33  34
ENDBRANCH  32  33
ENDBRANCH  25  27
ENDBRANCH   5  25
TORSDOF 10
ENDMDL
MODEL 8
REMARK VINA RESULT:      -8.4      3.200      5.620
REMARK  Name = 56832738
REMARK  10 active torsions:
REMARK  status: ('A' for Active; 'I' for Inactive)
REMARK    1  A    between atoms: C_2  and  C_11
REMARK    2  A    between atoms: C_5  and  C_25
REMARK    3  A    between atoms: C_10  and  C_22
REMARK    4  A    between atoms: C_12  and  O_16
REMARK    5  A    between atoms: C_13  and  O_18
REMARK    6  A    between atoms: C_14  and  O_20
REMARK    7  A    between atoms: C_22  and  O_23
REMARK    8  A    between atoms: C_25  and  C_27
REMARK    9  A    between atoms: C_32  and  O_33
REMARK   10  A    between atoms: O_33  and  C_34
REMARK                            x       y       z     vdW  Elec       q    Type
REMARK                         _______ _______ _______ _____ _____    ______ ____
ROOT
ATOM      1 CL   UNL     1      35.571 -21.095 -19.724  0.00  0.00    -0.083 Cl
ATOM      2  C   UNL     1      36.608 -23.409 -15.988  0.00  0.00    +0.031 C 
ATOM      3  C   UNL     1      35.322 -23.503 -16.520  0.00  0.00    -0.003 C 
ATOM      4  C   UNL     1      37.564 -22.606 -16.611  0.00  0.00    +0.001 C 
ATOM      5  C   UNL     1      34.991 -22.792 -17.673  0.00  0.00    -0.007 C 
ATOM      6  C   UNL     1      37.232 -21.896 -17.765  0.00  0.00    +0.011 C 
ATOM      7  C   UNL     1      35.946 -21.989 -18.297  0.00  0.00    +0.054 C 
ENDROOT
BRANCH   2  11
ATOM      8  O   UNL     1      38.394 -24.273 -14.546  0.00  0.00    -0.326 OA
ATOM      9  O   UNL     1      36.464 -25.532 -14.833  0.00  0.00    -0.326 OA
ATOM     10  C   UNL     1      38.526 -25.443 -13.730  0.00  0.00    +0.176 C 
ATOM     11  C   UNL     1      36.969 -24.181 -14.734  0.00  0.00    +0.235 C 
ATOM     12  C   UNL     1      38.098 -25.060 -12.289  0.00  0.00    +0.169 C 
ATOM     13  C   UNL     1      36.385 -23.550 -13.449  0.00  0.00    +0.196 C 
ATOM     14  C   UNL     1      36.697 -24.417 -12.212  0.00  0.00    +0.172 C 
ATOM     15  C   UNL     1      37.550 -26.377 -14.430  0.00  0.00    +0.177 C 
BRANCH  12  16
ATOM     16  O   UNL     1      39.047 -24.121 -11.776  0.00  0.00    -0.379 OA
ATOM     17  H   UNL     1      39.544 -24.527 -11.048  0.00  0.00    +0.211 HD
ENDBRANCH  12  16
BRANCH  13  18
ATOM     18  O   UNL     1      36.946 -22.252 -13.253  0.00  0.00    -0.377 OA
ATOM     19  H   UNL     1      36.253 -21.582 -13.363  0.00  0.00    +0.211 HD
ENDBRANCH  13  18
BRANCH  14  20
ATOM     20  O   UNL     1      35.711 -25.447 -12.127  0.00  0.00    -0.379 OA
ATOM     21  H   UNL     1      36.149 -26.311 -12.088  0.00  0.00    +0.211 HD
ENDBRANCH  14  20
BRANCH  10  22
ATOM     22  C   UNL     1      39.960 -25.953 -13.796  0.00  0.00    +0.169 C 
BRANCH  22  23
ATOM     23  O   UNL     1      40.790 -24.903 -14.261  0.00  0.00    -0.379 OA
ATOM     24  H   UNL     1      40.268 -24.297 -14.810  0.00  0.00    +0.211 HD
ENDBRANCH  22  23
ENDBRANCH  10  22
ENDBRANCH   2  11
BRANCH   5  25
ATOM     25  C   UNL     1      33.602 -22.918 -18.211  0.00  0.00    +0.054 C 
BRANCH  25  27
ATOM     26  F   UNL     1      28.968 -22.755 -16.671  0.00  0.00    -0.201 F 
ATOM     27  C   UNL     1      32.552 -23.148 -17.143  0.00  0.00    -0.015 C 
ATOM     28  C   UNL     1      31.216 -22.841 -17.401  0.00  0.00    +0.029 C 
ATOM     29  C   UNL     1      32.922 -23.666 -15.902  0.00  0.00    -0.001 C 
ATOM     30  C   UNL     1      30.251 -23.052 -16.418  0.00  0.00    +0.174 C 
ATOM     31  C   UNL     1      31.956 -23.877 -14.919  0.00  0.00    +0.039 C 
ATOM     32  C   UNL     1      30.620 -23.570 -15.177  0.00  0.00    +0.166 C 
BRANCH  32  33
ATOM     33  O   UNL     1      29.678 -23.777 -14.216  0.00  0.00    -0.473 OA
BRANCH  33  34
ATOM     34  C   UNL     1      28.931 -24.991 -14.290  0.00  0.00    +0.206 C 
ATOM     35  C   UNL     1      29.773 -26.044 -14.979  0.00  0.00    +0.051 C 
ENDBRANCH  33  34
ENDBRANCH  32  33
ENDBRANCH  25  27
ENDBRANCH   5  25
TORSDOF 10
ENDMDL
MODEL 9
REMARK VINA RESULT:      -8.4      3.761      5.667
REMARK  Name = 56832738
REMARK  10 active torsions:
REMARK  status: ('A' for Active; 'I' for Inactive)
REMARK    1  A    between atoms: C_2  and  C_11
REMARK    2  A    between atoms: C_5  and  C_25
REMARK    3  A    between atoms: C_10  and  C_22
REMARK    4  A    between atoms: C_12  and  O_16
REMARK    5  A    between atoms: C_13  and  O_18
REMARK    6  A    between atoms: C_14  and  O_20
REMARK    7  A    between atoms: C_22  and  O_23
REMARK    8  A    between atoms: C_25  and  C_27
REMARK    9  A    between atoms: C_32  and  O_33
REMARK   10  A    between atoms: O_33  and  C_34
REMARK                            x       y       z     vdW  Elec       q    Type
REMARK                         _______ _______ _______ _____ _____    ______ ____
ROOT
ATOM      1 CL   UNL     1      31.294 -22.747 -16.962  0.00  0.00    -0.083 Cl
ATOM      2  C   UNL     1      34.914 -24.432 -14.856  0.00  0.00    +0.031 C 
ATOM      3  C   UNL     1      33.684 -24.416 -14.201  0.00  0.00    -0.003 C 
ATOM      4  C   UNL     1      35.020 -23.931 -16.154  0.00  0.00    +0.001 C 
ATOM      5  C   UNL     1      32.559 -23.898 -14.842  0.00  0.00    -0.007 C 
ATOM      6  C   UNL     1      33.895 -23.413 -16.795  0.00  0.00    +0.011 C 
ATOM      7  C   UNL     1      32.663 -23.397 -16.139  0.00  0.00    +0.054 C 
ENDROOT
BRANCH   2  11
ATOM      8  O   UNL     1      37.348 -24.327 -14.567  0.00  0.00    -0.326 OA
ATOM      9  O   UNL     1      36.288 -26.392 -14.495  0.00  0.00    -0.326 OA
ATOM     10  C   UNL     1      38.353 -25.311 -14.292  0.00  0.00    +0.176 C 
ATOM     11  C   UNL     1      36.137 -24.994 -14.159  0.00  0.00    +0.235 C 
ATOM     12  C   UNL     1      38.576 -25.338 -12.758  0.00  0.00    +0.169 C 
ATOM     13  C   UNL     1      36.059 -24.883 -12.619  0.00  0.00    +0.196 C 
ATOM     14  C   UNL     1      37.277 -25.551 -11.950  0.00  0.00    +0.172 C 
ATOM     15  C   UNL     1      37.672 -26.558 -14.834  0.00  0.00    +0.177 C 
BRANCH  12  16
ATOM     16  O   UNL     1      39.143 -24.084 -12.366  0.00  0.00    -0.379 OA
ATOM     17  H   UNL     1      39.620 -23.696 -13.115  0.00  0.00    +0.211 HD
ENDBRANCH  12  16
BRANCH  13  18
ATOM     18  O   UNL     1      36.021 -23.508 -12.238  0.00  0.00    -0.377 OA
ATOM     19  H   UNL     1      36.889 -23.244 -11.895  0.00  0.00    +0.211 HD
ENDBRANCH  13  18
BRANCH  14  20
ATOM     20  O   UNL     1      37.017 -26.951 -11.839  0.00  0.00    -0.379 OA
ATOM     21  H   UNL     1      36.123 -27.140 -12.163  0.00  0.00    +0.211 HD
ENDBRANCH  14  20
BRANCH  10  22
ATOM     22  C   UNL     1      39.624 -24.968 -15.060  0.00  0.00    +0.169 C 
BRANCH  22  23
ATOM     23  O   UNL     1      40.741 -25.302 -14.254  0.00  0.00    -0.379 OA
ATOM     24  H   UNL     1      40.798 -24.683 -13.509  0.00  0.00    +0.211 HD
ENDBRANCH  22  23
ENDBRANCH  10  22
ENDBRANCH   2  11
BRANCH   5  25
ATOM     25  C   UNL     1      31.258 -23.898 -14.105  0.00  0.00    +0.054 C 
BRANCH  25  27
ATOM     26  F   UNL     1      28.063 -25.519 -17.426  0.00  0.00    -0.201 F 
ATOM     27  C   UNL     1      30.051 -23.687 -14.994  0.00  0.00    -0.015 C 
ATOM     28  C   UNL     1      29.601 -24.719 -15.818  0.00  0.00    +0.029 C 
ATOM     29  C   UNL     1      29.389 -22.459 -14.990  0.00  0.00    -0.001 C 
ATOM     30  C   UNL     1      28.490 -24.523 -16.637  0.00  0.00    +0.174 C 
ATOM     31  C   UNL     1      28.278 -22.264 -15.809  0.00  0.00    +0.039 C 
ATOM     32  C   UNL     1      27.828 -23.296 -16.633  0.00  0.00    +0.166 C 
BRANCH  32  33
ATOM     33  O   UNL     1      26.743 -23.103 -17.432  0.00  0.00    -0.473 OA
BRANCH  33  34
ATOM     34  C   UNL     1      26.267 -21.765 -17.569  0.00  0.00    +0.206 C 
ATOM     35  C   UNL     1      25.696 -21.585 -18.959  0.00  0.00    +0.051 C 
ENDBRANCH  33  34
ENDBRANCH  32  33
ENDBRANCH  25  27
ENDBRANCH   5  25
TORSDOF 10
ENDMDL
