MODEL 1
REMARK VINA RESULT:     -12.2      0.000      0.000
REMARK  Name = 6419766
REMARK  1 active torsions:
REMARK  status: ('A' for Active; 'I' for Inactive)
REMARK    1  A    between atoms: C_9  and  C_20
REMARK                            x       y       z     vdW  Elec       q    Type
REMARK                         _______ _______ _______ _____ _____    ______ ____
ROOT
ATOM      1  N   UNL     1      34.281 -24.270 -14.620  0.00  0.00    -0.274 N 
ATOM      2  N   UNL     1      34.055 -23.161 -16.683  0.00  0.00    -0.328 NA
ATOM      3  N   UNL     1      31.881 -22.817 -17.662  0.00  0.00    -0.343 NA
ATOM      4  N   UNL     1      37.493 -25.332 -15.163  0.00  0.00    -0.239 N 
ATOM      5  N   UNL     1      36.360 -24.828 -15.680  0.00  0.00    -0.166 NA
ATOM      6  C   UNL     1      32.068 -23.950 -15.558  0.00  0.00    +0.143 C 
ATOM      7  C   UNL     1      33.445 -23.778 -15.654  0.00  0.00    +0.185 C 
ATOM      8  C   UNL     1      31.304 -23.437 -16.619  0.00  0.00    +0.133 C 
ATOM      9  C   UNL     1      33.225 -22.713 -17.639  0.00  0.00    +0.138 C 
ATOM     10  C   UNL     1      35.601 -24.748 -14.616  0.00  0.00    +0.152 C 
ATOM     11  C   UNL     1      31.454 -24.598 -14.471  0.00  0.00    -0.011 C 
ATOM     12  C   UNL     1      29.921 -23.591 -16.557  0.00  0.00    +0.029 C 
ATOM     13  C   UNL     1      36.174 -25.171 -13.429  0.00  0.00    +0.048 C 
ATOM     14  C   UNL     1      37.434 -25.556 -13.818  0.00  0.00    +0.046 C 
ATOM     15  C   UNL     1      30.070 -24.737 -14.437  0.00  0.00    -0.004 C 
ATOM     16  C   UNL     1      29.303 -24.234 -15.481  0.00  0.00    +0.002 C 
ATOM     17  C   UNL     1      38.572 -26.104 -13.063  0.00  0.00    +0.049 C 
ATOM     18  H   UNL     1      33.854 -24.277 -13.734  0.00  0.00    +0.156 HD
ATOM     19  H   UNL     1      38.293 -25.522 -15.704  0.00  0.00    +0.174 HD
ENDROOT
BRANCH   9  20
ATOM     20  C   UNL     1      33.835 -22.046 -18.759  0.00  0.00    +0.086 C 
ATOM     21  C   UNL     1      33.052 -21.313 -19.655  0.00  0.00    +0.012 C 
ATOM     22  C   UNL     1      35.217 -22.126 -18.959  0.00  0.00    +0.012 C 
ATOM     23  C   UNL     1      33.643 -20.666 -20.740  0.00  0.00    +0.001 C 
ATOM     24  C   UNL     1      35.808 -21.480 -20.043  0.00  0.00    +0.001 C 
ATOM     25  C   UNL     1      35.022 -20.749 -20.935  0.00  0.00    +0.000 C 
ENDBRANCH   9  20
TORSDOF 1
ENDMDL
MODEL 2
REMARK VINA RESULT:     -11.7      1.537      5.783
REMARK  Name = 6419766
REMARK  1 active torsions:
REMARK  status: ('A' for Active; 'I' for Inactive)
REMARK    1  A    between atoms: C_9  and  C_20
REMARK                            x       y       z     vdW  Elec       q    Type
REMARK                         _______ _______ _______ _____ _____    ______ ____
ROOT
ATOM      1  N   UNL     1      33.464 -22.822 -17.978  0.00  0.00    -0.274 N 
ATOM      2  N   UNL     1      34.932 -23.974 -16.545  0.00  0.00    -0.328 NA
ATOM      3  N   UNL     1      34.166 -24.825 -14.426  0.00  0.00    -0.343 NA
ATOM      4  N   UNL     1      35.905 -21.047 -19.601  0.00  0.00    -0.239 N 
ATOM      5  N   UNL     1      35.562 -21.806 -18.546  0.00  0.00    -0.166 NA
ATOM      6  C   UNL     1      32.638 -23.657 -15.857  0.00  0.00    +0.143 C 
ATOM      7  C   UNL     1      33.688 -23.506 -16.757  0.00  0.00    +0.185 C 
ATOM      8  C   UNL     1      32.934 -24.345 -14.669  0.00  0.00    +0.133 C 
ATOM      9  C   UNL     1      35.099 -24.613 -15.377  0.00  0.00    +0.138 C 
ATOM     10  C   UNL     1      34.301 -22.049 -18.799  0.00  0.00    +0.152 C 
ATOM     11  C   UNL     1      31.345 -23.159 -16.102  0.00  0.00    -0.011 C 
ATOM     12  C   UNL     1      31.908 -24.516 -13.744  0.00  0.00    +0.029 C 
ATOM     13  C   UNL     1      33.797 -21.493 -19.962  0.00  0.00    +0.048 C 
ATOM     14  C   UNL     1      34.883 -20.829 -20.479  0.00  0.00    +0.046 C 
ATOM     15  C   UNL     1      30.339 -23.345 -15.159  0.00  0.00    -0.004 C 
ATOM     16  C   UNL     1      30.620 -24.024 -13.979  0.00  0.00    +0.002 C 
ATOM     17  C   UNL     1      35.055 -20.023 -21.698  0.00  0.00    +0.049 C 
ATOM     18  H   UNL     1      32.543 -22.905 -18.316  0.00  0.00    +0.156 HD
ATOM     19  H   UNL     1      36.810 -20.682 -19.728  0.00  0.00    +0.174 HD
ENDROOT
BRANCH   9  20
ATOM     20  C   UNL     1      36.415 -25.131 -15.109  0.00  0.00    +0.086 C 
ATOM     21  C   UNL     1      37.503 -24.262 -14.987  0.00  0.00    +0.012 C 
ATOM     22  C   UNL     1      36.614 -26.508 -14.967  0.00  0.00    +0.012 C 
ATOM     23  C   UNL     1      38.777 -24.764 -14.725  0.00  0.00    +0.001 C 
ATOM     24  C   UNL     1      37.888 -27.010 -14.706  0.00  0.00    +0.001 C 
ATOM     25  C   UNL     1      38.971 -26.138 -14.584  0.00  0.00    +0.000 C 
ENDBRANCH   9  20
TORSDOF 1
ENDMDL
MODEL 3
REMARK VINA RESULT:     -11.6      1.206      4.949
REMARK  Name = 6419766
REMARK  1 active torsions:
REMARK  status: ('A' for Active; 'I' for Inactive)
REMARK    1  A    between atoms: C_9  and  C_20
REMARK                            x       y       z     vdW  Elec       q    Type
REMARK                         _______ _______ _______ _____ _____    ______ ____
ROOT
ATOM      1  N   UNL     1      35.842 -23.493 -16.260  0.00  0.00    -0.274 N 
ATOM      2  N   UNL     1      33.490 -23.569 -16.274  0.00  0.00    -0.328 NA
ATOM      3  N   UNL     1      32.237 -22.552 -18.062  0.00  0.00    -0.343 NA
ATOM      4  N   UNL     1      36.167 -23.828 -12.866  0.00  0.00    -0.239 N 
ATOM      5  N   UNL     1      35.365 -23.562 -13.910  0.00  0.00    -0.166 NA
ATOM      6  C   UNL     1      34.633 -22.452 -18.086  0.00  0.00    +0.143 C 
ATOM      7  C   UNL     1      34.616 -23.163 -16.890  0.00  0.00    +0.185 C 
ATOM      8  C   UNL     1      33.380 -22.161 -18.652  0.00  0.00    +0.133 C 
ATOM      9  C   UNL     1      32.354 -23.235 -16.905  0.00  0.00    +0.138 C 
ATOM     10  C   UNL     1      36.197 -23.677 -14.914  0.00  0.00    +0.152 C 
ATOM     11  C   UNL     1      35.823 -22.039 -18.712  0.00  0.00    -0.011 C 
ATOM     12  C   UNL     1      33.358 -21.451 -19.849  0.00  0.00    +0.029 C 
ATOM     13  C   UNL     1      37.501 -24.004 -14.587  0.00  0.00    +0.048 C 
ATOM     14  C   UNL     1      37.458 -24.098 -13.217  0.00  0.00    +0.046 C 
ATOM     15  C   UNL     1      35.769 -21.330 -19.908  0.00  0.00    -0.004 C 
ATOM     16  C   UNL     1      34.536 -21.036 -20.477  0.00  0.00    +0.002 C 
ATOM     17  C   UNL     1      38.493 -24.414 -12.219  0.00  0.00    +0.049 C 
ATOM     18  H   UNL     1      36.590 -23.617 -16.888  0.00  0.00    +0.156 HD
ATOM     19  H   UNL     1      35.854 -23.827 -11.933  0.00  0.00    +0.174 HD
ENDROOT
BRANCH   9  20
ATOM     20  C   UNL     1      31.125 -23.650 -16.280  0.00  0.00    +0.086 C 
ATOM     21  C   UNL     1      29.908 -23.091 -16.679  0.00  0.00    +0.012 C 
ATOM     22  C   UNL     1      31.140 -24.617 -15.270  0.00  0.00    +0.012 C 
ATOM     23  C   UNL     1      28.717 -23.495 -16.075  0.00  0.00    +0.001 C 
ATOM     24  C   UNL     1      29.951 -25.021 -14.666  0.00  0.00    +0.001 C 
ATOM     25  C   UNL     1      28.738 -24.460 -15.069  0.00  0.00    +0.000 C 
ENDBRANCH   9  20
TORSDOF 1
ENDMDL
MODEL 4
REMARK VINA RESULT:     -10.6      2.030      6.166
REMARK  Name = 6419766
REMARK  1 active torsions:
REMARK  status: ('A' for Active; 'I' for Inactive)
REMARK    1  A    between atoms: C_9  and  C_20
REMARK                            x       y       z     vdW  Elec       q    Type
REMARK                         _______ _______ _______ _____ _____    ______ ____
ROOT
ATOM      1  N   UNL     1      35.994 -22.516 -15.861  0.00  0.00    -0.274 N 
ATOM      2  N   UNL     1      33.904 -23.346 -15.168  0.00  0.00    -0.328 NA
ATOM      3  N   UNL     1      33.682 -24.537 -13.086  0.00  0.00    -0.343 NA
ATOM      4  N   UNL     1      35.255 -22.503 -19.207  0.00  0.00    -0.239 N 
ATOM      5  N   UNL     1      34.931 -22.925 -17.973  0.00  0.00    -0.166 NA
ATOM      6  C   UNL     1      35.830 -23.707 -13.755  0.00  0.00    +0.143 C 
ATOM      7  C   UNL     1      35.216 -23.211 -14.901  0.00  0.00    +0.185 C 
ATOM      8  C   UNL     1      34.997 -24.384 -12.849  0.00  0.00    +0.133 C 
ATOM      9  C   UNL     1      33.207 -24.011 -14.233  0.00  0.00    +0.138 C 
ATOM     10  C   UNL     1      35.878 -22.377 -17.253  0.00  0.00    +0.152 C 
ATOM     11  C   UNL     1      37.204 -23.553 -13.498  0.00  0.00    -0.011 C 
ATOM     12  C   UNL     1      35.576 -24.895 -11.691  0.00  0.00    +0.029 C 
ATOM     13  C   UNL     1      36.805 -21.618 -17.947  0.00  0.00    +0.048 C 
ATOM     14  C   UNL     1      36.370 -21.717 -19.246  0.00  0.00    +0.046 C 
ATOM     15  C   UNL     1      37.755 -24.074 -12.332  0.00  0.00    -0.004 C 
ATOM     16  C   UNL     1      36.942 -24.746 -11.428  0.00  0.00    +0.002 C 
ATOM     17  C   UNL     1      36.889 -21.154 -20.503  0.00  0.00    +0.049 C 
ATOM     18  H   UNL     1      36.764 -22.038 -15.477  0.00  0.00    +0.156 HD
ATOM     19  H   UNL     1      34.736 -22.739 -20.009  0.00  0.00    +0.174 HD
ENDROOT
BRANCH   9  20
ATOM     20  C   UNL     1      31.798 -24.179 -14.478  0.00  0.00    +0.086 C 
ATOM     21  C   UNL     1      31.046 -23.129 -15.012  0.00  0.00    +0.012 C 
ATOM     22  C   UNL     1      31.173 -25.395 -14.185  0.00  0.00    +0.012 C 
ATOM     23  C   UNL     1      29.682 -23.293 -15.251  0.00  0.00    +0.001 C 
ATOM     24  C   UNL     1      29.809 -25.559 -14.425  0.00  0.00    +0.001 C 
ATOM     25  C   UNL     1      29.063 -24.508 -14.958  0.00  0.00    +0.000 C 
ENDBRANCH   9  20
TORSDOF 1
ENDMDL
MODEL 5
REMARK VINA RESULT:     -10.2      1.748      6.593
REMARK  Name = 6419766
REMARK  1 active torsions:
REMARK  status: ('A' for Active; 'I' for Inactive)
REMARK    1  A    between atoms: C_9  and  C_20
REMARK                            x       y       z     vdW  Elec       q    Type
REMARK                         _______ _______ _______ _____ _____    ______ ____
ROOT
ATOM      1  N   UNL     1      36.453 -22.646 -16.785  0.00  0.00    -0.274 N 
ATOM      2  N   UNL     1      34.558 -23.437 -15.637  0.00  0.00    -0.328 NA
ATOM      3  N   UNL     1      34.785 -25.013 -13.829  0.00  0.00    -0.343 NA
ATOM      4  N   UNL     1      34.791 -21.881 -19.683  0.00  0.00    -0.239 N 
ATOM      5  N   UNL     1      34.782 -22.524 -18.503  0.00  0.00    -0.166 NA
ATOM      6  C   UNL     1      36.742 -24.231 -14.974  0.00  0.00    +0.143 C 
ATOM      7  C   UNL     1      35.897 -23.462 -15.769  0.00  0.00    +0.185 C 
ATOM      8  C   UNL     1      36.120 -25.015 -13.988  0.00  0.00    +0.133 C 
ATOM      9  C   UNL     1      34.076 -24.225 -14.662  0.00  0.00    +0.138 C 
ATOM     10  C   UNL     1      35.961 -22.212 -18.027  0.00  0.00    +0.152 C 
ATOM     11  C   UNL     1      38.139 -24.240 -15.131  0.00  0.00    -0.011 C 
ATOM     12  C   UNL     1      36.934 -25.798 -13.173  0.00  0.00    +0.029 C 
ATOM     13  C   UNL     1      36.743 -21.400 -18.829  0.00  0.00    +0.048 C 
ATOM     14  C   UNL     1      35.943 -21.193 -19.927  0.00  0.00    +0.046 C 
ATOM     15  C   UNL     1      38.926 -25.033 -14.302  0.00  0.00    -0.004 C 
ATOM     16  C   UNL     1      38.324 -25.813 -13.323  0.00  0.00    +0.002 C 
ATOM     17  C   UNL     1      36.150 -20.424 -21.165  0.00  0.00    +0.049 C 
ATOM     18  H   UNL     1      37.358 -22.319 -16.581  0.00  0.00    +0.156 HD
ATOM     19  H   UNL     1      34.036 -21.905 -20.314  0.00  0.00    +0.174 HD
ENDROOT
BRANCH   9  20
ATOM     20  C   UNL     1      32.648 -24.230 -14.486  0.00  0.00    +0.086 C 
ATOM     21  C   UNL     1      32.048 -25.140 -13.611  0.00  0.00    +0.012 C 
ATOM     22  C   UNL     1      31.849 -23.321 -15.188  0.00  0.00    +0.012 C 
ATOM     23  C   UNL     1      30.664 -25.143 -13.439  0.00  0.00    +0.001 C 
ATOM     24  C   UNL     1      30.466 -23.323 -15.016  0.00  0.00    +0.001 C 
ATOM     25  C   UNL     1      29.872 -24.234 -14.141  0.00  0.00    +0.000 C 
ENDBRANCH   9  20
TORSDOF 1
ENDMDL
MODEL 6
REMARK VINA RESULT:      -9.9      1.634      6.483
REMARK  Name = 6419766
REMARK  1 active torsions:
REMARK  status: ('A' for Active; 'I' for Inactive)
REMARK    1  A    between atoms: C_9  and  C_20
REMARK                            x       y       z     vdW  Elec       q    Type
REMARK                         _______ _______ _______ _____ _____    ______ ____
ROOT
ATOM      1  N   UNL     1      32.741 -23.236 -16.245  0.00  0.00    -0.274 N 
ATOM      2  N   UNL     1      34.861 -23.491 -15.258  0.00  0.00    -0.328 NA
ATOM      3  N   UNL     1      36.858 -22.878 -16.459  0.00  0.00    -0.343 NA
ATOM      4  N   UNL     1      31.201 -25.643 -14.354  0.00  0.00    -0.239 N 
ATOM      5  N   UNL     1      32.352 -25.095 -14.779  0.00  0.00    -0.166 NA
ATOM      6  C   UNL     1      34.716 -22.602 -17.501  0.00  0.00    +0.143 C 
ATOM      7  C   UNL     1      34.149 -23.108 -16.334  0.00  0.00    +0.185 C 
ATOM      8  C   UNL     1      36.117 -22.504 -17.516  0.00  0.00    +0.133 C 
ATOM      9  C   UNL     1      36.191 -23.352 -15.387  0.00  0.00    +0.138 C 
ATOM     10  C   UNL     1      31.913 -24.130 -15.546  0.00  0.00    +0.152 C 
ATOM     11  C   UNL     1      33.950 -22.208 -18.612  0.00  0.00    -0.011 C 
ATOM     12  C   UNL     1      36.720 -22.003 -18.667  0.00  0.00    +0.029 C 
ATOM     13  C   UNL     1      30.537 -24.013 -15.648  0.00  0.00    +0.048 C 
ATOM     14  C   UNL     1      30.085 -25.033 -14.846  0.00  0.00    +0.046 C 
ATOM     15  C   UNL     1      34.580 -21.711 -19.749  0.00  0.00    -0.004 C 
ATOM     16  C   UNL     1      35.966 -21.608 -19.777  0.00  0.00    +0.002 C 
ATOM     17  C   UNL     1      28.727 -25.483 -14.500  0.00  0.00    +0.049 C 
ATOM     18  H   UNL     1      32.247 -22.571 -16.776  0.00  0.00    +0.156 HD
ATOM     19  H   UNL     1      31.167 -26.415 -13.744  0.00  0.00    +0.174 HD
ENDROOT
BRANCH   9  20
ATOM     20  C   UNL     1      36.991 -23.751 -14.260  0.00  0.00    +0.086 C 
ATOM     21  C   UNL     1      36.761 -23.192 -12.999  0.00  0.00    +0.012 C 
ATOM     22  C   UNL     1      38.005 -24.701 -14.417  0.00  0.00    +0.012 C 
ATOM     23  C   UNL     1      37.536 -23.580 -11.906  0.00  0.00    +0.001 C 
ATOM     24  C   UNL     1      38.780 -25.089 -13.325  0.00  0.00    +0.001 C 
ATOM     25  C   UNL     1      38.546 -24.528 -12.068  0.00  0.00    +0.000 C 
ENDBRANCH   9  20
TORSDOF 1
ENDMDL
