MODEL 1
REMARK VINA RESULT:     -11.2      0.000      0.000
REMARK  Name = 4565
REMARK  4 active torsions:
REMARK  status: ('A' for Active; 'I' for Inactive)
REMARK    1  A    between atoms: N_5  and  C_15
REMARK    2  A    between atoms: C_6  and  O_21
REMARK    3  A    between atoms: O_21  and  C_22
REMARK    4  A    between atoms: C_22  and  C_23
REMARK                            x       y       z     vdW  Elec       q    Type
REMARK                         _______ _______ _______ _____ _____    ______ ____
ROOT
ATOM      1  N   UNL     1      32.829 -23.636 -15.912  0.00  0.00    -0.293 NA
ATOM      2  N   UNL     1      29.454 -22.885 -17.164  0.00  0.00    -0.266 NA
ATOM      3  N   UNL     1      31.037 -24.213 -14.359  0.00  0.00    -0.316 NA
ATOM      4  N   UNL     1      28.811 -23.712 -15.196  0.00  0.00    -0.296 N 
ATOM      5  N   UNL     1      33.283 -24.584 -13.819  0.00  0.00    -0.238 N 
ATOM      6  C   UNL     1      31.946 -23.181 -16.827  0.00  0.00    +0.288 C 
ATOM      7  C   UNL     1      30.603 -23.238 -16.517  0.00  0.00    +0.215 C 
ATOM      8  C   UNL     1      30.178 -23.749 -15.298  0.00  0.00    +0.196 C 
ATOM      9  C   UNL     1      32.326 -24.118 -14.749  0.00  0.00    +0.207 C 
ATOM     10  C   UNL     1      28.407 -23.189 -16.334  0.00  0.00    +0.164 C 
ATOM     11  H   UNL     1      29.388 -22.486 -18.062  0.00  0.00    +0.126 HD
ATOM     12  H   UNL     1      28.255 -24.012 -14.441  0.00  0.00    +0.150 HD
ATOM     13  H   UNL     1      32.890 -24.928 -12.984  0.00  0.00    +0.166 HD
ENDROOT
BRANCH   5  15
ATOM     14 CL   UNL     1      37.767 -23.283 -11.690  0.00  0.00    -0.082 Cl
ATOM     15  C   UNL     1      34.688 -24.651 -13.852  0.00  0.00    +0.059 C 
ATOM     16  C   UNL     1      35.445 -24.008 -12.869  0.00  0.00    +0.027 C 
ATOM     17  C   UNL     1      35.332 -25.362 -14.868  0.00  0.00    +0.015 C 
ATOM     18  C   UNL     1      36.837 -24.076 -12.903  0.00  0.00    +0.059 C 
ATOM     19  C   UNL     1      36.725 -25.430 -14.901  0.00  0.00    +0.002 C 
ATOM     20  C   UNL     1      37.478 -24.786 -13.917  0.00  0.00    +0.011 C 
ENDBRANCH   5  15
BRANCH   6  21
ATOM     21  O   UNL     1      32.422 -22.685 -18.016  0.00  0.00    -0.453 OA
BRANCH  21  22
ATOM     22  C   UNL     1      33.753 -23.017 -18.366  0.00  0.00    +0.208 C 
BRANCH  22  23
ATOM     23  C   UNL     1      34.137 -22.229 -19.616  0.00  0.00    +0.044 C 
ATOM     24  C   UNL     1      33.104 -21.130 -19.902  0.00  0.00    +0.004 C 
ATOM     25  C   UNL     1      35.543 -21.632 -19.470  0.00  0.00    +0.004 C 
ATOM     26  C   UNL     1      33.494 -20.293 -21.119  0.00  0.00    +0.000 C 
ATOM     27  C   UNL     1      35.928 -20.794 -20.687  0.00  0.00    +0.000 C 
ATOM     28  C   UNL     1      34.895 -19.708 -20.973  0.00  0.00    +0.000 C 
ENDBRANCH  22  23
ENDBRANCH  21  22
ENDBRANCH   6  21
TORSDOF 4
ENDMDL
MODEL 2
REMARK VINA RESULT:     -11.0      1.425      1.829
REMARK  Name = 4565
REMARK  4 active torsions:
REMARK  status: ('A' for Active; 'I' for Inactive)
REMARK    1  A    between atoms: N_5  and  C_15
REMARK    2  A    between atoms: C_6  and  O_21
REMARK    3  A    between atoms: O_21  and  C_22
REMARK    4  A    between atoms: C_22  and  C_23
REMARK                            x       y       z     vdW  Elec       q    Type
REMARK                         _______ _______ _______ _____ _____    ______ ____
ROOT
ATOM      1  N   UNL     1      33.403 -24.000 -14.817  0.00  0.00    -0.293 NA
ATOM      2  N   UNL     1      29.981 -24.118 -16.161  0.00  0.00    -0.266 NA
ATOM      3  N   UNL     1      31.796 -25.120 -13.361  0.00  0.00    -0.316 NA
ATOM      4  N   UNL     1      29.538 -25.191 -14.258  0.00  0.00    -0.296 N 
ATOM      5  N   UNL     1      34.045 -24.901 -12.754  0.00  0.00    -0.238 N 
ATOM      6  C   UNL     1      32.452 -23.751 -15.744  0.00  0.00    +0.288 C 
ATOM      7  C   UNL     1      31.167 -24.183 -15.487  0.00  0.00    +0.215 C 
ATOM      8  C   UNL     1      30.867 -24.853 -14.310  0.00  0.00    +0.196 C 
ATOM      9  C   UNL     1      33.021 -24.661 -13.698  0.00  0.00    +0.207 C 
ATOM     10  C   UNL     1      29.035 -24.735 -15.386  0.00  0.00    +0.164 C 
ATOM     11  H   UNL     1      29.832 -23.704 -17.042  0.00  0.00    +0.126 HD
ATOM     12  H   UNL     1      29.066 -25.668 -13.538  0.00  0.00    +0.150 HD
ATOM     13  H   UNL     1      33.740 -25.383 -11.950  0.00  0.00    +0.166 HD
ENDROOT
BRANCH   5  15
ATOM     14 CL   UNL     1      38.716 -25.638 -14.745  0.00  0.00    -0.082 Cl
ATOM     15  C   UNL     1      35.416 -24.587 -12.737  0.00  0.00    +0.059 C 
ATOM     16  C   UNL     1      36.287 -25.197 -13.643  0.00  0.00    +0.027 C 
ATOM     17  C   UNL     1      35.913 -23.664 -11.814  0.00  0.00    +0.015 C 
ATOM     18  C   UNL     1      37.646 -24.885 -13.626  0.00  0.00    +0.059 C 
ATOM     19  C   UNL     1      37.272 -23.351 -11.798  0.00  0.00    +0.002 C 
ATOM     20  C   UNL     1      38.139 -23.962 -12.704  0.00  0.00    +0.011 C 
ENDBRANCH   5  15
BRANCH   6  21
ATOM     21  O   UNL     1      32.805 -23.083 -16.891  0.00  0.00    -0.453 OA
BRANCH  21  22
ATOM     22  C   UNL     1      34.054 -23.413 -17.470  0.00  0.00    +0.208 C 
BRANCH  22  23
ATOM     23  C   UNL     1      34.147 -22.742 -18.839  0.00  0.00    +0.044 C 
ATOM     24  C   UNL     1      32.969 -21.781 -19.052  0.00  0.00    +0.004 C 
ATOM     25  C   UNL     1      35.485 -22.008 -18.993  0.00  0.00    +0.004 C 
ATOM     26  C   UNL     1      33.068 -21.057 -20.393  0.00  0.00    +0.000 C 
ATOM     27  C   UNL     1      35.579 -21.284 -20.334  0.00  0.00    +0.000 C 
ATOM     28  C   UNL     1      34.403 -20.336 -20.546  0.00  0.00    +0.000 C 
ENDBRANCH  22  23
ENDBRANCH  21  22
ENDBRANCH   6  21
TORSDOF 4
ENDMDL
MODEL 3
REMARK VINA RESULT:     -10.8      2.821      6.420
REMARK  Name = 4565
REMARK  4 active torsions:
REMARK  status: ('A' for Active; 'I' for Inactive)
REMARK    1  A    between atoms: N_5  and  C_15
REMARK    2  A    between atoms: C_6  and  O_21
REMARK    3  A    between atoms: O_21  and  C_22
REMARK    4  A    between atoms: C_22  and  C_23
REMARK                            x       y       z     vdW  Elec       q    Type
REMARK                         _______ _______ _______ _____ _____    ______ ____
ROOT
ATOM      1  N   UNL     1      33.672 -23.204 -16.213  0.00  0.00    -0.293 NA
ATOM      2  N   UNL     1      32.038 -24.812 -13.337  0.00  0.00    -0.266 NA
ATOM      3  N   UNL     1      31.302 -23.677 -16.548  0.00  0.00    -0.316 NA
ATOM      4  N   UNL     1      30.232 -24.740 -14.642  0.00  0.00    -0.296 N 
ATOM      5  N   UNL     1      32.588 -22.657 -18.215  0.00  0.00    -0.238 N 
ATOM      6  C   UNL     1      33.643 -23.726 -14.967  0.00  0.00    +0.288 C 
ATOM      7  C   UNL     1      32.445 -24.227 -14.502  0.00  0.00    +0.215 C 
ATOM      8  C   UNL     1      31.306 -24.193 -15.296  0.00  0.00    +0.196 C 
ATOM      9  C   UNL     1      32.515 -23.212 -16.917  0.00  0.00    +0.207 C 
ATOM     10  C   UNL     1      30.705 -25.101 -13.468  0.00  0.00    +0.164 C 
ATOM     11  H   UNL     1      32.598 -24.994 -12.548  0.00  0.00    +0.126 HD
ATOM     12  H   UNL     1      29.311 -24.839 -14.976  0.00  0.00    +0.150 HD
ATOM     13  H   UNL     1      31.733 -22.675 -18.704  0.00  0.00    +0.166 HD
ENDROOT
BRANCH   5  15
ATOM     14 CL   UNL     1      34.085 -19.571 -22.031  0.00  0.00    -0.082 Cl
ATOM     15  C   UNL     1      33.644 -22.084 -18.946  0.00  0.00    +0.059 C 
ATOM     16  C   UNL     1      33.374 -21.213 -20.004  0.00  0.00    +0.027 C 
ATOM     17  C   UNL     1      34.969 -22.384 -18.618  0.00  0.00    +0.015 C 
ATOM     18  C   UNL     1      34.422 -20.645 -20.728  0.00  0.00    +0.059 C 
ATOM     19  C   UNL     1      36.016 -21.815 -19.341  0.00  0.00    +0.002 C 
ATOM     20  C   UNL     1      35.743 -20.945 -20.398  0.00  0.00    +0.011 C 
ENDBRANCH   5  15
BRANCH   6  21
ATOM     21  O   UNL     1      34.799 -23.734 -14.226  0.00  0.00    -0.453 OA
BRANCH  21  22
ATOM     22  C   UNL     1      35.932 -23.104 -14.793  0.00  0.00    +0.208 C 
BRANCH  22  23
ATOM     23  C   UNL     1      37.188 -23.792 -14.261  0.00  0.00    +0.044 C 
ATOM     24  C   UNL     1      37.156 -23.866 -12.728  0.00  0.00    +0.004 C 
ATOM     25  C   UNL     1      37.339 -25.191 -14.872  0.00  0.00    +0.004 C 
ATOM     26  C   UNL     1      38.376 -24.598 -12.174  0.00  0.00    +0.000 C 
ATOM     27  C   UNL     1      38.559 -25.921 -14.314  0.00  0.00    +0.000 C 
ATOM     28  C   UNL     1      38.529 -25.985 -12.790  0.00  0.00    +0.000 C 
ENDBRANCH  22  23
ENDBRANCH  21  22
ENDBRANCH   6  21
TORSDOF 4
ENDMDL
MODEL 4
REMARK VINA RESULT:     -10.6      2.420      5.252
REMARK  Name = 4565
REMARK  4 active torsions:
REMARK  status: ('A' for Active; 'I' for Inactive)
REMARK    1  A    between atoms: N_5  and  C_15
REMARK    2  A    between atoms: C_6  and  O_21
REMARK    3  A    between atoms: O_21  and  C_22
REMARK    4  A    between atoms: C_22  and  C_23
REMARK                            x       y       z     vdW  Elec       q    Type
REMARK                         _______ _______ _______ _____ _____    ______ ____
ROOT
ATOM      1  N   UNL     1      35.227 -23.509 -16.358  0.00  0.00    -0.293 NA
ATOM      2  N   UNL     1      33.206 -22.188 -19.132  0.00  0.00    -0.266 NA
ATOM      3  N   UNL     1      36.486 -22.164 -17.957  0.00  0.00    -0.316 NA
ATOM      4  N   UNL     1      35.142 -21.297 -19.787  0.00  0.00    -0.296 N 
ATOM      5  N   UNL     1      37.522 -23.128 -16.094  0.00  0.00    -0.238 N 
ATOM      6  C   UNL     1      34.080 -23.335 -17.050  0.00  0.00    +0.288 C 
ATOM      7  C   UNL     1      34.127 -22.574 -18.200  0.00  0.00    +0.215 C 
ATOM      8  C   UNL     1      35.320 -22.008 -18.628  0.00  0.00    +0.196 C 
ATOM      9  C   UNL     1      36.345 -22.920 -16.848  0.00  0.00    +0.207 C 
ATOM     10  C   UNL     1      33.861 -21.425 -20.063  0.00  0.00    +0.164 C 
ATOM     11  H   UNL     1      32.249 -22.417 -19.137  0.00  0.00    +0.126 HD
ATOM     12  H   UNL     1      35.821 -20.800 -20.299  0.00  0.00    +0.150 HD
ATOM     13  H   UNL     1      38.319 -22.689 -16.473  0.00  0.00    +0.166 HD
ENDROOT
BRANCH   5  15
ATOM     14 CL   UNL     1      36.775 -23.604 -11.040  0.00  0.00    -0.082 Cl
ATOM     15  C   UNL     1      37.780 -23.839 -14.909  0.00  0.00    +0.059 C 
ATOM     16  C   UNL     1      37.216 -23.419 -13.701  0.00  0.00    +0.027 C 
ATOM     17  C   UNL     1      38.600 -24.970 -14.933  0.00  0.00    +0.015 C 
ATOM     18  C   UNL     1      37.472 -24.125 -12.526  0.00  0.00    +0.059 C 
ATOM     19  C   UNL     1      38.855 -25.676 -13.758  0.00  0.00    +0.002 C 
ATOM     20  C   UNL     1      38.290 -25.254 -12.554  0.00  0.00    +0.011 C 
ENDBRANCH   5  15
BRANCH   6  21
ATOM     21  O   UNL     1      32.928 -23.918 -16.581  0.00  0.00    -0.453 OA
BRANCH  21  22
ATOM     22  C   UNL     1      32.505 -23.551 -15.282  0.00  0.00    +0.208 C 
BRANCH  22  23
ATOM     23  C   UNL     1      30.978 -23.568 -15.247  0.00  0.00    +0.044 C 
ATOM     24  C   UNL     1      30.400 -22.944 -16.525  0.00  0.00    +0.004 C 
ATOM     25  C   UNL     1      30.456 -24.998 -15.054  0.00  0.00    +0.004 C 
ATOM     26  C   UNL     1      28.874 -22.998 -16.538  0.00  0.00    +0.000 C 
ATOM     27  C   UNL     1      28.930 -25.048 -15.070  0.00  0.00    +0.000 C 
ATOM     28  C   UNL     1      28.359 -24.419 -16.337  0.00  0.00    +0.000 C 
ENDBRANCH  22  23
ENDBRANCH  21  22
ENDBRANCH   6  21
TORSDOF 4
ENDMDL
MODEL 5
REMARK VINA RESULT:     -10.6      2.341      6.420
REMARK  Name = 4565
REMARK  4 active torsions:
REMARK  status: ('A' for Active; 'I' for Inactive)
REMARK    1  A    between atoms: N_5  and  C_15
REMARK    2  A    between atoms: C_6  and  O_21
REMARK    3  A    between atoms: O_21  and  C_22
REMARK    4  A    between atoms: C_22  and  C_23
REMARK                            x       y       z     vdW  Elec       q    Type
REMARK                         _______ _______ _______ _____ _____    ______ ____
ROOT
ATOM      1  N   UNL     1      33.712 -23.018 -16.479  0.00  0.00    -0.293 NA
ATOM      2  N   UNL     1      32.642 -24.831 -13.464  0.00  0.00    -0.266 NA
ATOM      3  N   UNL     1      31.390 -23.764 -16.535  0.00  0.00    -0.316 NA
ATOM      4  N   UNL     1      30.693 -24.962 -14.539  0.00  0.00    -0.296 N 
ATOM      5  N   UNL     1      32.334 -22.586 -18.323  0.00  0.00    -0.238 N 
ATOM      6  C   UNL     1      33.897 -23.549 -15.251  0.00  0.00    +0.288 C 
ATOM      7  C   UNL     1      32.832 -24.192 -14.656  0.00  0.00    +0.215 C 
ATOM      8  C   UNL     1      31.608 -24.287 -15.305  0.00  0.00    +0.196 C 
ATOM      9  C   UNL     1      32.486 -23.156 -17.038  0.00  0.00    +0.207 C 
ATOM     10  C   UNL     1      31.346 -25.275 -13.439  0.00  0.00    +0.164 C 
ATOM     11  H   UNL     1      33.312 -24.951 -12.753  0.00  0.00    +0.126 HD
ATOM     12  H   UNL     1      29.756 -25.167 -14.761  0.00  0.00    +0.150 HD
ATOM     13  H   UNL     1      31.433 -22.701 -18.704  0.00  0.00    +0.166 HD
ENDROOT
BRANCH   5  15
ATOM     14 CL   UNL     1      37.168 -21.674 -19.781  0.00  0.00    -0.082 Cl
ATOM     15  C   UNL     1      33.218 -21.886 -19.163  0.00  0.00    +0.059 C 
ATOM     16  C   UNL     1      34.596 -22.101 -19.067  0.00  0.00    +0.027 C 
ATOM     17  C   UNL     1      32.724 -20.973 -20.098  0.00  0.00    +0.015 C 
ATOM     18  C   UNL     1      35.472 -21.407 -19.901  0.00  0.00    +0.059 C 
ATOM     19  C   UNL     1      33.600 -20.280 -20.933  0.00  0.00    +0.002 C 
ATOM     20  C   UNL     1      34.975 -20.497 -20.834  0.00  0.00    +0.011 C 
ENDBRANCH   5  15
BRANCH   6  21
ATOM     21  O   UNL     1      35.129 -23.427 -14.656  0.00  0.00    -0.453 OA
BRANCH  21  22
ATOM     22  C   UNL     1      36.264 -23.598 -15.484  0.00  0.00    +0.208 C 
BRANCH  22  23
ATOM     23  C   UNL     1      37.273 -24.476 -14.748  0.00  0.00    +0.044 C 
ATOM     24  C   UNL     1      37.479 -23.976 -13.310  0.00  0.00    +0.004 C 
ATOM     25  C   UNL     1      36.824 -25.943 -14.756  0.00  0.00    +0.004 C 
ATOM     26  C   UNL     1      38.445 -24.870 -12.536  0.00  0.00    +0.000 C 
ATOM     27  C   UNL     1      37.791 -26.833 -13.979  0.00  0.00    +0.000 C 
ATOM     28  C   UNL     1      38.000 -26.329 -12.554  0.00  0.00    +0.000 C 
ENDBRANCH  22  23
ENDBRANCH  21  22
ENDBRANCH   6  21
TORSDOF 4
ENDMDL
MODEL 6
REMARK VINA RESULT:     -10.5      3.314      7.107
REMARK  Name = 4565
REMARK  4 active torsions:
REMARK  status: ('A' for Active; 'I' for Inactive)
REMARK    1  A    between atoms: N_5  and  C_15
REMARK    2  A    between atoms: C_6  and  O_21
REMARK    3  A    between atoms: O_21  and  C_22
REMARK    4  A    between atoms: C_22  and  C_23
REMARK                            x       y       z     vdW  Elec       q    Type
REMARK                         _______ _______ _______ _____ _____    ______ ____
ROOT
ATOM      1  N   UNL     1      35.442 -23.730 -15.846  0.00  0.00    -0.293 NA
ATOM      2  N   UNL     1      36.404 -25.498 -12.768  0.00  0.00    -0.266 NA
ATOM      3  N   UNL     1      37.821 -23.595 -15.320  0.00  0.00    -0.316 NA
ATOM      4  N   UNL     1      38.446 -24.766 -13.284  0.00  0.00    -0.296 N 
ATOM      5  N   UNL     1      36.933 -22.561 -17.222  0.00  0.00    -0.238 N 
ATOM      6  C   UNL     1      35.198 -24.477 -14.747  0.00  0.00    +0.288 C 
ATOM      7  C   UNL     1      36.262 -24.788 -13.926  0.00  0.00    +0.215 C 
ATOM      8  C   UNL     1      37.543 -24.345 -14.227  0.00  0.00    +0.196 C 
ATOM      9  C   UNL     1      36.721 -23.340 -16.062  0.00  0.00    +0.207 C 
ATOM     10  C   UNL     1      37.729 -25.456 -12.422  0.00  0.00    +0.164 C 
ATOM     11  H   UNL     1      35.687 -25.955 -12.272  0.00  0.00    +0.126 HD
ATOM     12  H   UNL     1      39.414 -24.591 -13.258  0.00  0.00    +0.150 HD
ATOM     13  H   UNL     1      37.872 -22.292 -17.354  0.00  0.00    +0.166 HD
ENDROOT
BRANCH   5  15
ATOM     14 CL   UNL     1      36.250 -19.656 -21.396  0.00  0.00    -0.082 Cl
ATOM     15  C   UNL     1      36.065 -22.093 -18.225  0.00  0.00    +0.059 C 
ATOM     16  C   UNL     1      36.532 -21.208 -19.200  0.00  0.00    +0.027 C 
ATOM     17  C   UNL     1      34.732 -22.510 -18.250  0.00  0.00    +0.015 C 
ATOM     18  C   UNL     1      35.671 -20.746 -20.195  0.00  0.00    +0.059 C 
ATOM     19  C   UNL     1      33.872 -22.048 -19.245  0.00  0.00    +0.002 C 
ATOM     20  C   UNL     1      34.341 -21.165 -20.218  0.00  0.00    +0.011 C 
ENDBRANCH   5  15
BRANCH   6  21
ATOM     21  O   UNL     1      33.912 -24.889 -14.498  0.00  0.00    -0.453 OA
BRANCH  21  22
ATOM     22  C   UNL     1      33.161 -24.128 -13.571  0.00  0.00    +0.208 C 
BRANCH  22  23
ATOM     23  C   UNL     1      31.737 -23.981 -14.104  0.00  0.00    +0.044 C 
ATOM     24  C   UNL     1      31.750 -23.459 -15.548  0.00  0.00    +0.004 C 
ATOM     25  C   UNL     1      30.984 -25.315 -14.013  0.00  0.00    +0.004 C 
ATOM     26  C   UNL     1      30.339 -23.354 -16.122  0.00  0.00    +0.000 C 
ATOM     27  C   UNL     1      29.575 -25.207 -14.591  0.00  0.00    +0.000 C 
ATOM     28  C   UNL     1      29.591 -24.679 -16.022  0.00  0.00    +0.000 C 
ENDBRANCH  22  23
ENDBRANCH  21  22
ENDBRANCH   6  21
TORSDOF 4
ENDMDL
MODEL 7
REMARK VINA RESULT:     -10.4      2.580      5.641
REMARK  Name = 4565
REMARK  4 active torsions:
REMARK  status: ('A' for Active; 'I' for Inactive)
REMARK    1  A    between atoms: N_5  and  C_15
REMARK    2  A    between atoms: C_6  and  O_21
REMARK    3  A    between atoms: O_21  and  C_22
REMARK    4  A    between atoms: C_22  and  C_23
REMARK                            x       y       z     vdW  Elec       q    Type
REMARK                         _______ _______ _______ _____ _____    ______ ____
ROOT
ATOM      1  N   UNL     1      35.246 -23.098 -17.185  0.00  0.00    -0.293 NA
ATOM      2  N   UNL     1      33.893 -21.462 -20.188  0.00  0.00    -0.266 NA
ATOM      3  N   UNL     1      36.814 -21.591 -18.292  0.00  0.00    -0.316 NA
ATOM      4  N   UNL     1      35.910 -20.516 -20.276  0.00  0.00    -0.296 N 
ATOM      5  N   UNL     1      37.412 -22.764 -16.358  0.00  0.00    -0.238 N 
ATOM      6  C   UNL     1      34.286 -22.839 -18.099  0.00  0.00    +0.288 C 
ATOM      7  C   UNL     1      34.581 -21.956 -19.117  0.00  0.00    +0.215 C 
ATOM      8  C   UNL     1      35.830 -21.354 -19.193  0.00  0.00    +0.196 C 
ATOM      9  C   UNL     1      36.435 -22.466 -17.336  0.00  0.00    +0.207 C 
ATOM     10  C   UNL     1      34.730 -20.604 -20.852  0.00  0.00    +0.164 C 
ATOM     11  H   UNL     1      32.966 -21.682 -20.438  0.00  0.00    +0.126 HD
ATOM     12  H   UNL     1      36.678 -19.970 -20.559  0.00  0.00    +0.150 HD
ATOM     13  H   UNL     1      38.265 -22.291 -16.492  0.00  0.00    +0.166 HD
ENDROOT
BRANCH   5  15
ATOM     14 CL   UNL     1      35.325 -23.970 -11.828  0.00  0.00    -0.082 Cl
ATOM     15  C   UNL     1      37.403 -23.605 -15.231  0.00  0.00    +0.059 C 
ATOM     16  C   UNL     1      36.476 -23.395 -14.206  0.00  0.00    +0.027 C 
ATOM     17  C   UNL     1      38.321 -24.654 -15.130  0.00  0.00    +0.015 C 
ATOM     18  C   UNL     1      36.468 -24.230 -13.089  0.00  0.00    +0.059 C 
ATOM     19  C   UNL     1      38.312 -25.488 -14.013  0.00  0.00    +0.002 C 
ATOM     20  C   UNL     1      37.385 -25.276 -12.992  0.00  0.00    +0.011 C 
ENDBRANCH   5  15
BRANCH   6  21
ATOM     21  O   UNL     1      33.069 -23.463 -17.976  0.00  0.00    -0.453 OA
BRANCH  21  22
ATOM     22  C   UNL     1      32.153 -22.909 -17.049  0.00  0.00    +0.208 C 
BRANCH  22  23
ATOM     23  C   UNL     1      31.800 -23.980 -16.018  0.00  0.00    +0.044 C 
ATOM     24  C   UNL     1      32.649 -23.811 -14.750  0.00  0.00    +0.004 C 
ATOM     25  C   UNL     1      30.304 -23.937 -15.683  0.00  0.00    +0.004 C 
ATOM     26  C   UNL     1      32.278 -24.838 -13.682  0.00  0.00    +0.000 C 
ATOM     27  C   UNL     1      29.937 -24.963 -14.613  0.00  0.00    +0.000 C 
ATOM     28  C   UNL     1      30.788 -24.798 -13.358  0.00  0.00    +0.000 C 
ENDBRANCH  22  23
ENDBRANCH  21  22
ENDBRANCH   6  21
TORSDOF 4
ENDMDL
MODEL 8
REMARK VINA RESULT:     -10.2      2.749      5.373
REMARK  Name = 4565
REMARK  4 active torsions:
REMARK  status: ('A' for Active; 'I' for Inactive)
REMARK    1  A    between atoms: N_5  and  C_15
REMARK    2  A    between atoms: C_6  and  O_21
REMARK    3  A    between atoms: O_21  and  C_22
REMARK    4  A    between atoms: C_22  and  C_23
REMARK                            x       y       z     vdW  Elec       q    Type
REMARK                         _______ _______ _______ _____ _____    ______ ____
ROOT
ATOM      1  N   UNL     1      33.562 -23.880 -15.215  0.00  0.00    -0.293 NA
ATOM      2  N   UNL     1      37.137 -23.244 -14.634  0.00  0.00    -0.266 NA
ATOM      3  N   UNL     1      34.255 -24.132 -12.889  0.00  0.00    -0.316 NA
ATOM      4  N   UNL     1      36.620 -23.710 -12.516  0.00  0.00    -0.296 N 
ATOM      5  N   UNL     1      32.035 -24.477 -13.543  0.00  0.00    -0.238 N 
ATOM      6  C   UNL     1      34.817 -23.558 -15.598  0.00  0.00    +0.288 C 
ATOM      7  C   UNL     1      35.800 -23.520 -14.631  0.00  0.00    +0.215 C 
ATOM      8  C   UNL     1      35.502 -23.806 -13.305  0.00  0.00    +0.196 C 
ATOM      9  C   UNL     1      33.361 -24.144 -13.901  0.00  0.00    +0.207 C 
ATOM     10  C   UNL     1      37.584 -23.371 -13.345  0.00  0.00    +0.164 C 
ATOM     11  H   UNL     1      37.682 -23.000 -15.417  0.00  0.00    +0.126 HD
ATOM     12  H   UNL     1      36.686 -23.861 -11.545  0.00  0.00    +0.150 HD
ATOM     13  H   UNL     1      31.918 -24.663 -12.582  0.00  0.00    +0.166 HD
ENDROOT
BRANCH   5  15
ATOM     14 CL   UNL     1      28.139 -22.155 -15.942  0.00  0.00    -0.082 Cl
ATOM     15  C   UNL     1      30.849 -24.595 -14.290  0.00  0.00    +0.059 C 
ATOM     16  C   UNL     1      30.161 -23.450 -14.698  0.00  0.00    +0.027 C 
ATOM     17  C   UNL     1      30.354 -25.857 -14.626  0.00  0.00    +0.015 C 
ATOM     18  C   UNL     1      28.985 -23.568 -15.439  0.00  0.00    +0.059 C 
ATOM     19  C   UNL     1      29.179 -25.974 -15.367  0.00  0.00    +0.002 C 
ATOM     20  C   UNL     1      28.494 -24.829 -15.774  0.00  0.00    +0.011 C 
ENDBRANCH   5  15
BRANCH   6  21
ATOM     21  O   UNL     1      35.055 -23.285 -16.923  0.00  0.00    -0.453 OA
BRANCH  21  22
ATOM     22  C   UNL     1      33.932 -23.241 -17.783  0.00  0.00    +0.208 C 
BRANCH  22  23
ATOM     23  C   UNL     1      34.347 -22.563 -19.087  0.00  0.00    +0.044 C 
ATOM     24  C   UNL     1      33.324 -21.491 -19.489  0.00  0.00    +0.004 C 
ATOM     25  C   UNL     1      35.751 -21.958 -18.961  0.00  0.00    +0.004 C 
ATOM     26  C   UNL     1      33.744 -20.762 -20.764  0.00  0.00    +0.000 C 
ATOM     27  C   UNL     1      36.166 -21.227 -20.236  0.00  0.00    +0.000 C 
ATOM     28  C   UNL     1      35.143 -20.169 -20.637  0.00  0.00    +0.000 C 
ENDBRANCH  22  23
ENDBRANCH  21  22
ENDBRANCH   6  21
TORSDOF 4
ENDMDL
MODEL 9
REMARK VINA RESULT:     -10.1      2.913      5.549
REMARK  Name = 4565
REMARK  4 active torsions:
REMARK  status: ('A' for Active; 'I' for Inactive)
REMARK    1  A    between atoms: N_5  and  C_15
REMARK    2  A    between atoms: C_6  and  O_21
REMARK    3  A    between atoms: O_21  and  C_22
REMARK    4  A    between atoms: C_22  and  C_23
REMARK                            x       y       z     vdW  Elec       q    Type
REMARK                         _______ _______ _______ _____ _____    ______ ____
ROOT
ATOM      1  N   UNL     1      34.844 -23.874 -15.332  0.00  0.00    -0.293 NA
ATOM      2  N   UNL     1      38.509 -24.064 -15.571  0.00  0.00    -0.266 NA
ATOM      3  N   UNL     1      35.908 -25.022 -13.459  0.00  0.00    -0.316 NA
ATOM      4  N   UNL     1      38.330 -25.143 -13.628  0.00  0.00    -0.296 N 
ATOM      5  N   UNL     1      33.586 -24.757 -13.565  0.00  0.00    -0.238 N 
ATOM      6  C   UNL     1      36.036 -23.647 -15.924  0.00  0.00    +0.288 C 
ATOM      7  C   UNL     1      37.173 -24.104 -15.290  0.00  0.00    +0.215 C 
ATOM      8  C   UNL     1      37.087 -24.778 -14.080  0.00  0.00    +0.196 C 
ATOM      9  C   UNL     1      34.854 -24.539 -14.151  0.00  0.00    +0.207 C 
ATOM     10  C   UNL     1      39.161 -24.699 -14.546  0.00  0.00    +0.164 C 
ATOM     11  H   UNL     1      38.927 -23.656 -16.363  0.00  0.00    +0.126 HD
ATOM     12  H   UNL     1      38.551 -25.628 -12.801  0.00  0.00    +0.150 HD
ATOM     13  H   UNL     1      33.623 -25.242 -12.708  0.00  0.00    +0.166 HD
ENDROOT
BRANCH   5  15
ATOM     14 CL   UNL     1      28.780 -26.275 -14.528  0.00  0.00    -0.082 Cl
ATOM     15  C   UNL     1      32.281 -24.417 -13.966  0.00  0.00    +0.059 C 
ATOM     16  C   UNL     1      31.291 -25.400 -14.040  0.00  0.00    +0.027 C 
ATOM     17  C   UNL     1      31.970 -23.094 -14.291  0.00  0.00    +0.015 C 
ATOM     18  C   UNL     1      29.998 -25.062 -14.437  0.00  0.00    +0.059 C 
ATOM     19  C   UNL     1      30.676 -22.757 -14.687  0.00  0.00    +0.002 C 
ATOM     20  C   UNL     1      29.690 -23.741 -14.761  0.00  0.00    +0.011 C 
ENDBRANCH   5  15
BRANCH   6  21
ATOM     21  O   UNL     1      36.063 -22.975 -17.122  0.00  0.00    -0.453 OA
BRANCH  21  22
ATOM     22  C   UNL     1      34.838 -22.861 -17.823  0.00  0.00    +0.208 C 
BRANCH  22  23
ATOM     23  C   UNL     1      35.115 -22.217 -19.180  0.00  0.00    +0.044 C 
ATOM     24  C   UNL     1      33.935 -21.335 -19.612  0.00  0.00    +0.004 C 
ATOM     25  C   UNL     1      36.416 -21.405 -19.139  0.00  0.00    +0.004 C 
ATOM     26  C   UNL     1      34.210 -20.638 -20.942  0.00  0.00    +0.000 C 
ATOM     27  C   UNL     1      36.687 -20.707 -20.470  0.00  0.00    +0.000 C 
ATOM     28  C   UNL     1      35.508 -19.839 -20.901  0.00  0.00    +0.000 C 
ENDBRANCH  22  23
ENDBRANCH  21  22
ENDBRANCH   6  21
TORSDOF 4
ENDMDL
