MODEL 1
REMARK VINA RESULT:     -12.1      0.000      0.000
REMARK  Name = 51039095
REMARK  7 active torsions:
REMARK  status: ('A' for Active; 'I' for Inactive)
REMARK    1  A    between atoms: C_5  and  C_16
REMARK    2  A    between atoms: C_6  and  C_27
REMARK    3  A    between atoms: C_11  and  N_17
REMARK    4  A    between atoms: C_27  and  C_28
REMARK    5  A    between atoms: C_28  and  C_29
REMARK    6  A    between atoms: C_32  and  O_35
REMARK    7  A    between atoms: C_33  and  O_37
REMARK                            x       y       z     vdW  Elec       q    Type
REMARK                         _______ _______ _______ _____ _____    ______ ____
ROOT
ATOM      1  O   UNL     1      34.112 -14.047 -24.367  0.00  0.00    -0.270 OA
ATOM      2  N   UNL     1      34.322 -13.938 -22.033  0.00  0.00    -0.265 N 
ATOM      3  N   UNL     1      35.250 -16.945 -20.564  0.00  0.00    -0.239 N 
ATOM      4  N   UNL     1      34.927 -15.647 -20.431  0.00  0.00    -0.166 NA
ATOM      5  C   UNL     1      34.055 -13.410 -23.303  0.00  0.00    +0.251 C 
ATOM      6  C   UNL     1      35.233 -17.387 -21.856  0.00  0.00    +0.046 C 
ATOM      7  C   UNL     1      34.699 -15.260 -21.688  0.00  0.00    +0.153 C 
ATOM      8  C   UNL     1      34.874 -16.302 -22.618  0.00  0.00    +0.048 C 
ATOM      9  H   UNL     1      34.235 -13.309 -21.280  0.00  0.00    +0.157 HD
ATOM     10  H   UNL     1      35.478 -17.523 -19.801  0.00  0.00    +0.174 HD
ENDROOT
BRANCH   5  16
ATOM     11  C   UNL     1      32.897  -9.328 -23.406  0.00  0.00    +0.048 C 
ATOM     12  C   UNL     1      32.208 -10.228 -22.593  0.00  0.00    +0.015 C 
ATOM     13  C   UNL     1      33.967  -9.768 -24.185  0.00  0.00    +0.015 C 
ATOM     14  C   UNL     1      32.589 -11.569 -22.559  0.00  0.00    +0.006 C 
ATOM     15  C   UNL     1      34.348 -11.110 -24.150  0.00  0.00    +0.006 C 
ATOM     16  C   UNL     1      33.660 -12.010 -23.338  0.00  0.00    +0.054 C 
BRANCH  11  17
ATOM     17  N   UNL     1      32.516  -7.982 -23.440  0.00  0.00    -0.312 N 
ATOM     18  N   UNL     1      31.942  -5.190 -23.405  0.00  0.00    +0.389 N 
ATOM     19  C   UNL     1      31.057  -6.132 -22.712  0.00  0.00    -0.042 C 
ATOM     20  C   UNL     1      32.514  -5.808 -24.606  0.00  0.00    -0.042 C 
ATOM     21  C   UNL     1      31.827  -7.391 -22.287  0.00  0.00    +0.069 C 
ATOM     22  C   UNL     1      33.330  -7.055 -24.239  0.00  0.00    +0.069 C 
ATOM     23  C   UNL     1      33.391  -4.784 -25.325  0.00  0.00    -0.022 C 
ATOM     24  C   UNL     1      30.448  -5.440 -21.493  0.00  0.00    -0.022 C 
ATOM     25  H   UNL     1      32.698  -4.916 -22.777  0.00  0.00    -0.084 HD
ATOM     26  H   UNL     1      31.400  -4.373 -23.682  0.00  0.00    -0.084 HD
ENDBRANCH  11  17
ENDBRANCH   5  16
BRANCH   6  27
ATOM     27  C   UNL     1      35.557 -18.777 -22.213  0.00  0.00    +0.047 C 
BRANCH  27  28
ATOM     28  C   UNL     1      34.377 -19.772 -22.082  0.00  0.00    +0.033 C 
BRANCH  28  29
ATOM     29  C   UNL     1      34.460 -20.624 -20.838  0.00  0.00    -0.016 C 
ATOM     30  C   UNL     1      35.703 -20.937 -20.288  0.00  0.00    +0.033 C 
ATOM     31  C   UNL     1      33.293 -21.096 -20.238  0.00  0.00    +0.033 C 
ATOM     32  C   UNL     1      33.368 -21.882 -19.089  0.00  0.00    +0.141 C 
ATOM     33  C   UNL     1      35.779 -21.723 -19.139  0.00  0.00    +0.141 C 
ATOM     34  C   UNL     1      34.612 -22.196 -18.539  0.00  0.00    +0.074 C 
BRANCH  32  35
ATOM     35  O   UNL     1      32.229 -22.343 -18.502  0.00  0.00    -0.471 OA
ATOM     36  C   UNL     1      32.379 -23.085 -17.293  0.00  0.00    +0.252 C 
ENDBRANCH  32  35
BRANCH  33  37
ATOM     37  O   UNL     1      36.991 -22.028 -18.601  0.00  0.00    -0.471 OA
ATOM     38  C   UNL     1      37.071 -22.098 -17.178  0.00  0.00    +0.252 C 
ENDBRANCH  33  37
ENDBRANCH  28  29
ENDBRANCH  27  28
ENDBRANCH   6  27
TORSDOF 7
ENDMDL
MODEL 2
REMARK VINA RESULT:     -12.0      0.041      2.017
REMARK  Name = 51039095
REMARK  7 active torsions:
REMARK  status: ('A' for Active; 'I' for Inactive)
REMARK    1  A    between atoms: C_5  and  C_16
REMARK    2  A    between atoms: C_6  and  C_27
REMARK    3  A    between atoms: C_11  and  N_17
REMARK    4  A    between atoms: C_27  and  C_28
REMARK    5  A    between atoms: C_28  and  C_29
REMARK    6  A    between atoms: C_32  and  O_35
REMARK    7  A    between atoms: C_33  and  O_37
REMARK                            x       y       z     vdW  Elec       q    Type
REMARK                         _______ _______ _______ _____ _____    ______ ____
ROOT
ATOM      1  O   UNL     1      34.142 -14.044 -24.347  0.00  0.00    -0.270 OA
ATOM      2  N   UNL     1      34.330 -13.948 -22.010  0.00  0.00    -0.265 N 
ATOM      3  N   UNL     1      35.244 -16.962 -20.549  0.00  0.00    -0.239 N 
ATOM      4  N   UNL     1      34.920 -15.665 -20.412  0.00  0.00    -0.166 NA
ATOM      5  C   UNL     1      34.076 -13.412 -23.280  0.00  0.00    +0.251 C 
ATOM      6  C   UNL     1      35.240 -17.397 -21.843  0.00  0.00    +0.046 C 
ATOM      7  C   UNL     1      34.704 -15.271 -21.669  0.00  0.00    +0.153 C 
ATOM      8  C   UNL     1      34.888 -16.308 -22.603  0.00  0.00    +0.048 C 
ATOM      9  H   UNL     1      34.236 -13.323 -21.255  0.00  0.00    +0.157 HD
ATOM     10  H   UNL     1      35.465 -17.544 -19.787  0.00  0.00    +0.174 HD
ENDROOT
BRANCH   5  16
ATOM     11  C   UNL     1      32.926  -9.328 -23.368  0.00  0.00    +0.048 C 
ATOM     12  C   UNL     1      34.014  -9.762 -24.125  0.00  0.00    +0.015 C 
ATOM     13  C   UNL     1      32.214 -10.235 -22.584  0.00  0.00    +0.015 C 
ATOM     14  C   UNL     1      34.392 -11.105 -24.096  0.00  0.00    +0.006 C 
ATOM     15  C   UNL     1      32.592 -11.578 -22.555  0.00  0.00    +0.006 C 
ATOM     16  C   UNL     1      33.680 -12.013 -23.311  0.00  0.00    +0.054 C 
BRANCH  11  17
ATOM     17  N   UNL     1      32.545  -7.981 -23.397  0.00  0.00    -0.312 N 
ATOM     18  N   UNL     1      31.974  -5.189 -23.352  0.00  0.00    +0.389 N 
ATOM     19  C   UNL     1      31.097  -6.131 -22.648  0.00  0.00    -0.042 C 
ATOM     20  C   UNL     1      32.531  -5.806 -24.560  0.00  0.00    -0.042 C 
ATOM     21  C   UNL     1      31.870  -7.392 -22.235  0.00  0.00    +0.069 C 
ATOM     22  C   UNL     1      33.351  -7.055 -24.204  0.00  0.00    +0.069 C 
ATOM     23  C   UNL     1      33.400  -4.782 -25.288  0.00  0.00    -0.022 C 
ATOM     24  C   UNL     1      30.503  -5.441 -21.422  0.00  0.00    -0.022 C 
ATOM     25  H   UNL     1      32.738  -4.917 -22.732  0.00  0.00    -0.084 HD
ATOM     26  H   UNL     1      31.429  -4.371 -23.621  0.00  0.00    -0.084 HD
ENDBRANCH  11  17
ENDBRANCH   5  16
BRANCH   6  27
ATOM     27  C   UNL     1      35.567 -18.785 -22.204  0.00  0.00    +0.047 C 
BRANCH  27  28
ATOM     28  C   UNL     1      34.388 -19.783 -22.081  0.00  0.00    +0.033 C 
BRANCH  28  29
ATOM     29  C   UNL     1      34.466 -20.635 -20.837  0.00  0.00    -0.016 C 
ATOM     30  C   UNL     1      33.298 -21.119 -20.247  0.00  0.00    +0.033 C 
ATOM     31  C   UNL     1      35.707 -20.941 -20.279  0.00  0.00    +0.033 C 
ATOM     32  C   UNL     1      35.781 -21.729 -19.130  0.00  0.00    +0.141 C 
ATOM     33  C   UNL     1      33.371 -21.908 -19.100  0.00  0.00    +0.141 C 
ATOM     34  C   UNL     1      34.612 -22.213 -18.541  0.00  0.00    +0.074 C 
BRANCH  32  35
ATOM     35  O   UNL     1      36.992 -22.028 -18.585  0.00  0.00    -0.471 OA
ATOM     36  C   UNL     1      37.063 -22.091 -17.161  0.00  0.00    +0.252 C 
ENDBRANCH  32  35
BRANCH  33  37
ATOM     37  O   UNL     1      32.232 -22.381 -18.525  0.00  0.00    -0.471 OA
ATOM     38  C   UNL     1      32.369 -23.065 -17.280  0.00  0.00    +0.252 C 
ENDBRANCH  33  37
ENDBRANCH  28  29
ENDBRANCH  27  28
ENDBRANCH   6  27
TORSDOF 7
ENDMDL
MODEL 3
REMARK VINA RESULT:     -11.8      4.972     13.618
REMARK  Name = 51039095
REMARK  7 active torsions:
REMARK  status: ('A' for Active; 'I' for Inactive)
REMARK    1  A    between atoms: C_5  and  C_16
REMARK    2  A    between atoms: C_6  and  C_27
REMARK    3  A    between atoms: C_11  and  N_17
REMARK    4  A    between atoms: C_27  and  C_28
REMARK    5  A    between atoms: C_28  and  C_29
REMARK    6  A    between atoms: C_32  and  O_35
REMARK    7  A    between atoms: C_33  and  O_37
REMARK                            x       y       z     vdW  Elec       q    Type
REMARK                         _______ _______ _______ _____ _____    ______ ____
ROOT
ATOM      1  O   UNL     1      33.917 -22.015 -19.864  0.00  0.00    -0.270 OA
ATOM      2  N   UNL     1      35.822 -20.648 -19.953  0.00  0.00    -0.265 N 
ATOM      3  N   UNL     1      35.943 -18.590 -22.746  0.00  0.00    -0.239 N 
ATOM      4  N   UNL     1      36.505 -19.015 -21.602  0.00  0.00    -0.166 NA
ATOM      5  C   UNL     1      34.991 -21.621 -19.381  0.00  0.00    +0.251 C 
ATOM      6  C   UNL     1      34.755 -19.196 -23.036  0.00  0.00    +0.046 C 
ATOM      7  C   UNL     1      35.634 -19.925 -21.157  0.00  0.00    +0.153 C 
ATOM      8  C   UNL     1      34.525 -20.080 -22.010  0.00  0.00    +0.048 C 
ATOM      9  H   UNL     1      36.644 -20.440 -19.454  0.00  0.00    +0.157 HD
ATOM     10  H   UNL     1      36.351 -17.903 -23.321  0.00  0.00    +0.174 HD
ENDROOT
BRANCH   5  16
ATOM     11  C   UNL     1      36.379 -23.345 -15.760  0.00  0.00    +0.048 C 
ATOM     12  C   UNL     1      35.063 -23.555 -16.172  0.00  0.00    +0.015 C 
ATOM     13  C   UNL     1      37.240 -22.570 -16.537  0.00  0.00    +0.015 C 
ATOM     14  C   UNL     1      34.607 -22.988 -17.362  0.00  0.00    +0.006 C 
ATOM     15  C   UNL     1      36.783 -22.004 -17.728  0.00  0.00    +0.006 C 
ATOM     16  C   UNL     1      35.467 -22.213 -18.141  0.00  0.00    +0.054 C 
BRANCH  11  17
ATOM     17  N   UNL     1      36.838 -23.913 -14.566  0.00  0.00    -0.312 N 
ATOM     18  N   UNL     1      37.695 -25.275 -12.213  0.00  0.00    +0.389 N 
ATOM     19  C   UNL     1      36.712 -24.191 -12.119  0.00  0.00    -0.042 C 
ATOM     20  C   UNL     1      38.645 -25.018 -13.301  0.00  0.00    -0.042 C 
ATOM     21  C   UNL     1      35.921 -24.055 -13.429  0.00  0.00    +0.069 C 
ATOM     22  C   UNL     1      37.913 -24.911 -14.646  0.00  0.00    +0.069 C 
ATOM     23  C   UNL     1      39.678 -26.143 -13.338  0.00  0.00    -0.022 C 
ATOM     24  C   UNL     1      35.768 -24.471 -10.950  0.00  0.00    -0.022 C 
ATOM     25  H   UNL     1      37.208 -26.153 -12.395  0.00  0.00    -0.084 HD
ATOM     26  H   UNL     1      38.208 -25.331 -11.334  0.00  0.00    -0.084 HD
ENDBRANCH  11  17
ENDBRANCH   5  16
BRANCH   6  27
ATOM     27  C   UNL     1      33.983 -18.869 -24.245  0.00  0.00    +0.047 C 
BRANCH  27  28
ATOM     28  C   UNL     1      34.651 -17.829 -25.180  0.00  0.00    +0.033 C 
BRANCH  28  29
ATOM     29  C   UNL     1      34.247 -16.408 -24.863  0.00  0.00    -0.016 C 
ATOM     30  C   UNL     1      33.539 -15.658 -25.802  0.00  0.00    +0.033 C 
ATOM     31  C   UNL     1      34.581 -15.847 -23.631  0.00  0.00    +0.033 C 
ATOM     32  C   UNL     1      34.208 -14.536 -23.337  0.00  0.00    +0.141 C 
ATOM     33  C   UNL     1      33.165 -14.347 -25.509  0.00  0.00    +0.141 C 
ATOM     34  C   UNL     1      33.500 -13.785 -24.277  0.00  0.00    +0.074 C 
BRANCH  32  35
ATOM     35  O   UNL     1      34.534 -13.987 -22.135  0.00  0.00    -0.471 OA
ATOM     36  C   UNL     1      34.606 -14.872 -21.018  0.00  0.00    +0.252 C 
ENDBRANCH  32  35
BRANCH  33  37
ATOM     37  O   UNL     1      32.473 -13.615 -26.424  0.00  0.00    -0.471 OA
ATOM     38  C   UNL     1      33.159 -12.521 -27.032  0.00  0.00    +0.252 C 
ENDBRANCH  33  37
ENDBRANCH  28  29
ENDBRANCH  27  28
ENDBRANCH   6  27
TORSDOF 7
ENDMDL
MODEL 4
REMARK VINA RESULT:     -11.8      4.981     13.577
REMARK  Name = 51039095
REMARK  7 active torsions:
REMARK  status: ('A' for Active; 'I' for Inactive)
REMARK    1  A    between atoms: C_5  and  C_16
REMARK    2  A    between atoms: C_6  and  C_27
REMARK    3  A    between atoms: C_11  and  N_17
REMARK    4  A    between atoms: C_27  and  C_28
REMARK    5  A    between atoms: C_28  and  C_29
REMARK    6  A    between atoms: C_32  and  O_35
REMARK    7  A    between atoms: C_33  and  O_37
REMARK                            x       y       z     vdW  Elec       q    Type
REMARK                         _______ _______ _______ _____ _____    ______ ____
ROOT
ATOM      1  O   UNL     1      33.892 -22.011 -19.895  0.00  0.00    -0.270 OA
ATOM      2  N   UNL     1      35.794 -20.640 -19.982  0.00  0.00    -0.265 N 
ATOM      3  N   UNL     1      35.914 -18.582 -22.776  0.00  0.00    -0.239 N 
ATOM      4  N   UNL     1      36.475 -19.006 -21.630  0.00  0.00    -0.166 NA
ATOM      5  C   UNL     1      34.965 -21.615 -19.411  0.00  0.00    +0.251 C 
ATOM      6  C   UNL     1      34.728 -19.191 -23.067  0.00  0.00    +0.046 C 
ATOM      7  C   UNL     1      35.607 -19.917 -21.186  0.00  0.00    +0.153 C 
ATOM      8  C   UNL     1      34.499 -20.075 -22.041  0.00  0.00    +0.048 C 
ATOM      9  H   UNL     1      36.616 -20.430 -19.482  0.00  0.00    +0.157 HD
ATOM     10  H   UNL     1      36.321 -17.894 -23.351  0.00  0.00    +0.174 HD
ENDROOT
BRANCH   5  16
ATOM     11  C   UNL     1      36.358 -23.340 -15.792  0.00  0.00    +0.048 C 
ATOM     12  C   UNL     1      37.222 -22.578 -16.580  0.00  0.00    +0.015 C 
ATOM     13  C   UNL     1      35.036 -23.534 -16.193  0.00  0.00    +0.015 C 
ATOM     14  C   UNL     1      36.764 -22.011 -17.769  0.00  0.00    +0.006 C 
ATOM     15  C   UNL     1      34.579 -22.967 -17.382  0.00  0.00    +0.006 C 
ATOM     16  C   UNL     1      35.441 -22.205 -18.170  0.00  0.00    +0.054 C 
BRANCH  11  17
ATOM     17  N   UNL     1      36.816 -23.909 -14.599  0.00  0.00    -0.312 N 
ATOM     18  N   UNL     1      37.672 -25.273 -12.247  0.00  0.00    +0.389 N 
ATOM     19  C   UNL     1      36.688 -24.189 -12.152  0.00  0.00    -0.042 C 
ATOM     20  C   UNL     1      38.622 -25.015 -13.333  0.00  0.00    -0.042 C 
ATOM     21  C   UNL     1      35.899 -24.053 -13.463  0.00  0.00    +0.069 C 
ATOM     22  C   UNL     1      37.892 -24.907 -14.680  0.00  0.00    +0.069 C 
ATOM     23  C   UNL     1      39.655 -26.140 -13.371  0.00  0.00    -0.022 C 
ATOM     24  C   UNL     1      35.744 -24.471 -10.985  0.00  0.00    -0.022 C 
ATOM     25  H   UNL     1      37.185 -26.151 -12.430  0.00  0.00    -0.084 HD
ATOM     26  H   UNL     1      38.184 -25.330 -11.368  0.00  0.00    -0.084 HD
ENDBRANCH  11  17
ENDBRANCH   5  16
BRANCH   6  27
ATOM     27  C   UNL     1      33.956 -18.865 -24.277  0.00  0.00    +0.047 C 
BRANCH  27  28
ATOM     28  C   UNL     1      34.613 -17.809 -25.200  0.00  0.00    +0.033 C 
BRANCH  28  29
ATOM     29  C   UNL     1      34.227 -16.393 -24.843  0.00  0.00    -0.016 C 
ATOM     30  C   UNL     1      34.587 -15.862 -23.605  0.00  0.00    +0.033 C 
ATOM     31  C   UNL     1      33.511 -15.616 -25.754  0.00  0.00    +0.033 C 
ATOM     32  C   UNL     1      33.154 -14.308 -25.426  0.00  0.00    +0.141 C 
ATOM     33  C   UNL     1      34.231 -14.555 -23.277  0.00  0.00    +0.141 C 
ATOM     34  C   UNL     1      33.514 -13.778 -24.186  0.00  0.00    +0.074 C 
BRANCH  32  35
ATOM     35  O   UNL     1      32.455 -13.549 -26.314  0.00  0.00    -0.471 OA
ATOM     36  C   UNL     1      33.198 -12.604 -27.082  0.00  0.00    +0.252 C 
ENDBRANCH  32  35
BRANCH  33  37
ATOM     37  O   UNL     1      34.582 -14.036 -22.069  0.00  0.00    -0.471 OA
ATOM     38  C   UNL     1      34.549 -14.919 -20.948  0.00  0.00    +0.252 C 
ENDBRANCH  33  37
ENDBRANCH  28  29
ENDBRANCH  27  28
ENDBRANCH   6  27
TORSDOF 7
ENDMDL
MODEL 5
REMARK VINA RESULT:     -11.6      4.836     13.695
REMARK  Name = 51039095
REMARK  7 active torsions:
REMARK  status: ('A' for Active; 'I' for Inactive)
REMARK    1  A    between atoms: C_5  and  C_16
REMARK    2  A    between atoms: C_6  and  C_27
REMARK    3  A    between atoms: C_11  and  N_17
REMARK    4  A    between atoms: C_27  and  C_28
REMARK    5  A    between atoms: C_28  and  C_29
REMARK    6  A    between atoms: C_32  and  O_35
REMARK    7  A    between atoms: C_33  and  O_37
REMARK                            x       y       z     vdW  Elec       q    Type
REMARK                         _______ _______ _______ _____ _____    ______ ____
ROOT
ATOM      1  O   UNL     1      33.940 -21.897 -19.879  0.00  0.00    -0.270 OA
ATOM      2  N   UNL     1      35.917 -20.638 -19.978  0.00  0.00    -0.265 N 
ATOM      3  N   UNL     1      36.114 -18.548 -22.744  0.00  0.00    -0.239 N 
ATOM      4  N   UNL     1      36.667 -19.021 -21.614  0.00  0.00    -0.166 NA
ATOM      5  C   UNL     1      35.041 -21.571 -19.407  0.00  0.00    +0.251 C 
ATOM      6  C   UNL     1      34.890 -19.082 -23.024  0.00  0.00    +0.046 C 
ATOM      7  C   UNL     1      35.754 -19.888 -21.169  0.00  0.00    +0.153 C 
ATOM      8  C   UNL     1      34.626 -19.967 -22.007  0.00  0.00    +0.048 C 
ATOM      9  H   UNL     1      36.757 -20.484 -19.488  0.00  0.00    +0.157 HD
ATOM     10  H   UNL     1      36.552 -17.877 -23.315  0.00  0.00    +0.174 HD
ENDROOT
BRANCH   5  16
ATOM     11  C   UNL     1      36.381 -23.424 -15.832  0.00  0.00    +0.048 C 
ATOM     12  C   UNL     1      35.068 -23.612 -16.265  0.00  0.00    +0.015 C 
ATOM     13  C   UNL     1      37.254 -22.628 -16.573  0.00  0.00    +0.015 C 
ATOM     14  C   UNL     1      34.628 -23.003 -17.440  0.00  0.00    +0.006 C 
ATOM     15  C   UNL     1      36.813 -22.020 -17.749  0.00  0.00    +0.006 C 
ATOM     16  C   UNL     1      35.501 -22.207 -18.183  0.00  0.00    +0.054 C 
BRANCH  11  17
ATOM     17  N   UNL     1      36.824 -24.034 -14.653  0.00  0.00    -0.312 N 
ATOM     18  N   UNL     1      37.815 -25.071 -12.189  0.00  0.00    +0.389 N 
ATOM     19  C   UNL     1      38.287 -25.623 -13.463  0.00  0.00    -0.042 C 
ATOM     20  C   UNL     1      36.415 -24.646 -12.298  0.00  0.00    -0.042 C 
ATOM     21  C   UNL     1      38.186 -24.577 -14.583  0.00  0.00    +0.069 C 
ATOM     22  C   UNL     1      36.258 -23.568 -13.380  0.00  0.00    +0.069 C 
ATOM     23  C   UNL     1      35.946 -24.120 -10.943  0.00  0.00    -0.022 C 
ATOM     24  C   UNL     1      39.732 -26.094 -13.299  0.00  0.00    -0.022 C 
ATOM     25  H   UNL     1      38.391 -24.266 -11.940  0.00  0.00    -0.084 HD
ATOM     26  H   UNL     1      37.885 -25.792 -11.472  0.00  0.00    -0.084 HD
ENDBRANCH  11  17
ENDBRANCH   5  16
BRANCH   6  27
ATOM     27  C   UNL     1      34.120 -18.695 -24.216  0.00  0.00    +0.047 C 
BRANCH  27  28
ATOM     28  C   UNL     1      34.782 -17.597 -25.087  0.00  0.00    +0.033 C 
BRANCH  28  29
ATOM     29  C   UNL     1      34.232 -16.217 -24.813  0.00  0.00    -0.016 C 
ATOM     30  C   UNL     1      34.329 -15.669 -23.534  0.00  0.00    +0.033 C 
ATOM     31  C   UNL     1      33.630 -15.491 -25.839  0.00  0.00    +0.033 C 
ATOM     32  C   UNL     1      33.123 -14.216 -25.588  0.00  0.00    +0.141 C 
ATOM     33  C   UNL     1      33.823 -14.394 -23.282  0.00  0.00    +0.141 C 
ATOM     34  C   UNL     1      33.219 -13.668 -24.308  0.00  0.00    +0.074 C 
BRANCH  32  35
ATOM     35  O   UNL     1      32.535 -13.506 -26.589  0.00  0.00    -0.471 OA
ATOM     36  C   UNL     1      33.193 -12.312 -27.009  0.00  0.00    +0.252 C 
ENDBRANCH  32  35
BRANCH  33  37
ATOM     37  O   UNL     1      33.917 -13.858 -22.034  0.00  0.00    -0.471 OA
ATOM     38  C   UNL     1      32.696 -13.505 -21.385  0.00  0.00    +0.252 C 
ENDBRANCH  33  37
ENDBRANCH  28  29
ENDBRANCH  27  28
ENDBRANCH   6  27
TORSDOF 7
ENDMDL
MODEL 6
REMARK VINA RESULT:     -11.6      4.812     13.719
REMARK  Name = 51039095
REMARK  7 active torsions:
REMARK  status: ('A' for Active; 'I' for Inactive)
REMARK    1  A    between atoms: C_5  and  C_16
REMARK    2  A    between atoms: C_6  and  C_27
REMARK    3  A    between atoms: C_11  and  N_17
REMARK    4  A    between atoms: C_27  and  C_28
REMARK    5  A    between atoms: C_28  and  C_29
REMARK    6  A    between atoms: C_32  and  O_35
REMARK    7  A    between atoms: C_33  and  O_37
REMARK                            x       y       z     vdW  Elec       q    Type
REMARK                         _______ _______ _______ _____ _____    ______ ____
ROOT
ATOM      1  O   UNL     1      33.891 -21.873 -19.922  0.00  0.00    -0.270 OA
ATOM      2  N   UNL     1      35.875 -20.623 -20.016  0.00  0.00    -0.265 N 
ATOM      3  N   UNL     1      36.087 -18.532 -22.779  0.00  0.00    -0.239 N 
ATOM      4  N   UNL     1      36.636 -19.009 -21.649  0.00  0.00    -0.166 NA
ATOM      5  C   UNL     1      34.993 -21.553 -19.447  0.00  0.00    +0.251 C 
ATOM      6  C   UNL     1      34.861 -19.061 -23.063  0.00  0.00    +0.046 C 
ATOM      7  C   UNL     1      35.717 -19.871 -21.206  0.00  0.00    +0.153 C 
ATOM      8  C   UNL     1      34.590 -19.945 -22.047  0.00  0.00    +0.048 C 
ATOM      9  H   UNL     1      36.714 -20.474 -19.524  0.00  0.00    +0.157 HD
ATOM     10  H   UNL     1      36.529 -17.863 -23.350  0.00  0.00    +0.174 HD
ENDROOT
BRANCH   5  16
ATOM     11  C   UNL     1      36.323 -23.420 -15.875  0.00  0.00    +0.048 C 
ATOM     12  C   UNL     1      37.194 -22.611 -16.606  0.00  0.00    +0.015 C 
ATOM     13  C   UNL     1      35.014 -23.614 -16.317  0.00  0.00    +0.015 C 
ATOM     14  C   UNL     1      36.757 -21.998 -17.780  0.00  0.00    +0.006 C 
ATOM     15  C   UNL     1      34.577 -23.000 -17.491  0.00  0.00    +0.006 C 
ATOM     16  C   UNL     1      35.448 -22.192 -18.222  0.00  0.00    +0.054 C 
BRANCH  11  17
ATOM     17  N   UNL     1      36.760 -24.035 -14.697  0.00  0.00    -0.312 N 
ATOM     18  N   UNL     1      37.735 -25.083 -12.232  0.00  0.00    +0.389 N 
ATOM     19  C   UNL     1      38.231 -25.616 -13.505  0.00  0.00    -0.042 C 
ATOM     20  C   UNL     1      36.331 -24.676 -12.354  0.00  0.00    -0.042 C 
ATOM     21  C   UNL     1      38.128 -24.560 -14.616  0.00  0.00    +0.069 C 
ATOM     22  C   UNL     1      36.172 -23.590 -13.427  0.00  0.00    +0.069 C 
ATOM     23  C   UNL     1      35.838 -24.170 -11.000  0.00  0.00    -0.022 C 
ATOM     24  C   UNL     1      39.680 -26.068 -13.328  0.00  0.00    -0.022 C 
ATOM     25  H   UNL     1      38.296 -24.273 -11.967  0.00  0.00    -0.084 HD
ATOM     26  H   UNL     1      37.807 -25.810 -11.521  0.00  0.00    -0.084 HD
ENDBRANCH  11  17
ENDBRANCH   5  16
BRANCH   6  27
ATOM     27  C   UNL     1      34.096 -18.668 -24.256  0.00  0.00    +0.047 C 
BRANCH  27  28
ATOM     28  C   UNL     1      34.761 -17.568 -25.121  0.00  0.00    +0.033 C 
BRANCH  28  29
ATOM     29  C   UNL     1      34.208 -16.190 -24.847  0.00  0.00    -0.016 C 
ATOM     30  C   UNL     1      33.601 -15.465 -25.873  0.00  0.00    +0.033 C 
ATOM     31  C   UNL     1      34.304 -15.643 -23.569  0.00  0.00    +0.033 C 
ATOM     32  C   UNL     1      33.793 -14.370 -23.314  0.00  0.00    +0.141 C 
ATOM     33  C   UNL     1      33.089 -14.193 -25.619  0.00  0.00    +0.141 C 
ATOM     34  C   UNL     1      33.186 -13.644 -24.340  0.00  0.00    +0.074 C 
BRANCH  32  35
ATOM     35  O   UNL     1      33.886 -13.835 -22.065  0.00  0.00    -0.471 OA
ATOM     36  C   UNL     1      32.670 -13.412 -21.450  0.00  0.00    +0.252 C 
ENDBRANCH  32  35
BRANCH  33  37
ATOM     37  O   UNL     1      32.496 -13.485 -26.618  0.00  0.00    -0.471 OA
ATOM     38  C   UNL     1      33.145 -12.285 -27.038  0.00  0.00    +0.252 C 
ENDBRANCH  33  37
ENDBRANCH  28  29
ENDBRANCH  27  28
ENDBRANCH   6  27
TORSDOF 7
ENDMDL
MODEL 7
REMARK VINA RESULT:     -10.4      1.228      2.123
REMARK  Name = 51039095
REMARK  7 active torsions:
REMARK  status: ('A' for Active; 'I' for Inactive)
REMARK    1  A    between atoms: C_5  and  C_16
REMARK    2  A    between atoms: C_6  and  C_27
REMARK    3  A    between atoms: C_11  and  N_17
REMARK    4  A    between atoms: C_27  and  C_28
REMARK    5  A    between atoms: C_28  and  C_29
REMARK    6  A    between atoms: C_32  and  O_35
REMARK    7  A    between atoms: C_33  and  O_37
REMARK                            x       y       z     vdW  Elec       q    Type
REMARK                         _______ _______ _______ _____ _____    ______ ____
ROOT
ATOM      1  O   UNL     1      33.433 -14.162 -21.361  0.00  0.00    -0.270 OA
ATOM      2  N   UNL     1      34.225 -14.346 -23.562  0.00  0.00    -0.265 N 
ATOM      3  N   UNL     1      35.333 -17.529 -24.395  0.00  0.00    -0.239 N 
ATOM      4  N   UNL     1      35.122 -16.251 -24.752  0.00  0.00    -0.166 NA
ATOM      5  C   UNL     1      33.677 -13.659 -22.470  0.00  0.00    +0.251 C 
ATOM      6  C   UNL     1      34.970 -17.809 -23.110  0.00  0.00    +0.046 C 
ATOM      7  C   UNL     1      34.607 -15.708 -23.647  0.00  0.00    +0.153 C 
ATOM      8  C   UNL     1      34.489 -16.631 -22.591  0.00  0.00    +0.048 C 
ATOM      9  H   UNL     1      34.363 -13.812 -24.378  0.00  0.00    +0.157 HD
ATOM     10  H   UNL     1      35.713 -18.202 -25.005  0.00  0.00    +0.174 HD
ENDROOT
BRANCH   5  16
ATOM     11  C   UNL     1      32.908  -9.530 -23.076  0.00  0.00    +0.048 C 
ATOM     12  C   UNL     1      33.834 -10.192 -23.881  0.00  0.00    +0.015 C 
ATOM     13  C   UNL     1      32.233 -10.224 -22.072  0.00  0.00    +0.015 C 
ATOM     14  C   UNL     1      34.087 -11.549 -23.682  0.00  0.00    +0.006 C 
ATOM     15  C   UNL     1      32.486 -11.582 -21.873  0.00  0.00    +0.006 C 
ATOM     16  C   UNL     1      33.412 -12.244 -22.678  0.00  0.00    +0.054 C 
BRANCH  11  17
ATOM     17  N   UNL     1      32.653  -8.168 -23.275  0.00  0.00    -0.312 N 
ATOM     18  N   UNL     1      31.941  -5.458 -23.797  0.00  0.00    +0.389 N 
ATOM     19  C   UNL     1      33.212  -5.994 -24.297  0.00  0.00    -0.042 C 
ATOM     20  C   UNL     1      31.588  -6.077 -22.515  0.00  0.00    -0.042 C 
ATOM     21  C   UNL     1      33.118  -7.514 -24.503  0.00  0.00    +0.069 C 
ATOM     22  C   UNL     1      31.443  -7.598 -22.668  0.00  0.00    +0.069 C 
ATOM     23  C   UNL     1      30.286  -5.461 -22.005  0.00  0.00    -0.022 C 
ATOM     24  C   UNL     1      33.568  -5.296 -25.608  0.00  0.00    -0.022 C 
ATOM     25  H   UNL     1      31.205  -5.652 -24.476  0.00  0.00    -0.084 HD
ATOM     26  H   UNL     1      32.040  -4.453 -23.660  0.00  0.00    -0.084 HD
ENDBRANCH  11  17
ENDBRANCH   5  16
BRANCH   6  27
ATOM     27  C   UNL     1      35.121 -19.152 -22.527  0.00  0.00    +0.047 C 
BRANCH  27  28
ATOM     28  C   UNL     1      33.823 -19.745 -21.922  0.00  0.00    +0.033 C 
BRANCH  28  29
ATOM     29  C   UNL     1      34.084 -20.643 -20.736  0.00  0.00    -0.016 C 
ATOM     30  C   UNL     1      35.392 -20.876 -20.311  0.00  0.00    +0.033 C 
ATOM     31  C   UNL     1      33.017 -21.237 -20.064  0.00  0.00    +0.033 C 
ATOM     32  C   UNL     1      33.256 -22.066 -18.968  0.00  0.00    +0.141 C 
ATOM     33  C   UNL     1      35.632 -21.704 -19.215  0.00  0.00    +0.141 C 
ATOM     34  C   UNL     1      34.564 -22.300 -18.544  0.00  0.00    +0.074 C 
BRANCH  32  35
ATOM     35  O   UNL     1      32.214 -22.647 -18.312  0.00  0.00    -0.471 OA
ATOM     36  C   UNL     1      32.490 -23.211 -17.031  0.00  0.00    +0.252 C 
ENDBRANCH  32  35
BRANCH  33  37
ATOM     37  O   UNL     1      36.908 -21.932 -18.799  0.00  0.00    -0.471 OA
ATOM     38  C   UNL     1      37.125 -22.029 -17.392  0.00  0.00    +0.252 C 
ENDBRANCH  33  37
ENDBRANCH  28  29
ENDBRANCH  27  28
ENDBRANCH   6  27
TORSDOF 7
ENDMDL
MODEL 8
REMARK VINA RESULT:     -10.3      4.359     12.924
REMARK  Name = 51039095
REMARK  7 active torsions:
REMARK  status: ('A' for Active; 'I' for Inactive)
REMARK    1  A    between atoms: C_5  and  C_16
REMARK    2  A    between atoms: C_6  and  C_27
REMARK    3  A    between atoms: C_11  and  N_17
REMARK    4  A    between atoms: C_27  and  C_28
REMARK    5  A    between atoms: C_28  and  C_29
REMARK    6  A    between atoms: C_32  and  O_35
REMARK    7  A    between atoms: C_33  and  O_37
REMARK                            x       y       z     vdW  Elec       q    Type
REMARK                         _______ _______ _______ _____ _____    ______ ____
ROOT
ATOM      1  O   UNL     1      36.484 -19.173 -21.014  0.00  0.00    -0.270 OA
ATOM      2  N   UNL     1      34.520 -20.169 -21.825  0.00  0.00    -0.265 N 
ATOM      3  N   UNL     1      33.356 -18.773 -24.783  0.00  0.00    -0.239 N 
ATOM      4  N   UNL     1      33.214 -19.679 -23.801  0.00  0.00    -0.166 NA
ATOM      5  C   UNL     1      35.576 -20.013 -20.915  0.00  0.00    +0.251 C 
ATOM      6  C   UNL     1      34.452 -17.972 -24.639  0.00  0.00    +0.046 C 
ATOM      7  C   UNL     1      34.262 -19.436 -23.009  0.00  0.00    +0.153 C 
ATOM      8  C   UNL     1      35.068 -18.383 -23.482  0.00  0.00    +0.048 C 
ATOM      9  H   UNL     1      33.873 -20.879 -21.612  0.00  0.00    +0.157 HD
ATOM     10  H   UNL     1      32.729 -18.695 -25.537  0.00  0.00    +0.174 HD
ENDROOT
BRANCH   5  16
ATOM     11  C   UNL     1      35.523 -22.611 -17.559  0.00  0.00    +0.048 C 
ATOM     12  C   UNL     1      34.368 -22.432 -18.321  0.00  0.00    +0.015 C 
ATOM     13  C   UNL     1      36.696 -21.938 -17.901  0.00  0.00    +0.015 C 
ATOM     14  C   UNL     1      34.386 -21.578 -19.423  0.00  0.00    +0.006 C 
ATOM     15  C   UNL     1      36.713 -21.084 -19.004  0.00  0.00    +0.006 C 
ATOM     16  C   UNL     1      35.559 -20.905 -19.766  0.00  0.00    +0.054 C 
BRANCH  11  17
ATOM     17  N   UNL     1      35.507 -23.467 -16.453  0.00  0.00    -0.312 N 
ATOM     18  N   UNL     1      35.454 -25.022 -14.064  0.00  0.00    +0.389 N 
ATOM     19  C   UNL     1      36.622 -25.074 -14.950  0.00  0.00    -0.042 C 
ATOM     20  C   UNL     1      34.225 -24.825 -14.841  0.00  0.00    -0.042 C 
ATOM     21  C   UNL     1      36.759 -23.769 -15.749  0.00  0.00    +0.069 C 
ATOM     22  C   UNL     1      34.289 -23.512 -15.633  0.00  0.00    +0.069 C 
ATOM     23  C   UNL     1      33.030 -24.822 -13.890  0.00  0.00    -0.022 C 
ATOM     24  C   UNL     1      37.875 -25.323 -14.112  0.00  0.00    -0.022 C 
ATOM     25  H   UNL     1      35.565 -24.247 -13.410  0.00  0.00    -0.084 HD
ATOM     26  H   UNL     1      35.386 -25.904 -13.558  0.00  0.00    -0.084 HD
ENDBRANCH  11  17
ENDBRANCH   5  16
BRANCH   6  27
ATOM     27  C   UNL     1      34.784 -16.917 -25.609  0.00  0.00    +0.047 C 
BRANCH  27  28
ATOM     28  C   UNL     1      33.633 -15.923 -25.906  0.00  0.00    +0.033 C 
BRANCH  28  29
ATOM     29  C   UNL     1      33.641 -14.723 -24.989  0.00  0.00    -0.016 C 
ATOM     30  C   UNL     1      33.745 -13.438 -25.522  0.00  0.00    +0.033 C 
ATOM     31  C   UNL     1      33.542 -14.900 -23.610  0.00  0.00    +0.033 C 
ATOM     32  C   UNL     1      33.548 -13.792 -22.762  0.00  0.00    +0.141 C 
ATOM     33  C   UNL     1      33.750 -12.330 -24.675  0.00  0.00    +0.141 C 
ATOM     34  C   UNL     1      33.653 -12.507 -23.295  0.00  0.00    +0.074 C 
BRANCH  32  35
ATOM     35  O   UNL     1      33.451 -13.964 -21.415  0.00  0.00    -0.471 OA
ATOM     36  C   UNL     1      32.219 -13.588 -20.801  0.00  0.00    +0.252 C 
ENDBRANCH  32  35
BRANCH  33  37
ATOM     37  O   UNL     1      33.851 -11.076 -25.194  0.00  0.00    -0.471 OA
ATOM     38  C   UNL     1      34.659 -10.141 -24.480  0.00  0.00    +0.252 C 
ENDBRANCH  33  37
ENDBRANCH  28  29
ENDBRANCH  27  28
ENDBRANCH   6  27
TORSDOF 7
ENDMDL
MODEL 9
REMARK VINA RESULT:     -10.2      4.163     12.988
REMARK  Name = 51039095
REMARK  7 active torsions:
REMARK  status: ('A' for Active; 'I' for Inactive)
REMARK    1  A    between atoms: C_5  and  C_16
REMARK    2  A    between atoms: C_6  and  C_27
REMARK    3  A    between atoms: C_11  and  N_17
REMARK    4  A    between atoms: C_27  and  C_28
REMARK    5  A    between atoms: C_28  and  C_29
REMARK    6  A    between atoms: C_32  and  O_35
REMARK    7  A    between atoms: C_33  and  O_37
REMARK                            x       y       z     vdW  Elec       q    Type
REMARK                         _______ _______ _______ _____ _____    ______ ____
ROOT
ATOM      1  O   UNL     1      32.900 -20.571 -21.765  0.00  0.00    -0.270 OA
ATOM      2  N   UNL     1      34.963 -19.582 -21.244  0.00  0.00    -0.265 N 
ATOM      3  N   UNL     1      36.023 -17.235 -23.573  0.00  0.00    -0.239 N 
ATOM      4  N   UNL     1      36.241 -17.903 -22.427  0.00  0.00    -0.166 NA
ATOM      5  C   UNL     1      33.885 -20.450 -21.019  0.00  0.00    +0.251 C 
ATOM      6  C   UNL     1      34.852 -17.567 -24.190  0.00  0.00    +0.046 C 
ATOM      7  C   UNL     1      35.164 -18.685 -22.323  0.00  0.00    +0.153 C 
ATOM      8  C   UNL     1      34.265 -18.519 -23.393  0.00  0.00    +0.048 C 
ATOM      9  H   UNL     1      35.674 -19.597 -20.563  0.00  0.00    +0.157 HD
ATOM     10  H   UNL     1      36.649 -16.566 -23.932  0.00  0.00    +0.174 HD
ENDROOT
BRANCH   5  16
ATOM     11  C   UNL     1      34.145 -22.858 -17.534  0.00  0.00    +0.048 C 
ATOM     12  C   UNL     1      32.896 -22.512 -18.052  0.00  0.00    +0.015 C 
ATOM     13  C   UNL     1      35.308 -22.414 -18.162  0.00  0.00    +0.015 C 
ATOM     14  C   UNL     1      32.811 -21.721 -19.197  0.00  0.00    +0.006 C 
ATOM     15  C   UNL     1      35.222 -21.622 -19.308  0.00  0.00    +0.006 C 
ATOM     16  C   UNL     1      33.975 -21.276 -19.826  0.00  0.00    +0.054 C 
BRANCH  11  17
ATOM     17  N   UNL     1      34.231 -23.652 -16.385  0.00  0.00    -0.312 N 
ATOM     18  N   UNL     1      34.386 -25.074 -13.920  0.00  0.00    +0.389 N 
ATOM     19  C   UNL     1      35.505 -25.120 -14.867  0.00  0.00    -0.042 C 
ATOM     20  C   UNL     1      33.108 -24.978 -14.634  0.00  0.00    -0.042 C 
ATOM     21  C   UNL     1      35.533 -23.856 -15.739  0.00  0.00    +0.069 C 
ATOM     22  C   UNL     1      33.063 -23.708 -15.497  0.00  0.00    +0.069 C 
ATOM     23  C   UNL     1      31.967 -24.979 -13.619  0.00  0.00    -0.022 C 
ATOM     24  C   UNL     1      36.812 -25.264 -14.089  0.00  0.00    -0.022 C 
ATOM     25  H   UNL     1      34.493 -24.260 -13.314  0.00  0.00    -0.084 HD
ATOM     26  H   UNL     1      34.389 -25.930 -13.366  0.00  0.00    -0.084 HD
ENDBRANCH  11  17
ENDBRANCH   5  16
BRANCH   6  27
ATOM     27  C   UNL     1      34.430 -16.947 -25.456  0.00  0.00    +0.047 C 
BRANCH  27  28
ATOM     28  C   UNL     1      33.138 -16.097 -25.363  0.00  0.00    +0.033 C 
BRANCH  28  29
ATOM     29  C   UNL     1      33.374 -14.732 -24.763  0.00  0.00    -0.016 C 
ATOM     30  C   UNL     1      33.220 -14.537 -23.390  0.00  0.00    +0.033 C 
ATOM     31  C   UNL     1      33.748 -13.667 -25.581  0.00  0.00    +0.033 C 
ATOM     32  C   UNL     1      33.967 -12.405 -25.027  0.00  0.00    +0.141 C 
ATOM     33  C   UNL     1      33.439 -13.276 -22.836  0.00  0.00    +0.141 C 
ATOM     34  C   UNL     1      33.812 -12.210 -23.654  0.00  0.00    +0.074 C 
BRANCH  32  35
ATOM     35  O   UNL     1      34.333 -11.364 -25.825  0.00  0.00    -0.471 OA
ATOM     36  C   UNL     1      35.013 -10.277 -25.200  0.00  0.00    +0.252 C 
ENDBRANCH  32  35
BRANCH  33  37
ATOM     37  O   UNL     1      33.289 -13.085 -21.497  0.00  0.00    -0.471 OA
ATOM     38  C   UNL     1      32.095 -13.589 -20.899  0.00  0.00    +0.252 C 
ENDBRANCH  33  37
ENDBRANCH  28  29
ENDBRANCH  27  28
ENDBRANCH   6  27
TORSDOF 7
ENDMDL
