MODEL 1
REMARK VINA RESULT:     -11.1      0.000      0.000
REMARK  Name = 11626560
REMARK  5 active torsions:
REMARK  status: ('A' for Active; 'I' for Inactive)
REMARK    1  A    between atoms: C_2  and  C_10
REMARK    2  A    between atoms: C_5  and  O_23
REMARK    3  A    between atoms: N_7  and  C_13
REMARK    4  A    between atoms: O_23  and  C_24
REMARK    5  A    between atoms: C_24  and  C_29
REMARK                            x       y       z     vdW  Elec       q    Type
REMARK                         _______ _______ _______ _____ _____    ______ ____
ROOT
ATOM      1  N   UNL     1      32.679 -22.383 -18.755  0.00  0.00    -0.226 NA
ATOM      2  C   UNL     1      34.678 -21.325 -19.617  0.00  0.00    +0.025 C 
ATOM      3  C   UNL     1      35.446 -22.000 -18.672  0.00  0.00    +0.041 C 
ATOM      4  C   UNL     1      33.310 -21.551 -19.614  0.00  0.00    +0.101 C 
ATOM      5  C   UNL     1      34.835 -22.863 -17.772  0.00  0.00    +0.170 C 
ATOM      6  C   UNL     1      33.460 -23.020 -17.854  0.00  0.00    +0.160 C 
ATOM      7  N   UNL     1      32.835 -23.902 -16.938  0.00  0.00    -0.340 N 
ATOM      8  H   UNL     1      31.860 -24.035 -16.969  0.00  0.00    +0.144 HD
ATOM      9  H   UNL     1      33.376 -24.381 -16.269  0.00  0.00    +0.144 HD
ENDROOT
BRANCH   2  13
ATOM     10  N   UNL     1      35.545 -19.114 -22.275  0.00  0.00    -0.212 N 
ATOM     11  N   UNL     1      36.741 -19.074 -21.670  0.00  0.00    -0.176 NA
ATOM     12  C   UNL     1      34.632 -19.908 -21.651  0.00  0.00    +0.086 C 
ATOM     13  C   UNL     1      35.279 -20.429 -20.556  0.00  0.00    +0.039 C 
ATOM     14  C   UNL     1      36.574 -19.881 -20.619  0.00  0.00    +0.119 C 
BRANCH  10  16
ATOM     15  N   UNL     1      33.732 -16.647 -25.274  0.00  0.00    +0.384 N 
ATOM     16  C   UNL     1      35.324 -18.335 -23.498  0.00  0.00    +0.092 C 
ATOM     17  C   UNL     1      35.091 -16.842 -23.216  0.00  0.00    -0.002 C 
ATOM     18  C   UNL     1      34.190 -18.902 -24.366  0.00  0.00    -0.002 C 
ATOM     19  C   UNL     1      34.844 -16.075 -24.515  0.00  0.00    -0.080 C 
ATOM     20  C   UNL     1      33.981 -18.048 -25.617  0.00  0.00    -0.080 C 
ATOM     21  H   UNL     1      33.607 -16.113 -26.134  0.00  0.00    -0.085 HD
ATOM     22  H   UNL     1      32.893 -16.604 -24.696  0.00  0.00    -0.085 HD
ENDBRANCH  10  16
ENDBRANCH   2  13
BRANCH   5  23
ATOM     23  O   UNL     1      35.585 -23.523 -16.850  0.00  0.00    -0.472 OA
BRANCH  23  24
ATOM     24  C   UNL     1      35.951 -22.804 -15.672  0.00  0.00    +0.190 C 
ATOM     25  C   UNL     1      37.109 -21.865 -15.990  0.00  0.00    +0.052 C 
BRANCH  24  29
ATOM     26 CL   UNL     1      38.791 -23.908 -15.684  0.00  0.00    -0.080 Cl
ATOM     27 CL   UNL     1      33.743 -23.482 -13.676  0.00  0.00    -0.082 Cl
ATOM     28  F   UNL     1      39.128 -25.772 -13.442  0.00  0.00    -0.203 F 
ATOM     29  C   UNL     1      36.301 -23.786 -14.578  0.00  0.00    +0.041 C 
ATOM     30  C   UNL     1      37.579 -24.328 -14.527  0.00  0.00    +0.085 C 
ATOM     31  C   UNL     1      35.340 -24.136 -13.638  0.00  0.00    +0.058 C 
ATOM     32  C   UNL     1      37.902 -25.234 -13.516  0.00  0.00    +0.150 C 
ATOM     33  C   UNL     1      35.664 -25.042 -12.629  0.00  0.00    +0.014 C 
ATOM     34  C   UNL     1      36.944 -25.592 -12.568  0.00  0.00    +0.031 C 
ENDBRANCH  24  29
ENDBRANCH  23  24
ENDBRANCH   5  23
TORSDOF 5
ENDMDL
MODEL 2
REMARK VINA RESULT:     -11.0      0.837      1.859
REMARK  Name = 11626560
REMARK  5 active torsions:
REMARK  status: ('A' for Active; 'I' for Inactive)
REMARK    1  A    between atoms: C_2  and  C_10
REMARK    2  A    between atoms: C_5  and  O_23
REMARK    3  A    between atoms: N_7  and  C_13
REMARK    4  A    between atoms: O_23  and  C_24
REMARK    5  A    between atoms: C_24  and  C_29
REMARK                            x       y       z     vdW  Elec       q    Type
REMARK                         _______ _______ _______ _____ _____    ______ ____
ROOT
ATOM      1  N   UNL     1      32.681 -22.381 -18.763  0.00  0.00    -0.226 NA
ATOM      2  C   UNL     1      34.653 -21.307 -19.663  0.00  0.00    +0.025 C 
ATOM      3  C   UNL     1      35.444 -21.965 -18.725  0.00  0.00    +0.041 C 
ATOM      4  C   UNL     1      33.288 -21.549 -19.638  0.00  0.00    +0.101 C 
ATOM      5  C   UNL     1      34.857 -22.828 -17.808  0.00  0.00    +0.170 C 
ATOM      6  C   UNL     1      33.483 -23.001 -17.868  0.00  0.00    +0.160 C 
ATOM      7  N   UNL     1      32.882 -23.883 -16.936  0.00  0.00    -0.340 N 
ATOM      8  H   UNL     1      31.908 -24.027 -16.951  0.00  0.00    +0.144 HD
ATOM      9  H   UNL     1      33.439 -24.350 -16.271  0.00  0.00    +0.144 HD
ENDROOT
BRANCH   2  13
ATOM     10  N   UNL     1      35.463 -19.130 -22.367  0.00  0.00    -0.212 N 
ATOM     11  N   UNL     1      36.651 -19.029 -21.752  0.00  0.00    -0.176 NA
ATOM     12  C   UNL     1      34.575 -19.944 -21.733  0.00  0.00    +0.086 C 
ATOM     13  C   UNL     1      35.229 -20.412 -20.619  0.00  0.00    +0.039 C 
ATOM     14  C   UNL     1      36.504 -19.815 -20.683  0.00  0.00    +0.119 C 
BRANCH  10  16
ATOM     15  N   UNL     1      33.621 -16.737 -25.408  0.00  0.00    +0.384 N 
ATOM     16  C   UNL     1      35.226 -18.392 -23.612  0.00  0.00    +0.092 C 
ATOM     17  C   UNL     1      35.028 -16.886 -23.379  0.00  0.00    -0.002 C 
ATOM     18  C   UNL     1      34.060 -18.967 -24.431  0.00  0.00    -0.002 C 
ATOM     19  C   UNL     1      34.762 -16.160 -24.698  0.00  0.00    -0.080 C 
ATOM     20  C   UNL     1      33.835 -18.154 -25.706  0.00  0.00    -0.080 C 
ATOM     21  H   UNL     1      33.485 -16.232 -26.284  0.00  0.00    -0.085 HD
ATOM     22  H   UNL     1      32.798 -16.657 -24.811  0.00  0.00    -0.085 HD
ENDBRANCH  10  16
ENDBRANCH   2  13
BRANCH   5  23
ATOM     23  O   UNL     1      35.628 -23.471 -16.893  0.00  0.00    -0.472 OA
BRANCH  23  24
ATOM     24  C   UNL     1      36.013 -22.735 -15.731  0.00  0.00    +0.190 C 
ATOM     25  C   UNL     1      37.141 -21.776 -16.091  0.00  0.00    +0.052 C 
BRANCH  24  29
ATOM     26 CL   UNL     1      33.893 -23.397 -13.645  0.00  0.00    -0.080 Cl
ATOM     27 CL   UNL     1      38.863 -23.823 -15.841  0.00  0.00    -0.082 Cl
ATOM     28  F   UNL     1      34.999 -25.287 -11.689  0.00  0.00    -0.203 F 
ATOM     29  C   UNL     1      36.414 -23.701 -14.640  0.00  0.00    +0.041 C 
ATOM     30  C   UNL     1      35.495 -24.044 -13.657  0.00  0.00    +0.085 C 
ATOM     31  C   UNL     1      37.697 -24.232 -14.634  0.00  0.00    +0.058 C 
ATOM     32  C   UNL     1      35.866 -24.936 -12.651  0.00  0.00    +0.150 C 
ATOM     33  C   UNL     1      38.068 -25.123 -13.627  0.00  0.00    +0.014 C 
ATOM     34  C   UNL     1      37.153 -25.475 -12.635  0.00  0.00    +0.031 C 
ENDBRANCH  24  29
ENDBRANCH  23  24
ENDBRANCH   5  23
TORSDOF 5
ENDMDL
MODEL 3
REMARK VINA RESULT:     -10.9      6.290     11.448
REMARK  Name = 11626560
REMARK  5 active torsions:
REMARK  status: ('A' for Active; 'I' for Inactive)
REMARK    1  A    between atoms: C_2  and  C_10
REMARK    2  A    between atoms: C_5  and  O_23
REMARK    3  A    between atoms: N_7  and  C_13
REMARK    4  A    between atoms: O_23  and  C_24
REMARK    5  A    between atoms: C_24  and  C_29
REMARK                            x       y       z     vdW  Elec       q    Type
REMARK                         _______ _______ _______ _____ _____    ______ ____
ROOT
ATOM      1  N   UNL     1      34.382 -17.216 -25.884  0.00  0.00    -0.226 NA
ATOM      2  C   UNL     1      34.906 -17.549 -23.545  0.00  0.00    +0.025 C 
ATOM      3  C   UNL     1      34.339 -16.314 -23.239  0.00  0.00    +0.041 C 
ATOM      4  C   UNL     1      34.902 -17.948 -24.873  0.00  0.00    +0.101 C 
ATOM      5  C   UNL     1      33.795 -15.533 -24.251  0.00  0.00    +0.170 C 
ATOM      6  C   UNL     1      33.841 -16.024 -25.546  0.00  0.00    +0.160 C 
ATOM      7  N   UNL     1      33.284 -15.230 -26.579  0.00  0.00    -0.340 N 
ATOM      8  H   UNL     1      33.301 -15.550 -27.510  0.00  0.00    +0.144 HD
ATOM      9  H   UNL     1      32.881 -14.357 -26.366  0.00  0.00    +0.144 HD
ENDROOT
BRANCH   2  13
ATOM     10  N   UNL     1      35.728 -19.982 -21.074  0.00  0.00    -0.212 N 
ATOM     11  N   UNL     1      36.857 -19.270 -20.943  0.00  0.00    -0.176 NA
ATOM     12  C   UNL     1      34.866 -19.492 -22.007  0.00  0.00    +0.086 C 
ATOM     13  C   UNL     1      35.474 -18.375 -22.525  0.00  0.00    +0.039 C 
ATOM     14  C   UNL     1      36.698 -18.286 -21.832  0.00  0.00    +0.119 C 
BRANCH  10  16
ATOM     15  N   UNL     1      34.713 -22.554 -17.800  0.00  0.00    +0.384 N 
ATOM     16  C   UNL     1      35.523 -21.174 -20.245  0.00  0.00    +0.092 C 
ATOM     17  C   UNL     1      34.046 -21.397 -19.881  0.00  0.00    -0.002 C 
ATOM     18  C   UNL     1      36.395 -21.175 -18.979  0.00  0.00    -0.002 C 
ATOM     19  C   UNL     1      33.882 -22.635 -19.001  0.00  0.00    -0.080 C 
ATOM     20  C   UNL     1      36.131 -22.423 -18.136  0.00  0.00    -0.080 C 
ATOM     21  H   UNL     1      34.581 -23.401 -17.247  0.00  0.00    -0.085 HD
ATOM     22  H   UNL     1      34.433 -21.728 -17.270  0.00  0.00    -0.085 HD
ENDBRANCH  10  16
ENDBRANCH   2  13
BRANCH   5  23
ATOM     23  O   UNL     1      33.240 -14.329 -23.953  0.00  0.00    -0.472 OA
BRANCH  23  24
ATOM     24  C   UNL     1      34.065 -13.380 -23.277  0.00  0.00    +0.190 C 
ATOM     25  C   UNL     1      34.574 -13.987 -21.975  0.00  0.00    +0.052 C 
BRANCH  24  29
ATOM     26 CL   UNL     1      31.978 -13.461 -21.058  0.00  0.00    -0.080 Cl
ATOM     27 CL   UNL     1      34.723 -11.000 -25.071  0.00  0.00    -0.082 Cl
ATOM     28  F   UNL     1      30.642 -10.854 -20.873  0.00  0.00    -0.203 F 
ATOM     29  C   UNL     1      33.276 -12.112 -23.042  0.00  0.00    +0.041 C 
ATOM     30  C   UNL     1      32.309 -12.082 -22.045  0.00  0.00    +0.085 C 
ATOM     31  C   UNL     1      33.529 -10.993 -23.825  0.00  0.00    +0.058 C 
ATOM     32  C   UNL     1      31.581 -10.912 -21.828  0.00  0.00    +0.150 C 
ATOM     33  C   UNL     1      32.801  -9.824 -23.608  0.00  0.00    +0.014 C 
ATOM     34  C   UNL     1      31.827  -9.783 -22.610  0.00  0.00    +0.031 C 
ENDBRANCH  24  29
ENDBRANCH  23  24
ENDBRANCH   5  23
TORSDOF 5
ENDMDL
MODEL 4
REMARK VINA RESULT:     -10.7      6.519     11.448
REMARK  Name = 11626560
REMARK  5 active torsions:
REMARK  status: ('A' for Active; 'I' for Inactive)
REMARK    1  A    between atoms: C_2  and  C_10
REMARK    2  A    between atoms: C_5  and  O_23
REMARK    3  A    between atoms: N_7  and  C_13
REMARK    4  A    between atoms: O_23  and  C_24
REMARK    5  A    between atoms: C_24  and  C_29
REMARK                            x       y       z     vdW  Elec       q    Type
REMARK                         _______ _______ _______ _____ _____    ______ ____
ROOT
ATOM      1  N   UNL     1      34.442 -17.219 -25.904  0.00  0.00    -0.226 NA
ATOM      2  C   UNL     1      34.907 -17.542 -23.551  0.00  0.00    +0.025 C 
ATOM      3  C   UNL     1      34.341 -16.303 -23.265  0.00  0.00    +0.041 C 
ATOM      4  C   UNL     1      34.932 -17.949 -24.876  0.00  0.00    +0.101 C 
ATOM      5  C   UNL     1      33.827 -15.523 -24.294  0.00  0.00    +0.170 C 
ATOM      6  C   UNL     1      33.901 -16.022 -25.585  0.00  0.00    +0.160 C 
ATOM      7  N   UNL     1      33.375 -15.230 -26.636  0.00  0.00    -0.340 N 
ATOM      8  H   UNL     1      33.411 -15.554 -27.564  0.00  0.00    +0.144 HD
ATOM      9  H   UNL     1      32.973 -14.353 -26.437  0.00  0.00    +0.144 HD
ENDROOT
BRANCH   2  13
ATOM     10  N   UNL     1      35.662 -19.979 -21.062  0.00  0.00    -0.212 N 
ATOM     11  N   UNL     1      36.774 -19.252 -20.880  0.00  0.00    -0.176 NA
ATOM     12  C   UNL     1      34.832 -19.496 -22.027  0.00  0.00    +0.086 C 
ATOM     13  C   UNL     1      35.445 -18.367 -22.513  0.00  0.00    +0.039 C 
ATOM     14  C   UNL     1      36.637 -18.265 -21.770  0.00  0.00    +0.119 C 
BRANCH  10  16
ATOM     15  N   UNL     1      34.648 -22.578 -17.808  0.00  0.00    +0.384 N 
ATOM     16  C   UNL     1      35.440 -21.180 -20.249  0.00  0.00    +0.092 C 
ATOM     17  C   UNL     1      33.966 -21.363 -19.851  0.00  0.00    -0.002 C 
ATOM     18  C   UNL     1      36.342 -21.231 -19.006  0.00  0.00    -0.002 C 
ATOM     19  C   UNL     1      33.785 -22.611 -18.988  0.00  0.00    -0.080 C 
ATOM     20  C   UNL     1      36.061 -22.485 -18.178  0.00  0.00    -0.080 C 
ATOM     21  H   UNL     1      34.504 -23.431 -17.267  0.00  0.00    -0.085 HD
ATOM     22  H   UNL     1      34.408 -21.754 -17.257  0.00  0.00    -0.085 HD
ENDBRANCH  10  16
ENDBRANCH   2  13
BRANCH   5  23
ATOM     23  O   UNL     1      33.273 -14.313 -24.016  0.00  0.00    -0.472 OA
BRANCH  23  24
ATOM     24  C   UNL     1      34.058 -13.397 -23.251  0.00  0.00    +0.190 C 
ATOM     25  C   UNL     1      34.557 -14.090 -21.988  0.00  0.00    +0.052 C 
BRANCH  24  29
ATOM     26 CL   UNL     1      34.619 -10.905 -24.912  0.00  0.00    -0.080 Cl
ATOM     27 CL   UNL     1      31.993 -13.672 -21.020  0.00  0.00    -0.082 Cl
ATOM     28  F   UNL     1      32.845  -8.731 -24.048  0.00  0.00    -0.203 F 
ATOM     29  C   UNL     1      33.229 -12.173 -22.938  0.00  0.00    +0.041 C 
ATOM     30  C   UNL     1      33.435 -11.003 -23.658  0.00  0.00    +0.085 C 
ATOM     31  C   UNL     1      32.271 -12.233 -21.933  0.00  0.00    +0.058 C 
ATOM     32  C   UNL     1      32.669  -9.874 -23.369  0.00  0.00    +0.150 C 
ATOM     33  C   UNL     1      31.507 -11.104 -21.644  0.00  0.00    +0.014 C 
ATOM     34  C   UNL     1      31.706  -9.924 -22.361  0.00  0.00    +0.031 C 
ENDBRANCH  24  29
ENDBRANCH  23  24
ENDBRANCH   5  23
TORSDOF 5
ENDMDL
MODEL 5
REMARK VINA RESULT:     -10.6      9.353     13.468
REMARK  Name = 11626560
REMARK  5 active torsions:
REMARK  status: ('A' for Active; 'I' for Inactive)
REMARK    1  A    between atoms: C_2  and  C_10
REMARK    2  A    between atoms: C_5  and  O_23
REMARK    3  A    between atoms: N_7  and  C_13
REMARK    4  A    between atoms: O_23  and  C_24
REMARK    5  A    between atoms: C_24  and  C_29
REMARK                            x       y       z     vdW  Elec       q    Type
REMARK                         _______ _______ _______ _____ _____    ______ ____
ROOT
ATOM      1  N   UNL     1      31.790 -11.331 -19.891  0.00  0.00    -0.226 NA
ATOM      2  C   UNL     1      31.969  -9.493 -21.456  0.00  0.00    +0.025 C 
ATOM      3  C   UNL     1      32.184 -10.394 -22.495  0.00  0.00    +0.041 C 
ATOM      4  C   UNL     1      31.780 -10.011 -20.184  0.00  0.00    +0.101 C 
ATOM      5  C   UNL     1      32.202 -11.759 -22.235  0.00  0.00    +0.170 C 
ATOM      6  C   UNL     1      32.001 -12.173 -20.928  0.00  0.00    +0.160 C 
ATOM      7  N   UNL     1      32.017 -13.565 -20.660  0.00  0.00    -0.340 N 
ATOM      8  H   UNL     1      31.878 -13.892 -19.742  0.00  0.00    +0.144 HD
ATOM      9  H   UNL     1      32.167 -14.205 -21.393  0.00  0.00    +0.144 HD
ENDROOT
BRANCH   2  13
ATOM     10  N   UNL     1      31.769  -6.164 -22.713  0.00  0.00    -0.212 N 
ATOM     11  N   UNL     1      32.038  -5.814 -21.446  0.00  0.00    -0.176 NA
ATOM     12  C   UNL     1      31.701  -7.508 -22.916  0.00  0.00    +0.086 C 
ATOM     13  C   UNL     1      31.946  -8.083 -21.693  0.00  0.00    +0.039 C 
ATOM     14  C   UNL     1      32.146  -6.991 -20.825  0.00  0.00    +0.119 C 
BRANCH  10  16
ATOM     15  N   UNL     1      32.197  -2.572 -25.011  0.00  0.00    +0.384 N 
ATOM     16  C   UNL     1      31.575  -5.122 -23.727  0.00  0.00    +0.092 C 
ATOM     17  C   UNL     1      32.804  -4.940 -24.631  0.00  0.00    -0.002 C 
ATOM     18  C   UNL     1      31.148  -3.776 -23.122  0.00  0.00    -0.002 C 
ATOM     19  C   UNL     1      32.567  -3.832 -25.657  0.00  0.00    -0.080 C 
ATOM     20  C   UNL     1      30.980  -2.716 -24.211  0.00  0.00    -0.080 C 
ATOM     21  H   UNL     1      32.039  -1.865 -25.729  0.00  0.00    -0.085 HD
ATOM     22  H   UNL     1      32.957  -2.295 -24.390  0.00  0.00    -0.085 HD
ENDBRANCH  10  16
ENDBRANCH   2  13
BRANCH   5  23
ATOM     23  O   UNL     1      32.410 -12.640 -23.249  0.00  0.00    -0.472 OA
BRANCH  23  24
ATOM     24  C   UNL     1      33.763 -12.882 -23.635  0.00  0.00    +0.190 C 
ATOM     25  C   UNL     1      34.194 -11.833 -24.654  0.00  0.00    +0.052 C 
BRANCH  24  29
ATOM     26 CL   UNL     1      34.992 -14.967 -21.784  0.00  0.00    -0.080 Cl
ATOM     27 CL   UNL     1      32.749 -13.341 -26.477  0.00  0.00    -0.082 Cl
ATOM     28  F   UNL     1      35.070 -17.565 -23.149  0.00  0.00    -0.203 F 
ATOM     29  C   UNL     1      33.882 -14.286 -24.180  0.00  0.00    +0.041 C 
ATOM     30  C   UNL     1      34.434 -15.285 -23.388  0.00  0.00    +0.085 C 
ATOM     31  C   UNL     1      33.438 -14.561 -25.468  0.00  0.00    +0.058 C 
ATOM     32  C   UNL     1      34.542 -16.581 -23.891  0.00  0.00    +0.150 C 
ATOM     33  C   UNL     1      33.548 -15.857 -25.970  0.00  0.00    +0.014 C 
ATOM     34  C   UNL     1      34.100 -16.866 -25.183  0.00  0.00    +0.031 C 
ENDBRANCH  24  29
ENDBRANCH  23  24
ENDBRANCH   5  23
TORSDOF 5
ENDMDL
MODEL 6
REMARK VINA RESULT:     -10.5      9.548     13.516
REMARK  Name = 11626560
REMARK  5 active torsions:
REMARK  status: ('A' for Active; 'I' for Inactive)
REMARK    1  A    between atoms: C_2  and  C_10
REMARK    2  A    between atoms: C_5  and  O_23
REMARK    3  A    between atoms: N_7  and  C_13
REMARK    4  A    between atoms: O_23  and  C_24
REMARK    5  A    between atoms: C_24  and  C_29
REMARK                            x       y       z     vdW  Elec       q    Type
REMARK                         _______ _______ _______ _____ _____    ______ ____
ROOT
ATOM      1  N   UNL     1      31.701 -11.209 -19.858  0.00  0.00    -0.226 NA
ATOM      2  C   UNL     1      31.926  -9.400 -21.449  0.00  0.00    +0.025 C 
ATOM      3  C   UNL     1      32.183 -10.319 -22.463  0.00  0.00    +0.041 C 
ATOM      4  C   UNL     1      31.693  -9.894 -20.175  0.00  0.00    +0.101 C 
ATOM      5  C   UNL     1      32.200 -11.679 -22.176  0.00  0.00    +0.170 C 
ATOM      6  C   UNL     1      31.954 -12.069 -20.869  0.00  0.00    +0.160 C 
ATOM      7  N   UNL     1      31.968 -13.455 -20.575  0.00  0.00    -0.340 N 
ATOM      8  H   UNL     1      31.798 -13.766 -19.657  0.00  0.00    +0.144 HD
ATOM      9  H   UNL     1      32.149 -14.108 -21.290  0.00  0.00    +0.144 HD
ENDROOT
BRANCH   2  13
ATOM     10  N   UNL     1      31.751  -6.096 -22.776  0.00  0.00    -0.212 N 
ATOM     11  N   UNL     1      31.972  -5.721 -21.507  0.00  0.00    -0.176 NA
ATOM     12  C   UNL     1      31.699  -7.444 -22.956  0.00  0.00    +0.086 C 
ATOM     13  C   UNL     1      31.903  -7.994 -21.714  0.00  0.00    +0.039 C 
ATOM     14  C   UNL     1      32.065  -6.885 -20.861  0.00  0.00    +0.119 C 
BRANCH  10  16
ATOM     15  N   UNL     1      32.271  -2.567 -25.151  0.00  0.00    +0.384 N 
ATOM     16  C   UNL     1      31.588  -5.075 -23.816  0.00  0.00    +0.092 C 
ATOM     17  C   UNL     1      32.831  -4.936 -24.710  0.00  0.00    -0.002 C 
ATOM     18  C   UNL     1      31.178  -3.707 -23.247  0.00  0.00    -0.002 C 
ATOM     19  C   UNL     1      32.626  -3.847 -25.763  0.00  0.00    -0.080 C 
ATOM     20  C   UNL     1      31.043  -2.671 -24.363  0.00  0.00    -0.080 C 
ATOM     21  H   UNL     1      32.134  -1.874 -25.887  0.00  0.00    -0.085 HD
ATOM     22  H   UNL     1      33.029  -2.289 -24.527  0.00  0.00    -0.085 HD
ENDBRANCH  10  16
ENDBRANCH   2  13
BRANCH   5  23
ATOM     23  O   UNL     1      32.450 -12.577 -23.165  0.00  0.00    -0.472 OA
BRANCH  23  24
ATOM     24  C   UNL     1      33.816 -12.791 -23.522  0.00  0.00    +0.190 C 
ATOM     25  C   UNL     1      34.171 -11.915 -24.718  0.00  0.00    +0.052 C 
BRANCH  24  29
ATOM     26 CL   UNL     1      32.885 -13.802 -26.241  0.00  0.00    -0.080 Cl
ATOM     27 CL   UNL     1      35.138 -14.441 -21.320  0.00  0.00    -0.082 Cl
ATOM     28  F   UNL     1      33.451 -16.673 -26.466  0.00  0.00    -0.203 F 
ATOM     29  C   UNL     1      34.031 -14.258 -23.809  0.00  0.00    +0.041 C 
ATOM     30  C   UNL     1      33.629 -14.784 -25.030  0.00  0.00    +0.085 C 
ATOM     31  C   UNL     1      34.629 -15.064 -22.848  0.00  0.00    +0.058 C 
ATOM     32  C   UNL     1      33.829 -16.139 -25.296  0.00  0.00    +0.150 C 
ATOM     33  C   UNL     1      34.827 -16.419 -23.114  0.00  0.00    +0.014 C 
ATOM     34  C   UNL     1      34.427 -16.956 -24.337  0.00  0.00    +0.031 C 
ENDBRANCH  24  29
ENDBRANCH  23  24
ENDBRANCH   5  23
TORSDOF 5
ENDMDL
MODEL 7
REMARK VINA RESULT:     -10.3      9.905     14.521
REMARK  Name = 11626560
REMARK  5 active torsions:
REMARK  status: ('A' for Active; 'I' for Inactive)
REMARK    1  A    between atoms: C_2  and  C_10
REMARK    2  A    between atoms: C_5  and  O_23
REMARK    3  A    between atoms: N_7  and  C_13
REMARK    4  A    between atoms: O_23  and  C_24
REMARK    5  A    between atoms: C_24  and  C_29
REMARK                            x       y       z     vdW  Elec       q    Type
REMARK                         _______ _______ _______ _____ _____    ______ ____
ROOT
ATOM      1  N   UNL     1      31.828 -11.876 -19.981  0.00  0.00    -0.226 NA
ATOM      2  C   UNL     1      32.584 -12.213 -22.256  0.00  0.00    +0.025 C 
ATOM      3  C   UNL     1      32.392 -10.860 -22.524  0.00  0.00    +0.041 C 
ATOM      4  C   UNL     1      32.288 -12.665 -20.978  0.00  0.00    +0.101 C 
ATOM      5  C   UNL     1      31.919 -10.017 -21.525  0.00  0.00    +0.170 C 
ATOM      6  C   UNL     1      31.654 -10.569 -20.282  0.00  0.00    +0.160 C 
ATOM      7  N   UNL     1      31.175  -9.711 -19.261  0.00  0.00    -0.340 N 
ATOM      8  H   UNL     1      30.977 -10.071 -18.367  0.00  0.00    +0.144 HD
ATOM      9  H   UNL     1      31.039  -8.753 -19.447  0.00  0.00    +0.144 HD
ENDROOT
BRANCH   2  13
ATOM     10  N   UNL     1      33.906 -14.874 -24.224  0.00  0.00    -0.212 N 
ATOM     11  N   UNL     1      33.685 -14.042 -25.253  0.00  0.00    -0.176 NA
ATOM     12  C   UNL     1      33.554 -14.365 -23.012  0.00  0.00    +0.086 C 
ATOM     13  C   UNL     1      33.069 -13.105 -23.263  0.00  0.00    +0.039 C 
ATOM     14  C   UNL     1      33.174 -12.960 -24.660  0.00  0.00    +0.119 C 
BRANCH  10  16
ATOM     15  N   UNL     1      34.542 -19.112 -24.229  0.00  0.00    +0.384 N 
ATOM     16  C   UNL     1      34.478 -16.201 -24.475  0.00  0.00    +0.092 C 
ATOM     17  C   UNL     1      33.535 -17.111 -25.278  0.00  0.00    -0.002 C 
ATOM     18  C   UNL     1      34.936 -16.903 -23.187  0.00  0.00    -0.002 C 
ATOM     19  C   UNL     1      34.160 -18.488 -25.496  0.00  0.00    -0.080 C 
ATOM     20  C   UNL     1      35.503 -18.290 -23.494  0.00  0.00    -0.080 C 
ATOM     21  H   UNL     1      34.963 -20.021 -24.420  0.00  0.00    -0.085 HD
ATOM     22  H   UNL     1      33.704 -19.213 -23.657  0.00  0.00    -0.085 HD
ENDBRANCH  10  16
ENDBRANCH   2  13
BRANCH   5  23
ATOM     23  O   UNL     1      31.733  -8.697 -21.785  0.00  0.00    -0.472 OA
BRANCH  23  24
ATOM     24  C   UNL     1      32.841  -7.824 -21.560  0.00  0.00    +0.190 C 
ATOM     25  C   UNL     1      32.644  -7.085 -20.241  0.00  0.00    +0.052 C 
BRANCH  24  29
ATOM     26 CL   UNL     1      30.910  -5.469 -21.633  0.00  0.00    -0.080 Cl
ATOM     27 CL   UNL     1      35.013  -8.462 -23.607  0.00  0.00    -0.082 Cl
ATOM     28  F   UNL     1      31.440  -3.840 -24.017  0.00  0.00    -0.203 F 
ATOM     29  C   UNL     1      32.973  -6.876 -22.728  0.00  0.00    +0.041 C 
ATOM     30  C   UNL     1      32.123  -5.781 -22.822  0.00  0.00    +0.085 C 
ATOM     31  C   UNL     1      33.943  -7.110 -23.695  0.00  0.00    +0.058 C 
ATOM     32  C   UNL     1      32.246  -4.905 -23.901  0.00  0.00    +0.150 C 
ATOM     33  C   UNL     1      34.065  -6.234 -24.773  0.00  0.00    +0.014 C 
ATOM     34  C   UNL     1      33.217  -5.132 -24.877  0.00  0.00    +0.031 C 
ENDBRANCH  24  29
ENDBRANCH  23  24
ENDBRANCH   5  23
TORSDOF 5
ENDMDL
MODEL 8
REMARK VINA RESULT:     -10.3      1.649      2.566
REMARK  Name = 11626560
REMARK  5 active torsions:
REMARK  status: ('A' for Active; 'I' for Inactive)
REMARK    1  A    between atoms: C_2  and  C_10
REMARK    2  A    between atoms: C_5  and  O_23
REMARK    3  A    between atoms: N_7  and  C_13
REMARK    4  A    between atoms: O_23  and  C_24
REMARK    5  A    between atoms: C_24  and  C_29
REMARK                            x       y       z     vdW  Elec       q    Type
REMARK                         _______ _______ _______ _____ _____    ______ ____
ROOT
ATOM      1  N   UNL     1      32.199 -23.102 -17.806  0.00  0.00    -0.226 NA
ATOM      2  C   UNL     1      34.369 -22.223 -18.419  0.00  0.00    +0.025 C 
ATOM      3  C   UNL     1      34.898 -22.680 -17.215  0.00  0.00    +0.041 C 
ATOM      4  C   UNL     1      33.025 -22.458 -18.662  0.00  0.00    +0.101 C 
ATOM      5  C   UNL     1      34.082 -23.345 -16.308  0.00  0.00    +0.170 C 
ATOM      6  C   UNL     1      32.751 -23.530 -16.648  0.00  0.00    +0.160 C 
ATOM      7  N   UNL     1      31.917 -24.210 -15.726  0.00  0.00    -0.340 N 
ATOM      8  H   UNL     1      30.967 -24.357 -15.937  0.00  0.00    +0.144 HD
ATOM      9  H   UNL     1      32.288 -24.535 -14.874  0.00  0.00    +0.144 HD
ENDROOT
BRANCH   2  13
ATOM     10  N   UNL     1      35.795 -20.205 -20.988  0.00  0.00    -0.212 N 
ATOM     11  N   UNL     1      36.947 -20.779 -20.612  0.00  0.00    -0.176 NA
ATOM     12  C   UNL     1      34.709 -20.620 -20.279  0.00  0.00    +0.086 C 
ATOM     13  C   UNL     1      35.185 -21.535 -19.371  0.00  0.00    +0.039 C 
ATOM     14  C   UNL     1      36.569 -21.592 -19.623  0.00  0.00    +0.119 C 
BRANCH  10  16
ATOM     15  N   UNL     1      34.566 -17.158 -23.740  0.00  0.00    +0.384 N 
ATOM     16  C   UNL     1      35.795 -19.223 -22.078  0.00  0.00    +0.092 C 
ATOM     17  C   UNL     1      35.594 -17.784 -21.579  0.00  0.00    -0.002 C 
ATOM     18  C   UNL     1      34.777 -19.558 -23.180  0.00  0.00    -0.002 C 
ATOM     19  C   UNL     1      35.579 -16.799 -22.747  0.00  0.00    -0.080 C 
ATOM     20  C   UNL     1      34.796 -18.498 -24.281  0.00  0.00    -0.080 C 
ATOM     21  H   UNL     1      34.596 -16.483 -24.505  0.00  0.00    -0.085 HD
ATOM     22  H   UNL     1      33.653 -17.150 -23.285  0.00  0.00    -0.085 HD
ENDBRANCH  10  16
ENDBRANCH   2  13
BRANCH   5  23
ATOM     23  O   UNL     1      34.597 -23.792 -15.133  0.00  0.00    -0.472 OA
BRANCH  23  24
ATOM     24  C   UNL     1      35.813 -24.539 -15.196  0.00  0.00    +0.190 C 
ATOM     25  C   UNL     1      35.507 -25.971 -15.619  0.00  0.00    +0.052 C 
BRANCH  24  29
ATOM     26 CL   UNL     1      34.017 -24.378 -12.740  0.00  0.00    -0.080 Cl
ATOM     27 CL   UNL     1      38.865 -24.590 -15.220  0.00  0.00    -0.082 Cl
ATOM     28  F   UNL     1      35.674 -24.276 -10.319  0.00  0.00    -0.203 F 
ATOM     29  C   UNL     1      36.504 -24.478 -13.854  0.00  0.00    +0.041 C 
ATOM     30  C   UNL     1      35.744 -24.403 -12.694  0.00  0.00    +0.085 C 
ATOM     31  C   UNL     1      37.892 -24.499 -13.797  0.00  0.00    +0.058 C 
ATOM     32  C   UNL     1      36.383 -24.349 -11.455  0.00  0.00    +0.150 C 
ATOM     33  C   UNL     1      38.530 -24.443 -12.558  0.00  0.00    +0.014 C 
ATOM     34  C   UNL     1      37.776 -24.367 -11.387  0.00  0.00    +0.031 C 
ENDBRANCH  24  29
ENDBRANCH  23  24
ENDBRANCH   5  23
TORSDOF 5
ENDMDL
MODEL 9
REMARK VINA RESULT:     -10.3      1.588      2.052
REMARK  Name = 11626560
REMARK  5 active torsions:
REMARK  status: ('A' for Active; 'I' for Inactive)
REMARK    1  A    between atoms: C_2  and  C_10
REMARK    2  A    between atoms: C_5  and  O_23
REMARK    3  A    between atoms: N_7  and  C_13
REMARK    4  A    between atoms: O_23  and  C_24
REMARK    5  A    between atoms: C_24  and  C_29
REMARK                            x       y       z     vdW  Elec       q    Type
REMARK                         _______ _______ _______ _____ _____    ______ ____
ROOT
ATOM      1  N   UNL     1      31.809 -23.013 -17.552  0.00  0.00    -0.226 NA
ATOM      2  C   UNL     1      34.068 -22.401 -18.168  0.00  0.00    +0.025 C 
ATOM      3  C   UNL     1      34.561 -23.107 -17.074  0.00  0.00    +0.041 C 
ATOM      4  C   UNL     1      32.694 -22.386 -18.359  0.00  0.00    +0.101 C 
ATOM      5  C   UNL     1      33.683 -23.764 -16.221  0.00  0.00    +0.170 C 
ATOM      6  C   UNL     1      32.327 -23.687 -16.501  0.00  0.00    +0.160 C 
ATOM      7  N   UNL     1      31.430 -24.359 -15.634  0.00  0.00    -0.340 N 
ATOM      8  H   UNL     1      30.461 -24.324 -15.803  0.00  0.00    +0.144 HD
ATOM      9  H   UNL     1      31.776 -24.860 -14.859  0.00  0.00    +0.144 HD
ENDROOT
BRANCH   2  13
ATOM     10  N   UNL     1      35.663 -20.433 -20.675  0.00  0.00    -0.212 N 
ATOM     11  N   UNL     1      36.795 -20.922 -20.147  0.00  0.00    -0.176 NA
ATOM     12  C   UNL     1      34.528 -20.873 -20.065  0.00  0.00    +0.086 C 
ATOM     13  C   UNL     1      34.947 -21.715 -19.063  0.00  0.00    +0.039 C 
ATOM     14  C   UNL     1      36.352 -21.707 -19.162  0.00  0.00    +0.119 C 
BRANCH  10  16
ATOM     15  N   UNL     1      34.685 -17.387 -23.528  0.00  0.00    +0.384 N 
ATOM     16  C   UNL     1      35.734 -19.506 -21.809  0.00  0.00    +0.092 C 
ATOM     17  C   UNL     1      35.716 -18.032 -21.373  0.00  0.00    -0.002 C 
ATOM     18  C   UNL     1      34.643 -19.769 -22.860  0.00  0.00    -0.002 C 
ATOM     19  C   UNL     1      35.768 -17.104 -22.586  0.00  0.00    -0.080 C 
ATOM     20  C   UNL     1      34.741 -18.767 -24.011  0.00  0.00    -0.080 C 
ATOM     21  H   UNL     1      34.762 -16.755 -24.324  0.00  0.00    -0.085 HD
ATOM     22  H   UNL     1      33.797 -17.255 -23.044  0.00  0.00    -0.085 HD
ENDBRANCH  10  16
ENDBRANCH   2  13
BRANCH   5  23
ATOM     23  O   UNL     1      34.163 -24.454 -15.154  0.00  0.00    -0.472 OA
BRANCH  23  24
ATOM     24  C   UNL     1      35.569 -24.703 -15.117  0.00  0.00    +0.190 C 
ATOM     25  C   UNL     1      35.843 -26.129 -15.581  0.00  0.00    +0.052 C 
BRANCH  24  29
ATOM     26 CL   UNL     1      38.590 -24.472 -14.792  0.00  0.00    -0.080 Cl
ATOM     27 CL   UNL     1      33.477 -24.480 -12.906  0.00  0.00    -0.082 Cl
ATOM     28  F   UNL     1      39.238 -23.988 -11.971  0.00  0.00    -0.203 F 
ATOM     29  C   UNL     1      36.083 -24.452 -13.719  0.00  0.00    +0.041 C 
ATOM     30  C   UNL     1      37.450 -24.337 -13.501  0.00  0.00    +0.085 C 
ATOM     31  C   UNL     1      35.182 -24.340 -12.668  0.00  0.00    +0.058 C 
ATOM     32  C   UNL     1      37.924 -24.104 -12.210  0.00  0.00    +0.150 C 
ATOM     33  C   UNL     1      35.656 -24.108 -11.377  0.00  0.00    +0.014 C 
ATOM     34  C   UNL     1      37.027 -23.991 -11.148  0.00  0.00    +0.031 C 
ENDBRANCH  24  29
ENDBRANCH  23  24
ENDBRANCH   5  23
TORSDOF 5
ENDMDL
