MODEL 1
REMARK VINA RESULT:     -12.2      0.000      0.000
REMARK  Name = 204109
REMARK  5 active torsions:
REMARK  status: ('A' for Active; 'I' for Inactive)
REMARK    1  A    between atoms: C_1  and  C_20
REMARK    2  A    between atoms: C_9  and  O_11
REMARK    3  A    between atoms: O_11  and  C_12
REMARK    4  A    between atoms: C_12  and  C_14
REMARK    5  A    between atoms: C_20  and  C_25
REMARK                            x       y       z     vdW  Elec       q    Type
REMARK                         _______ _______ _______ _____ _____    ______ ____
ROOT
ATOM      1  C   UNL     1      35.933 -19.292 -21.649  0.00  0.00    -0.021 C 
ATOM      2  C   UNL     1      34.537 -20.786 -20.328  0.00  0.00    -0.000 C 
ATOM      3  C   UNL     1      34.675 -19.799 -21.318  0.00  0.00    -0.004 C 
ATOM      4  C   UNL     1      35.691 -21.265 -19.664  0.00  0.00    +0.003 C 
ATOM      5  C   UNL     1      37.067 -19.764 -20.995  0.00  0.00    -0.004 C 
ATOM      6  C   UNL     1      36.949 -20.745 -20.009  0.00  0.00    -0.000 C 
ATOM      7  C   UNL     1      35.553 -22.252 -18.675  0.00  0.00    +0.037 C 
ATOM      8  C   UNL     1      33.279 -21.307 -19.983  0.00  0.00    +0.003 C 
ATOM      9  C   UNL     1      34.295 -22.758 -18.344  0.00  0.00    +0.139 C 
ATOM     10  C   UNL     1      33.161 -22.286 -18.998  0.00  0.00    +0.037 C 
ENDROOT
BRANCH   9  11
ATOM     11  O   UNL     1      34.177 -23.715 -17.383  0.00  0.00    -0.471 OA
BRANCH  11  12
ATOM     12  C   UNL     1      34.047 -23.269 -16.035  0.00  0.00    +0.234 C 
BRANCH  12  14
ATOM     13  F   UNL     1      34.118 -24.811 -13.666  0.00  0.00    -0.204 F 
ATOM     14  C   UNL     1      32.819 -23.812 -15.385  0.00  0.00    +0.049 C 
ATOM     15  C   UNL     1      32.921 -24.566 -14.217  0.00  0.00    +0.140 C 
ATOM     16  C   UNL     1      31.568 -23.564 -15.949  0.00  0.00    +0.002 C 
ATOM     17  C   UNL     1      31.770 -25.072 -13.611  0.00  0.00    +0.029 C 
ATOM     18  C   UNL     1      30.417 -24.071 -15.345  0.00  0.00    -0.000 C 
ATOM     19  C   UNL     1      30.518 -24.824 -14.175  0.00  0.00    +0.002 C 
ENDBRANCH  12  14
ENDBRANCH  11  12
ENDBRANCH   9  11
BRANCH   1  20
ATOM     20  C   UNL     1      36.061 -18.245 -22.702  0.00  0.00    +0.047 C 
BRANCH  20  25
ATOM     21  S   UNL     1      34.152 -18.314 -24.697  0.00  0.00    -0.048 S 
ATOM     22  O   UNL     1      35.190 -15.382 -22.411  0.00  0.00    -0.274 OA
ATOM     23  O   UNL     1      33.615 -16.568 -26.587  0.00  0.00    -0.263 OA
ATOM     24  N   UNL     1      34.386 -15.775 -24.543  0.00  0.00    -0.246 N 
ATOM     25  C   UNL     1      34.711 -17.650 -23.097  0.00  0.00    +0.137 C 
ATOM     26  C   UNL     1      34.801 -16.152 -23.282  0.00  0.00    +0.239 C 
ATOM     27  C   UNL     1      34.002 -16.737 -25.440  0.00  0.00    +0.279 C 
ATOM     28  H   UNL     1      34.368 -14.824 -24.796  0.00  0.00    +0.158 HD
ENDBRANCH  20  25
ENDBRANCH   1  20
TORSDOF 5
ENDMDL
MODEL 2
REMARK VINA RESULT:     -12.2      4.589      9.791
REMARK  Name = 204109
REMARK  5 active torsions:
REMARK  status: ('A' for Active; 'I' for Inactive)
REMARK    1  A    between atoms: C_1  and  C_20
REMARK    2  A    between atoms: C_9  and  O_11
REMARK    3  A    between atoms: O_11  and  C_12
REMARK    4  A    between atoms: C_12  and  C_14
REMARK    5  A    between atoms: C_20  and  C_25
REMARK                            x       y       z     vdW  Elec       q    Type
REMARK                         _______ _______ _______ _____ _____    ______ ____
ROOT
ATOM      1  C   UNL     1      33.811 -22.945 -17.946  0.00  0.00    -0.021 C 
ATOM      2  C   UNL     1      33.797 -21.358 -19.791  0.00  0.00    -0.000 C 
ATOM      3  C   UNL     1      33.115 -22.206 -18.903  0.00  0.00    -0.004 C 
ATOM      4  C   UNL     1      35.206 -21.260 -19.707  0.00  0.00    +0.003 C 
ATOM      5  C   UNL     1      35.197 -22.848 -17.865  0.00  0.00    -0.004 C 
ATOM      6  C   UNL     1      35.892 -22.010 -18.738  0.00  0.00    -0.000 C 
ATOM      7  C   UNL     1      35.889 -20.412 -20.594  0.00  0.00    +0.037 C 
ATOM      8  C   UNL     1      33.112 -20.607 -20.760  0.00  0.00    +0.003 C 
ATOM      9  C   UNL     1      35.192 -19.673 -21.551  0.00  0.00    +0.139 C 
ATOM     10  C   UNL     1      33.806 -19.770 -21.633  0.00  0.00    +0.037 C 
ENDROOT
BRANCH   9  11
ATOM     11  O   UNL     1      35.867 -18.854 -22.405  0.00  0.00    -0.471 OA
BRANCH  11  12
ATOM     12  C   UNL     1      35.727 -17.449 -22.205  0.00  0.00    +0.234 C 
BRANCH  12  14
ATOM     13  F   UNL     1      34.857 -14.762 -22.109  0.00  0.00    -0.204 F 
ATOM     14  C   UNL     1      34.976 -16.802 -23.319  0.00  0.00    +0.049 C 
ATOM     15  C   UNL     1      34.574 -15.471 -23.211  0.00  0.00    +0.140 C 
ATOM     16  C   UNL     1      34.675 -17.530 -24.469  0.00  0.00    +0.002 C 
ATOM     17  C   UNL     1      33.871 -14.867 -24.255  0.00  0.00    +0.029 C 
ATOM     18  C   UNL     1      33.972 -16.927 -25.513  0.00  0.00    -0.000 C 
ATOM     19  C   UNL     1      33.571 -15.596 -25.406  0.00  0.00    +0.002 C 
ENDBRANCH  12  14
ENDBRANCH  11  12
ENDBRANCH   9  11
BRANCH   1  20
ATOM     20  C   UNL     1      33.070 -23.840 -17.012  0.00  0.00    +0.047 C 
BRANCH  20  25
ATOM     21  S   UNL     1      32.805 -23.709 -14.266  0.00  0.00    -0.048 S 
ATOM     22  O   UNL     1      30.211 -22.912 -17.011  0.00  0.00    -0.274 OA
ATOM     23  O   UNL     1      30.832 -24.494 -12.717  0.00  0.00    -0.263 OA
ATOM     24  N   UNL     1      30.317 -23.714 -14.845  0.00  0.00    -0.246 N 
ATOM     25  C   UNL     1      32.356 -23.064 -15.907  0.00  0.00    +0.137 C 
ATOM     26  C   UNL     1      30.855 -23.211 -16.011  0.00  0.00    +0.239 C 
ATOM     27  C   UNL     1      31.149 -24.039 -13.806  0.00  0.00    +0.279 C 
ATOM     28  H   UNL     1      29.345 -23.840 -14.760  0.00  0.00    +0.158 HD
ENDBRANCH  20  25
ENDBRANCH   1  20
TORSDOF 5
ENDMDL
MODEL 3
REMARK VINA RESULT:     -12.2      4.593      9.931
REMARK  Name = 204109
REMARK  5 active torsions:
REMARK  status: ('A' for Active; 'I' for Inactive)
REMARK    1  A    between atoms: C_1  and  C_20
REMARK    2  A    between atoms: C_9  and  O_11
REMARK    3  A    between atoms: O_11  and  C_12
REMARK    4  A    between atoms: C_12  and  C_14
REMARK    5  A    between atoms: C_20  and  C_25
REMARK                            x       y       z     vdW  Elec       q    Type
REMARK                         _______ _______ _______ _____ _____    ______ ____
ROOT
ATOM      1  C   UNL     1      33.833 -22.555 -18.710  0.00  0.00    -0.021 C 
ATOM      2  C   UNL     1      35.432 -21.109 -19.838  0.00  0.00    -0.000 C 
ATOM      3  C   UNL     1      35.147 -22.140 -18.928  0.00  0.00    -0.004 C 
ATOM      4  C   UNL     1      34.369 -20.491 -20.538  0.00  0.00    +0.003 C 
ATOM      5  C   UNL     1      32.788 -21.946 -19.399  0.00  0.00    -0.004 C 
ATOM      6  C   UNL     1      33.052 -20.921 -20.308  0.00  0.00    -0.000 C 
ATOM      7  C   UNL     1      34.654 -19.461 -21.449  0.00  0.00    +0.037 C 
ATOM      8  C   UNL     1      36.749 -20.679 -20.069  0.00  0.00    +0.003 C 
ATOM      9  C   UNL     1      35.969 -19.046 -21.666  0.00  0.00    +0.139 C 
ATOM     10  C   UNL     1      37.014 -19.654 -20.977  0.00  0.00    +0.037 C 
ENDROOT
BRANCH   9  11
ATOM     11  O   UNL     1      36.230 -18.046 -22.552  0.00  0.00    -0.471 OA
BRANCH  11  12
ATOM     12  C   UNL     1      35.334 -17.903 -23.652  0.00  0.00    +0.234 C 
BRANCH  12  14
ATOM     13  F   UNL     1      33.823 -16.982 -25.857  0.00  0.00    -0.204 F 
ATOM     14  C   UNL     1      34.738 -16.537 -23.711  0.00  0.00    +0.049 C 
ATOM     15  C   UNL     1      34.003 -16.142 -24.828  0.00  0.00    +0.140 C 
ATOM     16  C   UNL     1      34.919 -15.654 -22.647  0.00  0.00    +0.002 C 
ATOM     17  C   UNL     1      33.446 -14.863 -24.880  0.00  0.00    +0.029 C 
ATOM     18  C   UNL     1      34.364 -14.375 -22.699  0.00  0.00    -0.000 C 
ATOM     19  C   UNL     1      33.627 -13.980 -23.815  0.00  0.00    +0.002 C 
ENDBRANCH  12  14
ENDBRANCH  11  12
ENDBRANCH   9  11
BRANCH   1  20
ATOM     20  C   UNL     1      33.548 -23.651 -17.740  0.00  0.00    +0.047 C 
BRANCH  20  25
ATOM     21  S   UNL     1      33.855 -23.981 -15.016  0.00  0.00    -0.048 S 
ATOM     22  O   UNL     1      30.709 -22.979 -17.015  0.00  0.00    -0.274 OA
ATOM     23  O   UNL     1      32.289 -25.165 -13.267  0.00  0.00    -0.263 OA
ATOM     24  N   UNL     1      31.304 -24.103 -15.085  0.00  0.00    -0.246 N 
ATOM     25  C   UNL     1      33.042 -23.123 -16.399  0.00  0.00    +0.137 C 
ATOM     26  C   UNL     1      31.561 -23.378 -16.229  0.00  0.00    +0.239 C 
ATOM     27  C   UNL     1      32.349 -24.518 -14.302  0.00  0.00    +0.279 C 
ATOM     28  H   UNL     1      30.378 -24.322 -14.833  0.00  0.00    +0.158 HD
ENDBRANCH  20  25
ENDBRANCH   1  20
TORSDOF 5
ENDMDL
MODEL 4
REMARK VINA RESULT:     -12.0      1.995      2.863
REMARK  Name = 204109
REMARK  5 active torsions:
REMARK  status: ('A' for Active; 'I' for Inactive)
REMARK    1  A    between atoms: C_1  and  C_20
REMARK    2  A    between atoms: C_9  and  O_11
REMARK    3  A    between atoms: O_11  and  C_12
REMARK    4  A    between atoms: C_12  and  C_14
REMARK    5  A    between atoms: C_20  and  C_25
REMARK                            x       y       z     vdW  Elec       q    Type
REMARK                         _______ _______ _______ _____ _____    ______ ____
ROOT
ATOM      1  C   UNL     1      35.953 -19.394 -21.657  0.00  0.00    -0.021 C 
ATOM      2  C   UNL     1      34.588 -20.854 -20.270  0.00  0.00    -0.000 C 
ATOM      3  C   UNL     1      34.707 -19.914 -21.306  0.00  0.00    -0.004 C 
ATOM      4  C   UNL     1      35.751 -21.274 -19.581  0.00  0.00    +0.003 C 
ATOM      5  C   UNL     1      37.096 -19.806 -20.979  0.00  0.00    -0.004 C 
ATOM      6  C   UNL     1      36.997 -20.741 -19.947  0.00  0.00    -0.000 C 
ATOM      7  C   UNL     1      35.632 -22.215 -18.545  0.00  0.00    +0.037 C 
ATOM      8  C   UNL     1      33.342 -21.388 -19.904  0.00  0.00    +0.003 C 
ATOM      9  C   UNL     1      34.385 -22.734 -18.194  0.00  0.00    +0.139 C 
ATOM     10  C   UNL     1      33.243 -22.321 -18.873  0.00  0.00    +0.037 C 
ENDROOT
BRANCH   9  11
ATOM     11  O   UNL     1      34.286 -23.646 -17.188  0.00  0.00    -0.471 OA
BRANCH  11  12
ATOM     12  C   UNL     1      34.778 -23.257 -15.907  0.00  0.00    +0.234 C 
BRANCH  12  14
ATOM     13  F   UNL     1      37.416 -22.276 -15.647  0.00  0.00    -0.204 F 
ATOM     14  C   UNL     1      35.919 -24.110 -15.466  0.00  0.00    +0.049 C 
ATOM     15  C   UNL     1      37.198 -23.566 -15.357  0.00  0.00    +0.140 C 
ATOM     16  C   UNL     1      35.704 -25.454 -15.163  0.00  0.00    +0.002 C 
ATOM     17  C   UNL     1      38.264 -24.367 -14.944  0.00  0.00    +0.029 C 
ATOM     18  C   UNL     1      36.769 -26.256 -14.751  0.00  0.00    -0.000 C 
ATOM     19  C   UNL     1      38.049 -25.712 -14.641  0.00  0.00    +0.002 C 
ENDBRANCH  12  14
ENDBRANCH  11  12
ENDBRANCH   9  11
BRANCH   1  20
ATOM     20  C   UNL     1      36.061 -18.395 -22.760  0.00  0.00    +0.047 C 
BRANCH  20  25
ATOM     21  S   UNL     1      34.110 -18.411 -24.714  0.00  0.00    -0.048 S 
ATOM     22  O   UNL     1      35.235 -15.526 -22.409  0.00  0.00    -0.274 OA
ATOM     23  O   UNL     1      33.556 -16.631 -26.567  0.00  0.00    -0.263 OA
ATOM     24  N   UNL     1      34.381 -15.878 -24.529  0.00  0.00    -0.246 N 
ATOM     25  C   UNL     1      34.711 -17.777 -23.118  0.00  0.00    +0.137 C 
ATOM     26  C   UNL     1      34.817 -16.278 -23.283  0.00  0.00    +0.239 C 
ATOM     27  C   UNL     1      33.965 -16.821 -25.432  0.00  0.00    +0.279 C 
ATOM     28  H   UNL     1      34.370 -14.923 -24.769  0.00  0.00    +0.158 HD
ENDBRANCH  20  25
ENDBRANCH   1  20
TORSDOF 5
ENDMDL
MODEL 5
REMARK VINA RESULT:     -12.0      5.142     10.262
REMARK  Name = 204109
REMARK  5 active torsions:
REMARK  status: ('A' for Active; 'I' for Inactive)
REMARK    1  A    between atoms: C_1  and  C_20
REMARK    2  A    between atoms: C_9  and  O_11
REMARK    3  A    between atoms: O_11  and  C_12
REMARK    4  A    between atoms: C_12  and  C_14
REMARK    5  A    between atoms: C_20  and  C_25
REMARK                            x       y       z     vdW  Elec       q    Type
REMARK                         _______ _______ _______ _____ _____    ______ ____
ROOT
ATOM      1  C   UNL     1      34.186 -23.821 -16.060  0.00  0.00    -0.021 C 
ATOM      2  C   UNL     1      35.018 -22.522 -17.941  0.00  0.00    -0.000 C 
ATOM      3  C   UNL     1      35.249 -23.267 -16.774  0.00  0.00    -0.004 C 
ATOM      4  C   UNL     1      33.689 -22.335 -18.391  0.00  0.00    +0.003 C 
ATOM      5  C   UNL     1      32.880 -23.638 -16.502  0.00  0.00    -0.004 C 
ATOM      6  C   UNL     1      32.631 -22.901 -17.661  0.00  0.00    -0.000 C 
ATOM      7  C   UNL     1      33.458 -21.590 -19.558  0.00  0.00    +0.037 C 
ATOM      8  C   UNL     1      36.076 -21.957 -18.672  0.00  0.00    +0.003 C 
ATOM      9  C   UNL     1      34.521 -21.036 -20.272  0.00  0.00    +0.139 C 
ATOM     10  C   UNL     1      35.828 -21.219 -19.829  0.00  0.00    +0.037 C 
ENDROOT
BRANCH   9  11
ATOM     11  O   UNL     1      34.282 -20.316 -21.403  0.00  0.00    -0.471 OA
BRANCH  11  12
ATOM     12  C   UNL     1      35.249 -19.333 -21.765  0.00  0.00    +0.234 C 
BRANCH  12  14
ATOM     13  F   UNL     1      35.630 -16.564 -22.185  0.00  0.00    -0.204 F 
ATOM     14  C   UNL     1      34.899 -18.654 -23.045  0.00  0.00    +0.049 C 
ATOM     15  C   UNL     1      35.112 -17.283 -23.190  0.00  0.00    +0.140 C 
ATOM     16  C   UNL     1      34.359 -19.391 -24.097  0.00  0.00    +0.002 C 
ATOM     17  C   UNL     1      34.784 -16.649 -24.390  0.00  0.00    +0.029 C 
ATOM     18  C   UNL     1      34.030 -18.758 -25.297  0.00  0.00    -0.000 C 
ATOM     19  C   UNL     1      34.243 -17.388 -25.443  0.00  0.00    +0.002 C 
ENDBRANCH  12  14
ENDBRANCH  11  12
ENDBRANCH   9  11
BRANCH   1  20
ATOM     20  C   UNL     1      34.450 -24.610 -14.822  0.00  0.00    +0.047 C 
BRANCH  20  25
ATOM     21  S   UNL     1      37.153 -25.158 -14.682  0.00  0.00    -0.048 S 
ATOM     22  O   UNL     1      34.768 -23.913 -11.915  0.00  0.00    -0.274 OA
ATOM     23  O   UNL     1      38.530 -26.427 -12.837  0.00  0.00    -0.263 OA
ATOM     24  N   UNL     1      36.671 -25.200 -12.174  0.00  0.00    -0.246 N 
ATOM     25  C   UNL     1      35.732 -24.172 -14.116  0.00  0.00    +0.137 C 
ATOM     26  C   UNL     1      35.644 -24.396 -12.623  0.00  0.00    +0.239 C 
ATOM     27  C   UNL     1      37.573 -25.704 -13.073  0.00  0.00    +0.279 C 
ATOM     28  H   UNL     1      36.754 -25.410 -11.216  0.00  0.00    +0.158 HD
ENDBRANCH  20  25
ENDBRANCH   1  20
TORSDOF 5
ENDMDL
MODEL 6
REMARK VINA RESULT:     -11.8      1.100      1.985
REMARK  Name = 204109
REMARK  5 active torsions:
REMARK  status: ('A' for Active; 'I' for Inactive)
REMARK    1  A    between atoms: C_1  and  C_20
REMARK    2  A    between atoms: C_9  and  O_11
REMARK    3  A    between atoms: O_11  and  C_12
REMARK    4  A    between atoms: C_12  and  C_14
REMARK    5  A    between atoms: C_20  and  C_25
REMARK                            x       y       z     vdW  Elec       q    Type
REMARK                         _______ _______ _______ _____ _____    ______ ____
ROOT
ATOM      1  C   UNL     1      35.077 -20.261 -21.029  0.00  0.00    -0.021 C 
ATOM      2  C   UNL     1      35.395 -21.634 -19.045  0.00  0.00    -0.000 C 
ATOM      3  C   UNL     1      35.914 -20.809 -20.057  0.00  0.00    -0.004 C 
ATOM      4  C   UNL     1      34.007 -21.906 -19.020  0.00  0.00    +0.003 C 
ATOM      5  C   UNL     1      33.712 -20.529 -21.004  0.00  0.00    -0.004 C 
ATOM      6  C   UNL     1      33.178 -21.345 -20.005  0.00  0.00    -0.000 C 
ATOM      7  C   UNL     1      33.487 -22.730 -18.009  0.00  0.00    +0.037 C 
ATOM      8  C   UNL     1      36.223 -22.194 -18.059  0.00  0.00    +0.003 C 
ATOM      9  C   UNL     1      34.325 -23.279 -17.036  0.00  0.00    +0.139 C 
ATOM     10  C   UNL     1      35.690 -23.011 -17.062  0.00  0.00    +0.037 C 
ENDROOT
BRANCH   9  11
ATOM     11  O   UNL     1      33.807 -24.075 -16.061  0.00  0.00    -0.471 OA
BRANCH  11  12
ATOM     12  C   UNL     1      32.963 -23.453 -15.094  0.00  0.00    +0.234 C 
BRANCH  12  14
ATOM     13  F   UNL     1      31.978 -25.699 -13.690  0.00  0.00    -0.204 F 
ATOM     14  C   UNL     1      31.552 -23.920 -15.204  0.00  0.00    +0.049 C 
ATOM     15  C   UNL     1      31.126 -25.037 -14.485  0.00  0.00    +0.140 C 
ATOM     16  C   UNL     1      30.657 -23.239 -16.029  0.00  0.00    +0.002 C 
ATOM     17  C   UNL     1      29.804 -25.472 -14.590  0.00  0.00    +0.029 C 
ATOM     18  C   UNL     1      29.335 -23.674 -16.134  0.00  0.00    -0.000 C 
ATOM     19  C   UNL     1      28.909 -24.790 -15.414  0.00  0.00    +0.002 C 
ENDBRANCH  12  14
ENDBRANCH  11  12
ENDBRANCH   9  11
BRANCH   1  20
ATOM     20  C   UNL     1      35.646 -19.388 -22.096  0.00  0.00    +0.047 C 
BRANCH  20  25
ATOM     21  S   UNL     1      34.289 -18.785 -24.424  0.00  0.00    -0.048 S 
ATOM     22  O   UNL     1      35.460 -16.428 -21.600  0.00  0.00    -0.274 OA
ATOM     23  O   UNL     1      34.644 -16.816 -26.129  0.00  0.00    -0.263 OA
ATOM     24  N   UNL     1      35.096 -16.423 -23.883  0.00  0.00    -0.246 N 
ATOM     25  C   UNL     1      34.611 -18.423 -22.670  0.00  0.00    +0.137 C 
ATOM     26  C   UNL     1      35.105 -16.994 -22.628  0.00  0.00    +0.239 C 
ATOM     27  C   UNL     1      34.705 -17.172 -24.961  0.00  0.00    +0.279 C 
ATOM     28  H   UNL     1      35.370 -15.485 -24.004  0.00  0.00    +0.158 HD
ENDBRANCH  20  25
ENDBRANCH   1  20
TORSDOF 5
ENDMDL
MODEL 7
REMARK VINA RESULT:     -11.8      1.279      2.003
REMARK  Name = 204109
REMARK  5 active torsions:
REMARK  status: ('A' for Active; 'I' for Inactive)
REMARK    1  A    between atoms: C_1  and  C_20
REMARK    2  A    between atoms: C_9  and  O_11
REMARK    3  A    between atoms: O_11  and  C_12
REMARK    4  A    between atoms: C_12  and  C_14
REMARK    5  A    between atoms: C_20  and  C_25
REMARK                            x       y       z     vdW  Elec       q    Type
REMARK                         _______ _______ _______ _____ _____    ______ ____
ROOT
ATOM      1  C   UNL     1      35.953 -18.931 -21.824  0.00  0.00    -0.021 C 
ATOM      2  C   UNL     1      34.637 -20.552 -20.576  0.00  0.00    -0.000 C 
ATOM      3  C   UNL     1      34.725 -19.520 -21.524  0.00  0.00    -0.004 C 
ATOM      4  C   UNL     1      35.813 -20.993 -19.924  0.00  0.00    +0.003 C 
ATOM      5  C   UNL     1      37.109 -19.365 -21.183  0.00  0.00    -0.004 C 
ATOM      6  C   UNL     1      37.041 -20.391 -20.239  0.00  0.00    -0.000 C 
ATOM      7  C   UNL     1      35.726 -22.026 -18.976  0.00  0.00    +0.037 C 
ATOM      8  C   UNL     1      33.409 -21.156 -20.261  0.00  0.00    +0.003 C 
ATOM      9  C   UNL     1      34.496 -22.615 -18.675  0.00  0.00    +0.139 C 
ATOM     10  C   UNL     1      33.340 -22.180 -19.317  0.00  0.00    +0.037 C 
ENDROOT
BRANCH   9  11
ATOM     11  O   UNL     1      34.427 -23.616 -17.754  0.00  0.00    -0.471 OA
BRANCH  11  12
ATOM     12  C   UNL     1      33.648 -23.371 -16.586  0.00  0.00    +0.234 C 
BRANCH  12  14
ATOM     13  F   UNL     1      32.562 -24.493 -14.230  0.00  0.00    -0.204 F 
ATOM     14  C   UNL     1      34.442 -23.556 -15.338  0.00  0.00    +0.049 C 
ATOM     15  C   UNL     1      33.849 -24.117 -14.207  0.00  0.00    +0.140 C 
ATOM     16  C   UNL     1      35.781 -23.168 -15.303  0.00  0.00    +0.002 C 
ATOM     17  C   UNL     1      34.595 -24.290 -13.041  0.00  0.00    +0.029 C 
ATOM     18  C   UNL     1      36.527 -23.339 -14.136  0.00  0.00    -0.000 C 
ATOM     19  C   UNL     1      35.935 -23.901 -13.006  0.00  0.00    +0.002 C 
ENDBRANCH  12  14
ENDBRANCH  11  12
ENDBRANCH   9  11
BRANCH   1  20
ATOM     20  C   UNL     1      36.027 -17.835 -22.834  0.00  0.00    +0.047 C 
BRANCH  20  25
ATOM     21  S   UNL     1      34.147 -17.940 -24.853  0.00  0.00    -0.048 S 
ATOM     22  O   UNL     1      34.980 -15.045 -22.440  0.00  0.00    -0.274 OA
ATOM     23  O   UNL     1      33.522 -16.155 -26.679  0.00  0.00    -0.263 OA
ATOM     24  N   UNL     1      34.224 -15.400 -24.596  0.00  0.00    -0.246 N 
ATOM     25  C   UNL     1      34.648 -17.308 -23.222  0.00  0.00    +0.137 C 
ATOM     26  C   UNL     1      34.648 -15.801 -23.346  0.00  0.00    +0.239 C 
ATOM     27  C   UNL     1      33.908 -16.346 -25.535  0.00  0.00    +0.279 C 
ATOM     28  H   UNL     1      34.149 -14.443 -24.812  0.00  0.00    +0.158 HD
ENDBRANCH  20  25
ENDBRANCH   1  20
TORSDOF 5
ENDMDL
MODEL 8
REMARK VINA RESULT:     -11.4      4.482      7.335
REMARK  Name = 204109
REMARK  5 active torsions:
REMARK  status: ('A' for Active; 'I' for Inactive)
REMARK    1  A    between atoms: C_1  and  C_20
REMARK    2  A    between atoms: C_9  and  O_11
REMARK    3  A    between atoms: O_11  and  C_12
REMARK    4  A    between atoms: C_12  and  C_14
REMARK    5  A    between atoms: C_20  and  C_25
REMARK                            x       y       z     vdW  Elec       q    Type
REMARK                         _______ _______ _______ _____ _____    ______ ____
ROOT
ATOM      1  C   UNL     1      33.580 -13.067 -23.732  0.00  0.00    -0.021 C 
ATOM      2  C   UNL     1      34.080 -15.392 -24.245  0.00  0.00    -0.000 C 
ATOM      3  C   UNL     1      33.580 -14.137 -24.627  0.00  0.00    -0.004 C 
ATOM      4  C   UNL     1      34.588 -15.564 -22.936  0.00  0.00    +0.003 C 
ATOM      5  C   UNL     1      34.079 -13.237 -22.444  0.00  0.00    -0.004 C 
ATOM      6  C   UNL     1      34.581 -14.477 -22.047  0.00  0.00    -0.000 C 
ATOM      7  C   UNL     1      35.089 -16.819 -22.553  0.00  0.00    +0.037 C 
ATOM      8  C   UNL     1      34.087 -16.480 -25.133  0.00  0.00    +0.003 C 
ATOM      9  C   UNL     1      35.088 -17.889 -23.449  0.00  0.00    +0.139 C 
ATOM     10  C   UNL     1      34.589 -17.719 -24.736  0.00  0.00    +0.037 C 
ENDROOT
BRANCH   9  11
ATOM     11  O   UNL     1      35.578 -19.100 -23.064  0.00  0.00    -0.471 OA
BRANCH  11  12
ATOM     12  C   UNL     1      36.023 -19.221 -21.714  0.00  0.00    +0.234 C 
BRANCH  12  14
ATOM     13  F   UNL     1      37.136 -21.230 -20.066  0.00  0.00    -0.204 F 
ATOM     14  C   UNL     1      35.190 -20.184 -20.938  0.00  0.00    +0.049 C 
ATOM     15  C   UNL     1      35.800 -21.153 -20.142  0.00  0.00    +0.140 C 
ATOM     16  C   UNL     1      33.800 -20.114 -21.010  0.00  0.00    +0.002 C 
ATOM     17  C   UNL     1      35.018 -22.053 -19.416  0.00  0.00    +0.029 C 
ATOM     18  C   UNL     1      33.017 -21.014 -20.285  0.00  0.00    -0.000 C 
ATOM     19  C   UNL     1      33.626 -21.982 -19.488  0.00  0.00    +0.002 C 
ENDBRANCH  12  14
ENDBRANCH  11  12
ENDBRANCH   9  11
BRANCH   1  20
ATOM     20  C   UNL     1      33.044 -11.741 -24.155  0.00  0.00    +0.047 C 
BRANCH  20  25
ATOM     21  S   UNL     1      31.619  -9.999 -22.556  0.00  0.00    -0.048 S 
ATOM     22  O   UNL     1      35.139  -9.586 -24.085  0.00  0.00    -0.274 OA
ATOM     23  O   UNL     1      31.297  -7.397 -22.755  0.00  0.00    -0.263 OA
ATOM     24  N   UNL     1      33.311  -8.314 -23.465  0.00  0.00    -0.246 N 
ATOM     25  C   UNL     1      33.226 -10.671 -23.081  0.00  0.00    +0.137 C 
ATOM     26  C   UNL     1      34.015  -9.492 -23.605  0.00  0.00    +0.239 C 
ATOM     27  C   UNL     1      32.046  -8.345 -22.940  0.00  0.00    +0.279 C 
ATOM     28  H   UNL     1      33.712  -7.459 -23.742  0.00  0.00    +0.158 HD
ENDBRANCH  20  25
ENDBRANCH   1  20
TORSDOF 5
ENDMDL
MODEL 9
REMARK VINA RESULT:     -11.3      4.338      7.291
REMARK  Name = 204109
REMARK  5 active torsions:
REMARK  status: ('A' for Active; 'I' for Inactive)
REMARK    1  A    between atoms: C_1  and  C_20
REMARK    2  A    between atoms: C_9  and  O_11
REMARK    3  A    between atoms: O_11  and  C_12
REMARK    4  A    between atoms: C_12  and  C_14
REMARK    5  A    between atoms: C_20  and  C_25
REMARK                            x       y       z     vdW  Elec       q    Type
REMARK                         _______ _______ _______ _____ _____    ______ ____
ROOT
ATOM      1  C   UNL     1      33.494 -13.137 -24.449  0.00  0.00    -0.021 C 
ATOM      2  C   UNL     1      34.420 -14.966 -23.138  0.00  0.00    -0.000 C 
ATOM      3  C   UNL     1      34.061 -13.614 -23.267  0.00  0.00    -0.004 C 
ATOM      4  C   UNL     1      34.199 -15.847 -24.223  0.00  0.00    +0.003 C 
ATOM      5  C   UNL     1      33.277 -14.004 -25.516  0.00  0.00    -0.004 C 
ATOM      6  C   UNL     1      33.625 -15.351 -25.405  0.00  0.00    -0.000 C 
ATOM      7  C   UNL     1      34.556 -17.198 -24.094  0.00  0.00    +0.037 C 
ATOM      8  C   UNL     1      34.992 -15.463 -21.956  0.00  0.00    +0.003 C 
ATOM      9  C   UNL     1      35.124 -17.675 -22.912  0.00  0.00    +0.139 C 
ATOM     10  C   UNL     1      35.341 -16.809 -21.845  0.00  0.00    +0.037 C 
ENDROOT
BRANCH   9  11
ATOM     11  O   UNL     1      35.465 -18.989 -22.801  0.00  0.00    -0.471 OA
BRANCH  11  12
ATOM     12  C   UNL     1      36.077 -19.400 -21.580  0.00  0.00    +0.234 C 
BRANCH  12  14
ATOM     13  F   UNL     1      37.099 -21.406 -19.871  0.00  0.00    -0.204 F 
ATOM     14  C   UNL     1      35.202 -20.324 -20.804  0.00  0.00    +0.049 C 
ATOM     15  C   UNL     1      35.767 -21.294 -19.976  0.00  0.00    +0.140 C 
ATOM     16  C   UNL     1      33.815 -20.218 -20.906  0.00  0.00    +0.002 C 
ATOM     17  C   UNL     1      34.946 -22.157 -19.250  0.00  0.00    +0.029 C 
ATOM     18  C   UNL     1      32.993 -21.081 -20.181  0.00  0.00    -0.000 C 
ATOM     19  C   UNL     1      33.558 -22.050 -19.353  0.00  0.00    +0.002 C 
ENDBRANCH  12  14
ENDBRANCH  11  12
ENDBRANCH   9  11
BRANCH   1  20
ATOM     20  C   UNL     1      33.120 -11.699 -24.569  0.00  0.00    +0.047 C 
BRANCH  20  25
ATOM     21  S   UNL     1      31.905 -10.329 -22.502  0.00  0.00    -0.048 S 
ATOM     22  O   UNL     1      35.314  -9.679 -24.191  0.00  0.00    -0.274 OA
ATOM     23  O   UNL     1      31.693  -7.743 -22.079  0.00  0.00    -0.263 OA
ATOM     24  N   UNL     1      33.601  -8.531 -23.147  0.00  0.00    -0.246 N 
ATOM     25  C   UNL     1      33.434 -10.909 -23.300  0.00  0.00    +0.137 C 
ATOM     26  C   UNL     1      34.236  -9.665 -23.608  0.00  0.00    +0.239 C 
ATOM     27  C   UNL     1      32.379  -8.644 -22.537  0.00  0.00    +0.279 C 
ATOM     28  H   UNL     1      34.021  -7.647 -23.256  0.00  0.00    +0.158 HD
ENDBRANCH  20  25
ENDBRANCH   1  20
TORSDOF 5
ENDMDL
