MODEL 1
REMARK VINA RESULT:     -11.4      0.000      0.000
REMARK  Name = 52913524
REMARK  9 active torsions:
REMARK  status: ('A' for Active; 'I' for Inactive)
REMARK    1  A    between atoms: C_1  and  C_10
REMARK    2  A    between atoms: C_4  and  C_24
REMARK    3  A    between atoms: C_5  and  C_22
REMARK    4  A    between atoms: C_8  and  O_13
REMARK    5  A    between atoms: C_9  and  O_15
REMARK    6  A    between atoms: C_11  and  O_17
REMARK    7  A    between atoms: C_12  and  C_19
REMARK    8  A    between atoms: C_19  and  O_20
REMARK    9  A    between atoms: C_24  and  C_27
REMARK                            x       y       z     vdW  Elec       q    Type
REMARK                         _______ _______ _______ _____ _____    ______ ____
ROOT
ATOM      1  C   UNL     1      34.197 -24.211 -14.640  0.00  0.00    +0.007 C 
ATOM      2  C   UNL     1      34.075 -24.081 -16.024  0.00  0.00    -0.006 C 
ATOM      3  C   UNL     1      33.130 -23.866 -13.810  0.00  0.00    -0.002 C 
ATOM      4  C   UNL     1      32.886 -23.606 -16.577  0.00  0.00    -0.022 C 
ATOM      5  C   UNL     1      31.819 -23.261 -15.747  0.00  0.00    -0.026 C 
ATOM      6  C   UNL     1      31.941 -23.390 -14.364  0.00  0.00    -0.005 C 
ENDROOT
BRANCH   1  10
ATOM      7  O   UNL     1      36.176 -23.614 -13.461  0.00  0.00    -0.347 OA
ATOM      8  C   UNL     1      36.369 -25.430 -15.084  0.00  0.00    +0.171 C 
ATOM      9  C   UNL     1      37.733 -25.801 -14.493  0.00  0.00    +0.169 C 
ATOM     10  C   UNL     1      35.489 -24.728 -14.039  0.00  0.00    +0.167 C 
ATOM     11  C   UNL     1      38.363 -24.615 -13.764  0.00  0.00    +0.169 C 
ATOM     12  C   UNL     1      37.372 -23.994 -12.778  0.00  0.00    +0.174 C 
BRANCH   8  13
ATOM     13  O   UNL     1      35.709 -26.621 -15.512  0.00  0.00    -0.379 OA
ATOM     14  H   UNL     1      35.102 -26.412 -16.239  0.00  0.00    +0.211 HD
ENDBRANCH   8  13
BRANCH   9  15
ATOM     15  O   UNL     1      38.616 -26.192 -15.546  0.00  0.00    -0.379 OA
ATOM     16  H   UNL     1      38.566 -25.544 -16.267  0.00  0.00    +0.211 HD
ENDBRANCH   9  15
BRANCH  11  17
ATOM     17  O   UNL     1      39.516 -25.059 -13.054  0.00  0.00    -0.379 OA
ATOM     18  H   UNL     1      39.257 -25.342 -12.162  0.00  0.00    +0.211 HD
ENDBRANCH  11  17
BRANCH  12  19
ATOM     19  C   UNL     1      37.940 -22.741 -12.119  0.00  0.00    +0.169 C 
BRANCH  19  20
ATOM     20  O   UNL     1      37.278 -22.542 -10.884  0.00  0.00    -0.379 OA
ATOM     21  H   UNL     1      37.270 -21.596 -10.670  0.00  0.00    +0.211 HD
ENDBRANCH  19  20
ENDBRANCH  12  19
ENDBRANCH   1  10
BRANCH   5  22
ATOM     22  C   UNL     1      30.537 -22.749 -16.316  0.00  0.00    +0.026 C 
ATOM     23  C   UNL     1      29.332 -23.128 -15.461  0.00  0.00    +0.005 C 
ENDBRANCH   5  22
BRANCH   4  24
ATOM     24  C   UNL     1      32.778 -23.476 -18.061  0.00  0.00    +0.052 C 
BRANCH  24  27
ATOM     25  O   UNL     1      34.076 -20.035 -21.265  0.00  0.00    -0.468 OA
ATOM     26  O   UNL     1      36.789 -20.143 -20.295  0.00  0.00    -0.468 OA
ATOM     27  C   UNL     1      33.839 -22.586 -18.676  0.00  0.00    -0.015 C 
ATOM     28  C   UNL     1      33.494 -21.692 -19.690  0.00  0.00    +0.036 C 
ATOM     29  C   UNL     1      35.160 -22.666 -18.234  0.00  0.00    -0.001 C 
ATOM     30  C   UNL     1      34.473 -20.878 -20.260  0.00  0.00    +0.172 C 
ATOM     31  C   UNL     1      35.789 -20.939 -19.798  0.00  0.00    +0.172 C 
ATOM     32  C   UNL     1      36.136 -21.844 -18.794  0.00  0.00    +0.040 C 
ATOM     33  C   UNL     1      35.191 -19.518 -21.998  0.00  0.00    +0.253 C 
ATOM     34  C   UNL     1      36.270 -19.043 -21.046  0.00  0.00    +0.253 C 
ENDBRANCH  24  27
ENDBRANCH   4  24
TORSDOF 9
ENDMDL
MODEL 2
REMARK VINA RESULT:     -11.4      1.204      2.300
REMARK  Name = 52913524
REMARK  9 active torsions:
REMARK  status: ('A' for Active; 'I' for Inactive)
REMARK    1  A    between atoms: C_1  and  C_10
REMARK    2  A    between atoms: C_4  and  C_24
REMARK    3  A    between atoms: C_5  and  C_22
REMARK    4  A    between atoms: C_8  and  O_13
REMARK    5  A    between atoms: C_9  and  O_15
REMARK    6  A    between atoms: C_11  and  O_17
REMARK    7  A    between atoms: C_12  and  C_19
REMARK    8  A    between atoms: C_19  and  O_20
REMARK    9  A    between atoms: C_24  and  C_27
REMARK                            x       y       z     vdW  Elec       q    Type
REMARK                         _______ _______ _______ _____ _____    ______ ____
ROOT
ATOM      1  C   UNL     1      34.207 -23.831 -14.835  0.00  0.00    +0.007 C 
ATOM      2  C   UNL     1      34.252 -23.828 -16.229  0.00  0.00    -0.006 C 
ATOM      3  C   UNL     1      33.025 -23.495 -14.174  0.00  0.00    -0.002 C 
ATOM      4  C   UNL     1      33.116 -23.488 -16.963  0.00  0.00    -0.022 C 
ATOM      5  C   UNL     1      31.934 -23.152 -16.302  0.00  0.00    -0.026 C 
ATOM      6  C   UNL     1      31.888 -23.155 -14.908  0.00  0.00    -0.005 C 
ENDROOT
BRANCH   1  10
ATOM      7  O   UNL     1      36.092 -25.279 -14.718  0.00  0.00    -0.347 OA
ATOM      8  C   UNL     1      35.097 -24.595 -12.593  0.00  0.00    +0.171 C 
ATOM      9  C   UNL     1      36.334 -25.117 -11.856  0.00  0.00    +0.169 C 
ATOM     10  C   UNL     1      35.442 -24.201 -14.037  0.00  0.00    +0.167 C 
ATOM     11  C   UNL     1      37.073 -26.166 -12.686  0.00  0.00    +0.169 C 
ATOM     12  C   UNL     1      37.326 -25.656 -14.106  0.00  0.00    +0.174 C 
BRANCH   8  13
ATOM     13  O   UNL     1      34.601 -23.444 -11.910  0.00  0.00    -0.379 OA
ATOM     14  H   UNL     1      35.262 -23.137 -11.270  0.00  0.00    +0.211 HD
ENDBRANCH   8  13
BRANCH   9  15
ATOM     15  O   UNL     1      35.933 -25.728 -10.629  0.00  0.00    -0.379 OA
ATOM     16  H   UNL     1      36.111 -26.681 -10.669  0.00  0.00    +0.211 HD
ENDBRANCH   9  15
BRANCH  11  17
ATOM     17  O   UNL     1      38.321 -26.463 -12.065  0.00  0.00    -0.379 OA
ATOM     18  H   UNL     1      38.171 -27.031 -11.293  0.00  0.00    +0.211 HD
ENDBRANCH  11  17
BRANCH  12  19
ATOM     19  C   UNL     1      37.964 -26.727 -14.986  0.00  0.00    +0.169 C 
BRANCH  19  20
ATOM     20  O   UNL     1      39.346 -26.789 -14.690  0.00  0.00    -0.379 OA
ATOM     21  H   UNL     1      39.691 -27.662 -14.935  0.00  0.00    +0.211 HD
ENDBRANCH  19  20
ENDBRANCH  12  19
ENDBRANCH   1  10
BRANCH   5  22
ATOM     22  C   UNL     1      30.705 -22.784 -17.066  0.00  0.00    +0.026 C 
ATOM     23  C   UNL     1      29.427 -23.180 -16.333  0.00  0.00    +0.005 C 
ENDBRANCH   5  22
BRANCH   4  24
ATOM     24  C   UNL     1      33.188 -23.492 -18.454  0.00  0.00    +0.052 C 
BRANCH  24  27
ATOM     25  O   UNL     1      34.161 -19.757 -21.436  0.00  0.00    -0.468 OA
ATOM     26  O   UNL     1      36.892 -19.720 -20.513  0.00  0.00    -0.468 OA
ATOM     27  C   UNL     1      34.166 -22.484 -19.023  0.00  0.00    -0.015 C 
ATOM     28  C   UNL     1      33.735 -21.554 -19.968  0.00  0.00    +0.036 C 
ATOM     29  C   UNL     1      35.498 -22.492 -18.605  0.00  0.00    -0.001 C 
ATOM     30  C   UNL     1      34.639 -20.632 -20.496  0.00  0.00    +0.172 C 
ATOM     31  C   UNL     1      35.965 -20.621 -20.057  0.00  0.00    +0.172 C 
ATOM     32  C   UNL     1      36.398 -21.561 -19.122  0.00  0.00    +0.040 C 
ATOM     33  C   UNL     1      35.219 -19.108 -22.148  0.00  0.00    +0.253 C 
ATOM     34  C   UNL     1      36.277 -18.615 -21.181  0.00  0.00    +0.253 C 
ENDBRANCH  24  27
ENDBRANCH   4  24
TORSDOF 9
ENDMDL
MODEL 3
REMARK VINA RESULT:     -10.4      3.226      7.399
REMARK  Name = 52913524
REMARK  9 active torsions:
REMARK  status: ('A' for Active; 'I' for Inactive)
REMARK    1  A    between atoms: C_1  and  C_10
REMARK    2  A    between atoms: C_4  and  C_24
REMARK    3  A    between atoms: C_5  and  C_22
REMARK    4  A    between atoms: C_8  and  O_13
REMARK    5  A    between atoms: C_9  and  O_15
REMARK    6  A    between atoms: C_11  and  O_17
REMARK    7  A    between atoms: C_12  and  C_19
REMARK    8  A    between atoms: C_19  and  O_20
REMARK    9  A    between atoms: C_24  and  C_27
REMARK                            x       y       z     vdW  Elec       q    Type
REMARK                         _______ _______ _______ _____ _____    ______ ____
ROOT
ATOM      1  C   UNL     1      35.532 -22.481 -17.700  0.00  0.00    +0.007 C 
ATOM      2  C   UNL     1      34.611 -23.249 -16.988  0.00  0.00    -0.006 C 
ATOM      3  C   UNL     1      36.747 -22.127 -17.113  0.00  0.00    -0.002 C 
ATOM      4  C   UNL     1      34.905 -23.663 -15.688  0.00  0.00    -0.022 C 
ATOM      5  C   UNL     1      36.120 -23.308 -15.102  0.00  0.00    -0.026 C 
ATOM      6  C   UNL     1      37.041 -22.541 -15.814  0.00  0.00    -0.005 C 
ENDROOT
BRANCH   1  10
ATOM      7  O   UNL     1      36.053 -20.913 -19.413  0.00  0.00    -0.347 OA
ATOM      8  C   UNL     1      33.731 -21.664 -19.278  0.00  0.00    +0.171 C 
ATOM      9  C   UNL     1      33.466 -21.064 -20.662  0.00  0.00    +0.169 C 
ATOM     10  C   UNL     1      35.213 -22.033 -19.113  0.00  0.00    +0.167 C 
ATOM     11  C   UNL     1      34.478 -19.968 -20.995  0.00  0.00    +0.169 C 
ATOM     12  C   UNL     1      35.908 -20.458 -20.759  0.00  0.00    +0.174 C 
BRANCH   8  13
ATOM     13  O   UNL     1      32.946 -22.846 -19.127  0.00  0.00    -0.379 OA
ATOM     14  H   UNL     1      32.177 -22.801 -19.715  0.00  0.00    +0.211 HD
ENDBRANCH   8  13
BRANCH   9  15
ATOM     15  O   UNL     1      32.162 -20.482 -20.685  0.00  0.00    -0.379 OA
ATOM     16  H   UNL     1      32.207 -19.604 -21.095  0.00  0.00    +0.211 HD
ENDBRANCH   9  15
BRANCH  11  17
ATOM     17  O   UNL     1      34.331 -19.591 -22.362  0.00  0.00    -0.379 OA
ATOM     18  H   UNL     1      34.129 -18.643 -22.416  0.00  0.00    +0.211 HD
ENDBRANCH  11  17
BRANCH  12  19
ATOM     19  C   UNL     1      36.930 -19.347 -20.979  0.00  0.00    +0.169 C 
BRANCH  19  20
ATOM     20  O   UNL     1      36.316 -18.106 -20.686  0.00  0.00    -0.379 OA
ATOM     21  H   UNL     1      35.777 -18.193 -19.884  0.00  0.00    +0.211 HD
ENDBRANCH  19  20
ENDBRANCH  12  19
ENDBRANCH   1  10
BRANCH   5  22
ATOM     22  C   UNL     1      36.456 -23.738 -13.712  0.00  0.00    +0.026 C 
ATOM     23  C   UNL     1      37.504 -24.847 -13.686  0.00  0.00    +0.005 C 
ENDBRANCH   5  22
BRANCH   4  24
ATOM     24  C   UNL     1      33.903 -24.484 -14.945  0.00  0.00    +0.052 C 
BRANCH  24  27
ATOM     25  O   UNL     1      29.590 -23.855 -17.134  0.00  0.00    -0.468 OA
ATOM     26  O   UNL     1      28.667 -22.300 -14.889  0.00  0.00    -0.468 OA
ATOM     27  C   UNL     1      32.505 -23.899 -14.952  0.00  0.00    -0.015 C 
ATOM     28  C   UNL     1      31.655 -24.142 -16.031  0.00  0.00    +0.036 C 
ATOM     29  C   UNL     1      32.072 -23.114 -13.882  0.00  0.00    -0.001 C 
ATOM     30  C   UNL     1      30.371 -23.597 -16.038  0.00  0.00    +0.172 C 
ATOM     31  C   UNL     1      29.928 -22.835 -14.955  0.00  0.00    +0.172 C 
ATOM     32  C   UNL     1      30.784 -22.580 -13.884  0.00  0.00    +0.040 C 
ATOM     33  C   UNL     1      28.457 -22.984 -17.198  0.00  0.00    +0.253 C 
ATOM     34  C   UNL     1      27.785 -22.896 -15.843  0.00  0.00    +0.253 C 
ENDBRANCH  24  27
ENDBRANCH   4  24
TORSDOF 9
ENDMDL
MODEL 4
REMARK VINA RESULT:     -10.3      2.794      7.346
REMARK  Name = 52913524
REMARK  9 active torsions:
REMARK  status: ('A' for Active; 'I' for Inactive)
REMARK    1  A    between atoms: C_1  and  C_10
REMARK    2  A    between atoms: C_4  and  C_24
REMARK    3  A    between atoms: C_5  and  C_22
REMARK    4  A    between atoms: C_8  and  O_13
REMARK    5  A    between atoms: C_9  and  O_15
REMARK    6  A    between atoms: C_11  and  O_17
REMARK    7  A    between atoms: C_12  and  C_19
REMARK    8  A    between atoms: C_19  and  O_20
REMARK    9  A    between atoms: C_24  and  C_27
REMARK                            x       y       z     vdW  Elec       q    Type
REMARK                         _______ _______ _______ _____ _____    ______ ____
ROOT
ATOM      1  C   UNL     1      33.586 -23.135 -17.466  0.00  0.00    +0.007 C 
ATOM      2  C   UNL     1      34.820 -22.915 -16.854  0.00  0.00    -0.006 C 
ATOM      3  C   UNL     1      33.384 -22.745 -18.790  0.00  0.00    -0.002 C 
ATOM      4  C   UNL     1      35.853 -22.304 -17.567  0.00  0.00    -0.022 C 
ATOM      5  C   UNL     1      35.650 -21.915 -18.891  0.00  0.00    -0.026 C 
ATOM      6  C   UNL     1      34.417 -22.135 -19.503  0.00  0.00    -0.005 C 
ENDROOT
BRANCH   1  10
ATOM      7  O   UNL     1      31.246 -23.129 -17.030  0.00  0.00    -0.347 OA
ATOM      8  C   UNL     1      32.709 -23.755 -15.175  0.00  0.00    +0.171 C 
ATOM      9  C   UNL     1      31.493 -24.285 -14.408  0.00  0.00    +0.169 C 
ATOM     10  C   UNL     1      32.464 -23.799 -16.691  0.00  0.00    +0.167 C 
ATOM     11  C   UNL     1      30.199 -23.642 -14.905  0.00  0.00    +0.169 C 
ATOM     12  C   UNL     1      30.098 -23.729 -16.429  0.00  0.00    +0.174 C 
BRANCH   8  13
ATOM     13  O   UNL     1      33.841 -24.568 -14.870  0.00  0.00    -0.379 OA
ATOM     14  H   UNL     1      34.505 -24.475 -15.571  0.00  0.00    +0.211 HD
ENDBRANCH   8  13
BRANCH   9  15
ATOM     15  O   UNL     1      31.635 -23.976 -13.021  0.00  0.00    -0.379 OA
ATOM     16  H   UNL     1      31.032 -23.253 -12.787  0.00  0.00    +0.211 HD
ENDBRANCH   9  15
BRANCH  11  17
ATOM     17  O   UNL     1      29.086 -24.314 -14.322  0.00  0.00    -0.379 OA
ATOM     18  H   UNL     1      28.272 -24.045 -14.777  0.00  0.00    +0.211 HD
ENDBRANCH  11  17
BRANCH  12  19
ATOM     19  C   UNL     1      28.869 -22.996 -16.958  0.00  0.00    +0.169 C 
BRANCH  19  20
ATOM     20  O   UNL     1      27.880 -23.954 -17.286  0.00  0.00    -0.379 OA
ATOM     21  H   UNL     1      27.038 -23.504 -17.457  0.00  0.00    +0.211 HD
ENDBRANCH  19  20
ENDBRANCH  12  19
ENDBRANCH   1  10
BRANCH   5  22
ATOM     22  C   UNL     1      36.740 -21.259 -19.674  0.00  0.00    +0.026 C 
ATOM     23  C   UNL     1      36.208 -20.194 -20.628  0.00  0.00    +0.005 C 
ENDBRANCH   5  22
BRANCH   4  24
ATOM     24  C   UNL     1      37.165 -22.079 -16.891  0.00  0.00    +0.052 C 
BRANCH  24  27
ATOM     25  O   UNL     1      36.164 -23.360 -12.293  0.00  0.00    -0.468 OA
ATOM     26  O   UNL     1      38.075 -25.511 -12.467  0.00  0.00    -0.468 OA
ATOM     27  C   UNL     1      37.403 -22.979 -15.697  0.00  0.00    -0.015 C 
ATOM     28  C   UNL     1      36.672 -22.786 -14.524  0.00  0.00    +0.036 C 
ATOM     29  C   UNL     1      38.355 -23.996 -15.768  0.00  0.00    -0.001 C 
ATOM     30  C   UNL     1      36.898 -23.612 -13.423  0.00  0.00    +0.172 C 
ATOM     31  C   UNL     1      37.831 -24.647 -13.503  0.00  0.00    +0.172 C 
ATOM     32  C   UNL     1      38.572 -24.830 -14.671  0.00  0.00    +0.040 C 
ATOM     33  C   UNL     1      36.709 -24.017 -11.145  0.00  0.00    +0.253 C 
ATOM     34  C   UNL     1      37.045 -25.457 -11.476  0.00  0.00    +0.253 C 
ENDBRANCH  24  27
ENDBRANCH   4  24
TORSDOF 9
ENDMDL
MODEL 5
REMARK VINA RESULT:     -10.1      2.444      5.738
REMARK  Name = 52913524
REMARK  9 active torsions:
REMARK  status: ('A' for Active; 'I' for Inactive)
REMARK    1  A    between atoms: C_1  and  C_10
REMARK    2  A    between atoms: C_4  and  C_24
REMARK    3  A    between atoms: C_5  and  C_22
REMARK    4  A    between atoms: C_8  and  O_13
REMARK    5  A    between atoms: C_9  and  O_15
REMARK    6  A    between atoms: C_11  and  O_17
REMARK    7  A    between atoms: C_12  and  C_19
REMARK    8  A    between atoms: C_19  and  O_20
REMARK    9  A    between atoms: C_24  and  C_27
REMARK                            x       y       z     vdW  Elec       q    Type
REMARK                         _______ _______ _______ _____ _____    ______ ____
ROOT
ATOM      1  C   UNL     1      36.495 -22.903 -16.349  0.00  0.00    +0.007 C 
ATOM      2  C   UNL     1      35.176 -23.094 -16.762  0.00  0.00    -0.006 C 
ATOM      3  C   UNL     1      37.383 -22.194 -17.157  0.00  0.00    -0.002 C 
ATOM      4  C   UNL     1      34.747 -22.577 -17.985  0.00  0.00    -0.022 C 
ATOM      5  C   UNL     1      35.636 -21.868 -18.793  0.00  0.00    -0.026 C 
ATOM      6  C   UNL     1      36.954 -21.677 -18.380  0.00  0.00    -0.005 C 
ENDROOT
BRANCH   1  10
ATOM      7  O   UNL     1      37.907 -24.502 -15.295  0.00  0.00    -0.347 OA
ATOM      8  C   UNL     1      35.791 -23.998 -14.180  0.00  0.00    +0.171 C 
ATOM      9  C   UNL     1      36.299 -24.703 -12.918  0.00  0.00    +0.169 C 
ATOM     10  C   UNL     1      36.961 -23.464 -15.020  0.00  0.00    +0.167 C 
ATOM     11  C   UNL     1      37.409 -25.701 -13.248  0.00  0.00    +0.169 C 
ATOM     12  C   UNL     1      38.490 -25.048 -14.110  0.00  0.00    +0.174 C 
BRANCH   8  13
ATOM     13  O   UNL     1      34.963 -22.901 -13.797  0.00  0.00    -0.379 OA
ATOM     14  H   UNL     1      34.031 -23.152 -13.888  0.00  0.00    +0.211 HD
ENDBRANCH   8  13
BRANCH   9  15
ATOM     15  O   UNL     1      35.225 -25.422 -12.311  0.00  0.00    -0.379 OA
ATOM     16  H   UNL     1      35.340 -25.423 -11.348  0.00  0.00    +0.211 HD
ENDBRANCH   9  15
BRANCH  11  17
ATOM     17  O   UNL     1      37.995 -26.170 -12.036  0.00  0.00    -0.379 OA
ATOM     18  H   UNL     1      38.128 -27.130 -12.092  0.00  0.00    +0.211 HD
ENDBRANCH  11  17
BRANCH  12  19
ATOM     19  C   UNL     1      39.552 -26.053 -14.545  0.00  0.00    +0.169 C 
BRANCH  19  20
ATOM     20  O   UNL     1      38.953 -27.333 -14.629  0.00  0.00    -0.379 OA
ATOM     21  H   UNL     1      39.047 -27.675 -15.532  0.00  0.00    +0.211 HD
ENDBRANCH  19  20
ENDBRANCH  12  19
ENDBRANCH   1  10
BRANCH   5  22
ATOM     22  C   UNL     1      35.200 -21.306 -20.106  0.00  0.00    +0.026 C 
ATOM     23  C   UNL     1      36.143 -20.220 -20.614  0.00  0.00    +0.005 C 
ENDBRANCH   5  22
BRANCH   4  24
ATOM     24  C   UNL     1      33.331 -22.794 -18.406  0.00  0.00    +0.052 C 
BRANCH  24  27
ATOM     25  O   UNL     1      32.544 -24.890 -14.073  0.00  0.00    -0.468 OA
ATOM     26  O   UNL     1      29.793 -24.030 -14.147  0.00  0.00    -0.468 OA
ATOM     27  C   UNL     1      32.398 -23.142 -17.265  0.00  0.00    -0.015 C 
ATOM     28  C   UNL     1      32.879 -23.851 -16.164  0.00  0.00    +0.036 C 
ATOM     29  C   UNL     1      31.057 -22.760 -17.319  0.00  0.00    -0.001 C 
ATOM     30  C   UNL     1      32.016 -24.176 -15.118  0.00  0.00    +0.172 C 
ATOM     31  C   UNL     1      30.681 -23.769 -15.159  0.00  0.00    +0.172 C 
ATOM     32  C   UNL     1      30.197 -23.074 -16.267  0.00  0.00    +0.040 C 
ATOM     33  C   UNL     1      31.524 -25.459 -13.247  0.00  0.00    +0.253 C 
ATOM     34  C   UNL     1      30.457 -24.425 -12.945  0.00  0.00    +0.253 C 
ENDBRANCH  24  27
ENDBRANCH   4  24
TORSDOF 9
ENDMDL
MODEL 6
REMARK VINA RESULT:      -9.6      2.378      5.461
REMARK  Name = 52913524
REMARK  9 active torsions:
REMARK  status: ('A' for Active; 'I' for Inactive)
REMARK    1  A    between atoms: C_1  and  C_10
REMARK    2  A    between atoms: C_4  and  C_24
REMARK    3  A    between atoms: C_5  and  C_22
REMARK    4  A    between atoms: C_8  and  O_13
REMARK    5  A    between atoms: C_9  and  O_15
REMARK    6  A    between atoms: C_11  and  O_17
REMARK    7  A    between atoms: C_12  and  C_19
REMARK    8  A    between atoms: C_19  and  O_20
REMARK    9  A    between atoms: C_24  and  C_27
REMARK                            x       y       z     vdW  Elec       q    Type
REMARK                         _______ _______ _______ _____ _____    ______ ____
ROOT
ATOM      1  C   UNL     1      36.703 -22.914 -16.144  0.00  0.00    +0.007 C 
ATOM      2  C   UNL     1      35.445 -23.196 -16.676  0.00  0.00    -0.006 C 
ATOM      3  C   UNL     1      37.589 -22.095 -16.844  0.00  0.00    -0.002 C 
ATOM      4  C   UNL     1      35.073 -22.659 -17.909  0.00  0.00    -0.022 C 
ATOM      5  C   UNL     1      35.960 -21.840 -18.609  0.00  0.00    -0.026 C 
ATOM      6  C   UNL     1      37.217 -21.558 -18.077  0.00  0.00    -0.005 C 
ENDROOT
BRANCH   1  10
ATOM      7  O   UNL     1      38.050 -24.545 -15.052  0.00  0.00    -0.347 OA
ATOM      8  C   UNL     1      35.896 -24.025 -14.019  0.00  0.00    +0.171 C 
ATOM      9  C   UNL     1      36.343 -24.751 -12.747  0.00  0.00    +0.169 C 
ATOM     10  C   UNL     1      37.107 -23.497 -14.804  0.00  0.00    +0.167 C 
ATOM     11  C   UNL     1      37.451 -25.760 -13.042  0.00  0.00    +0.169 C 
ATOM     12  C   UNL     1      38.576 -25.112 -13.851  0.00  0.00    +0.174 C 
BRANCH   8  13
ATOM     13  O   UNL     1      35.068 -22.921 -13.658  0.00  0.00    -0.379 OA
ATOM     14  H   UNL     1      35.604 -22.114 -13.614  0.00  0.00    +0.211 HD
ENDBRANCH   8  13
BRANCH   9  15
ATOM     15  O   UNL     1      35.234 -25.462 -12.192  0.00  0.00    -0.379 OA
ATOM     16  H   UNL     1      35.462 -26.401 -12.109  0.00  0.00    +0.211 HD
ENDBRANCH   9  15
BRANCH  11  17
ATOM     17  O   UNL     1      37.980 -26.251 -11.813  0.00  0.00    -0.379 OA
ATOM     18  H   UNL     1      37.252 -26.535 -11.238  0.00  0.00    +0.211 HD
ENDBRANCH  11  17
BRANCH  12  19
ATOM     19  C   UNL     1      39.641 -26.127 -14.254  0.00  0.00    +0.169 C 
BRANCH  19  20
ATOM     20  O   UNL     1      38.998 -27.330 -14.632  0.00  0.00    -0.379 OA
ATOM     21  H   UNL     1      38.921 -27.912 -13.859  0.00  0.00    +0.211 HD
ENDBRANCH  19  20
ENDBRANCH  12  19
ENDBRANCH   1  10
BRANCH   5  22
ATOM     22  C   UNL     1      35.584 -21.255 -19.931  0.00  0.00    +0.026 C 
ATOM     23  C   UNL     1      36.616 -20.249 -20.432  0.00  0.00    +0.005 C 
ENDBRANCH   5  22
BRANCH   4  24
ATOM     24  C   UNL     1      33.722 -22.976 -18.460  0.00  0.00    +0.052 C 
BRANCH  24  27
ATOM     25  O   UNL     1      29.098 -22.646 -16.942  0.00  0.00    -0.468 OA
ATOM     26  O   UNL     1      29.814 -23.923 -14.458  0.00  0.00    -0.468 OA
ATOM     27  C   UNL     1      32.667 -23.211 -17.398  0.00  0.00    -0.015 C 
ATOM     28  C   UNL     1      31.344 -22.840 -17.637  0.00  0.00    +0.036 C 
ATOM     29  C   UNL     1      33.021 -23.794 -16.180  0.00  0.00    -0.001 C 
ATOM     30  C   UNL     1      30.376 -23.051 -16.656  0.00  0.00    +0.172 C 
ATOM     31  C   UNL     1      30.725 -23.659 -15.448  0.00  0.00    +0.172 C 
ATOM     32  C   UNL     1      32.051 -24.017 -15.204  0.00  0.00    +0.040 C 
ATOM     33  C   UNL     1      28.282 -22.588 -15.768  0.00  0.00    +0.253 C 
ATOM     34  C   UNL     1      28.469 -23.841 -14.936  0.00  0.00    +0.253 C 
ENDBRANCH  24  27
ENDBRANCH   4  24
TORSDOF 9
ENDMDL
MODEL 7
REMARK VINA RESULT:      -9.6      2.883      7.349
REMARK  Name = 52913524
REMARK  9 active torsions:
REMARK  status: ('A' for Active; 'I' for Inactive)
REMARK    1  A    between atoms: C_1  and  C_10
REMARK    2  A    between atoms: C_4  and  C_24
REMARK    3  A    between atoms: C_5  and  C_22
REMARK    4  A    between atoms: C_8  and  O_13
REMARK    5  A    between atoms: C_9  and  O_15
REMARK    6  A    between atoms: C_11  and  O_17
REMARK    7  A    between atoms: C_12  and  C_19
REMARK    8  A    between atoms: C_19  and  O_20
REMARK    9  A    between atoms: C_24  and  C_27
REMARK                            x       y       z     vdW  Elec       q    Type
REMARK                         _______ _______ _______ _____ _____    ______ ____
ROOT
ATOM      1  C   UNL     1      32.637 -22.921 -16.858  0.00  0.00    +0.007 C 
ATOM      2  C   UNL     1      33.934 -23.097 -16.376  0.00  0.00    -0.006 C 
ATOM      3  C   UNL     1      32.431 -22.444 -18.152  0.00  0.00    -0.002 C 
ATOM      4  C   UNL     1      35.026 -22.795 -17.190  0.00  0.00    -0.022 C 
ATOM      5  C   UNL     1      34.820 -22.317 -18.485  0.00  0.00    -0.026 C 
ATOM      6  C   UNL     1      33.524 -22.142 -18.966  0.00  0.00    -0.005 C 
ENDROOT
BRANCH   1  10
ATOM      7  O   UNL     1      31.847 -24.300 -15.086  0.00  0.00    -0.347 OA
ATOM      8  C   UNL     1      30.219 -23.664 -16.794  0.00  0.00    +0.171 C 
ATOM      9  C   UNL     1      29.087 -24.145 -15.881  0.00  0.00    +0.169 C 
ATOM     10  C   UNL     1      31.450 -23.250 -15.973  0.00  0.00    +0.167 C 
ATOM     11  C   UNL     1      29.592 -25.161 -14.858  0.00  0.00    +0.169 C 
ATOM     12  C   UNL     1      30.834 -24.635 -14.136  0.00  0.00    +0.174 C 
BRANCH   8  13
ATOM     13  O   UNL     1      29.766 -22.535 -17.541  0.00  0.00    -0.379 OA
ATOM     14  H   UNL     1      28.816 -22.409 -17.393  0.00  0.00    +0.211 HD
ENDBRANCH   8  13
BRANCH   9  15
ATOM     15  O   UNL     1      28.077 -24.776 -16.669  0.00  0.00    -0.379 OA
ATOM     16  H   UNL     1      28.005 -24.324 -17.524  0.00  0.00    +0.211 HD
ENDBRANCH   9  15
BRANCH  11  17
ATOM     17  O   UNL     1      28.567 -25.416 -13.902  0.00  0.00    -0.379 OA
ATOM     18  H   UNL     1      27.839 -25.895 -14.329  0.00  0.00    +0.211 HD
ENDBRANCH  11  17
BRANCH  12  19
ATOM     19  C   UNL     1      31.422 -25.677 -13.190  0.00  0.00    +0.169 C 
BRANCH  19  20
ATOM     20  O   UNL     1      32.797 -25.395 -13.007  0.00  0.00    -0.379 OA
ATOM     21  H   UNL     1      32.954 -25.134 -12.086  0.00  0.00    +0.211 HD
ENDBRANCH  19  20
ENDBRANCH  12  19
ENDBRANCH   1  10
BRANCH   5  22
ATOM     22  C   UNL     1      35.974 -21.987 -19.374  0.00  0.00    +0.026 C 
ATOM     23  C   UNL     1      35.630 -20.902 -20.390  0.00  0.00    +0.005 C 
ENDBRANCH   5  22
BRANCH   4  24
ATOM     24  C   UNL     1      36.406 -22.990 -16.653  0.00  0.00    +0.052 C 
BRANCH  24  27
ATOM     25  O   UNL     1      36.562 -22.895 -11.779  0.00  0.00    -0.468 OA
ATOM     26  O   UNL     1      36.529 -25.777 -11.714  0.00  0.00    -0.468 OA
ATOM     27  C   UNL     1      36.450 -23.718 -15.326  0.00  0.00    -0.015 C 
ATOM     28  C   UNL     1      36.473 -22.991 -14.135  0.00  0.00    +0.036 C 
ATOM     29  C   UNL     1      36.474 -25.113 -15.295  0.00  0.00    -0.001 C 
ATOM     30  C   UNL     1      36.521 -23.664 -12.914  0.00  0.00    +0.172 C 
ATOM     31  C   UNL     1      36.516 -25.060 -12.882  0.00  0.00    +0.172 C 
ATOM     32  C   UNL     1      36.508 -25.785 -14.074  0.00  0.00    +0.040 C 
ATOM     33  C   UNL     1      36.954 -23.656 -10.634  0.00  0.00    +0.253 C 
ATOM     34  C   UNL     1      36.191 -24.965 -10.587  0.00  0.00    +0.253 C 
ENDBRANCH  24  27
ENDBRANCH   4  24
TORSDOF 9
ENDMDL
MODEL 8
REMARK VINA RESULT:      -9.3      2.280      5.128
REMARK  Name = 52913524
REMARK  9 active torsions:
REMARK  status: ('A' for Active; 'I' for Inactive)
REMARK    1  A    between atoms: C_1  and  C_10
REMARK    2  A    between atoms: C_4  and  C_24
REMARK    3  A    between atoms: C_5  and  C_22
REMARK    4  A    between atoms: C_8  and  O_13
REMARK    5  A    between atoms: C_9  and  O_15
REMARK    6  A    between atoms: C_11  and  O_17
REMARK    7  A    between atoms: C_12  and  C_19
REMARK    8  A    between atoms: C_19  and  O_20
REMARK    9  A    between atoms: C_24  and  C_27
REMARK                            x       y       z     vdW  Elec       q    Type
REMARK                         _______ _______ _______ _____ _____    ______ ____
ROOT
ATOM      1  C   UNL     1      36.360 -23.406 -15.948  0.00  0.00    +0.007 C 
ATOM      2  C   UNL     1      35.098 -23.438 -16.543  0.00  0.00    -0.006 C 
ATOM      3  C   UNL     1      37.387 -22.663 -16.530  0.00  0.00    -0.002 C 
ATOM      4  C   UNL     1      34.865 -22.728 -17.721  0.00  0.00    -0.022 C 
ATOM      5  C   UNL     1      35.893 -21.985 -18.303  0.00  0.00    -0.026 C 
ATOM      6  C   UNL     1      37.153 -21.953 -17.708  0.00  0.00    -0.005 C 
ENDROOT
BRANCH   1  10
ATOM      7  O   UNL     1      36.897 -23.226 -13.636  0.00  0.00    -0.347 OA
ATOM      8  C   UNL     1      37.767 -25.179 -14.819  0.00  0.00    +0.171 C 
ATOM      9  C   UNL     1      38.110 -25.828 -13.475  0.00  0.00    +0.169 C 
ATOM     10  C   UNL     1      36.613 -24.177 -14.667  0.00  0.00    +0.167 C 
ATOM     11  C   UNL     1      38.264 -24.779 -12.374  0.00  0.00    +0.169 C 
ATOM     12  C   UNL     1      37.063 -23.832 -12.354  0.00  0.00    +0.174 C 
BRANCH   8  13
ATOM     13  O   UNL     1      37.373 -26.196 -15.738  0.00  0.00    -0.379 OA
ATOM     14  H   UNL     1      36.711 -26.770 -15.323  0.00  0.00    +0.211 HD
ENDBRANCH   8  13
BRANCH   9  15
ATOM     15  O   UNL     1      39.348 -26.532 -13.589  0.00  0.00    -0.379 OA
ATOM     16  H   UNL     1      39.608 -26.580 -14.522  0.00  0.00    +0.211 HD
ENDBRANCH   9  15
BRANCH  11  17
ATOM     17  O   UNL     1      38.367 -25.433 -11.112  0.00  0.00    -0.379 OA
ATOM     18  H   UNL     1      37.478 -25.597 -10.759  0.00  0.00    +0.211 HD
ENDBRANCH  11  17
BRANCH  12  19
ATOM     19  C   UNL     1      37.245 -22.709 -11.337  0.00  0.00    +0.169 C 
BRANCH  19  20
ATOM     20  O   UNL     1      36.882 -23.196 -10.059  0.00  0.00    -0.379 OA
ATOM     21  H   UNL     1      37.596 -23.012  -9.428  0.00  0.00    +0.211 HD
ENDBRANCH  19  20
ENDBRANCH  12  19
ENDBRANCH   1  10
BRANCH   5  22
ATOM     22  C   UNL     1      35.666 -21.218 -19.564  0.00  0.00    +0.026 C 
ATOM     23  C   UNL     1      36.969 -20.717 -20.179  0.00  0.00    +0.005 C 
ENDBRANCH   5  22
BRANCH   4  24
ATOM     24  C   UNL     1      33.507 -22.778 -18.340  0.00  0.00    +0.052 C 
BRANCH  24  27
ATOM     25  O   UNL     1      28.823 -22.463 -17.014  0.00  0.00    -0.468 OA
ATOM     26  O   UNL     1      29.384 -23.996 -14.638  0.00  0.00    -0.468 OA
ATOM     27  C   UNL     1      32.396 -23.085 -17.357  0.00  0.00    -0.015 C 
ATOM     28  C   UNL     1      31.096 -22.653 -17.620  0.00  0.00    +0.036 C 
ATOM     29  C   UNL     1      32.675 -23.794 -16.188  0.00  0.00    -0.001 C 
ATOM     30  C   UNL     1      30.076 -22.931 -16.710  0.00  0.00    +0.172 C 
ATOM     31  C   UNL     1      30.349 -23.664 -15.554  0.00  0.00    +0.172 C 
ATOM     32  C   UNL     1      31.652 -24.083 -15.284  0.00  0.00    +0.040 C 
ATOM     33  C   UNL     1      27.952 -22.496 -15.880  0.00  0.00    +0.253 C 
ATOM     34  C   UNL     1      28.067 -23.829 -15.168  0.00  0.00    +0.253 C 
ENDBRANCH  24  27
ENDBRANCH   4  24
TORSDOF 9
ENDMDL
MODEL 9
REMARK VINA RESULT:      -9.0     11.945     17.453
REMARK  Name = 52913524
REMARK  9 active torsions:
REMARK  status: ('A' for Active; 'I' for Inactive)
REMARK    1  A    between atoms: C_1  and  C_10
REMARK    2  A    between atoms: C_4  and  C_24
REMARK    3  A    between atoms: C_5  and  C_22
REMARK    4  A    between atoms: C_8  and  O_13
REMARK    5  A    between atoms: C_9  and  O_15
REMARK    6  A    between atoms: C_11  and  O_17
REMARK    7  A    between atoms: C_12  and  C_19
REMARK    8  A    between atoms: C_19  and  O_20
REMARK    9  A    between atoms: C_24  and  C_27
REMARK                            x       y       z     vdW  Elec       q    Type
REMARK                         _______ _______ _______ _____ _____    ______ ____
ROOT
ATOM      1  C   UNL     1      31.892  -7.210 -22.408  0.00  0.00    +0.007 C 
ATOM      2  C   UNL     1      31.396  -8.502 -22.583  0.00  0.00    -0.006 C 
ATOM      3  C   UNL     1      32.610  -6.887 -21.257  0.00  0.00    -0.002 C 
ATOM      4  C   UNL     1      31.618  -9.472 -21.604  0.00  0.00    -0.022 C 
ATOM      5  C   UNL     1      32.335  -9.148 -20.452  0.00  0.00    -0.026 C 
ATOM      6  C   UNL     1      32.831  -7.857 -20.278  0.00  0.00    -0.005 C 
ENDROOT
BRANCH   1  10
ATOM      7  O   UNL     1      32.842  -6.057 -24.261  0.00  0.00    -0.347 OA
ATOM      8  C   UNL     1      31.286  -4.796 -22.861  0.00  0.00    +0.171 C 
ATOM      9  C   UNL     1      31.207  -3.713 -23.942  0.00  0.00    +0.169 C 
ATOM     10  C   UNL     1      31.652  -6.157 -23.472  0.00  0.00    +0.167 C 
ATOM     11  C   UNL     1      32.437  -3.740 -24.847  0.00  0.00    +0.169 C 
ATOM     12  C   UNL     1      32.704  -5.156 -25.360  0.00  0.00    +0.174 C 
BRANCH   8  13
ATOM     13  O   UNL     1      30.015  -4.908 -22.222  0.00  0.00    -0.379 OA
ATOM     14  H   UNL     1      29.456  -5.525 -22.719  0.00  0.00    +0.211 HD
ENDBRANCH   8  13
BRANCH   9  15
ATOM     15  O   UNL     1      31.142  -2.427 -23.322  0.00  0.00    -0.379 OA
ATOM     16  H   UNL     1      30.880  -1.764 -23.980  0.00  0.00    +0.211 HD
ENDBRANCH   9  15
BRANCH  11  17
ATOM     17  O   UNL     1      32.225  -2.870 -25.956  0.00  0.00    -0.379 OA
ATOM     18  H   UNL     1      31.277  -2.678 -26.039  0.00  0.00    +0.211 HD
ENDBRANCH  11  17
BRANCH  12  19
ATOM     19  C   UNL     1      33.991  -5.229 -26.176  0.00  0.00    +0.169 C 
BRANCH  19  20
ATOM     20  O   UNL     1      33.717  -4.783 -27.491  0.00  0.00    -0.379 OA
ATOM     21  H   UNL     1      34.552  -4.619 -27.957  0.00  0.00    +0.211 HD
ENDBRANCH  19  20
ENDBRANCH  12  19
ENDBRANCH   1  10
BRANCH   5  22
ATOM     22  C   UNL     1      32.584 -10.169 -19.391  0.00  0.00    +0.026 C 
ATOM     23  C   UNL     1      31.379 -10.356 -18.474  0.00  0.00    +0.005 C 
ENDBRANCH   5  22
BRANCH   4  24
ATOM     24  C   UNL     1      31.077 -10.848 -21.812  0.00  0.00    +0.052 C 
BRANCH  24  27
ATOM     25  O   UNL     1      33.527 -14.921 -20.719  0.00  0.00    -0.468 OA
ATOM     26  O   UNL     1      35.023 -14.689 -23.173  0.00  0.00    -0.468 OA
ATOM     27  C   UNL     1      32.134 -11.877 -22.154  0.00  0.00    -0.015 C 
ATOM     28  C   UNL     1      32.359 -12.954 -21.297  0.00  0.00    +0.036 C 
ATOM     29  C   UNL     1      32.885 -11.744 -23.323  0.00  0.00    -0.001 C 
ATOM     30  C   UNL     1      33.338 -13.897 -21.611  0.00  0.00    +0.172 C 
ATOM     31  C   UNL     1      34.071 -13.778 -22.793  0.00  0.00    +0.172 C 
ATOM     32  C   UNL     1      33.855 -12.693 -23.643  0.00  0.00    +0.040 C 
ATOM     33  C   UNL     1      34.757 -15.612 -20.954  0.00  0.00    +0.253 C 
ATOM     34  C   UNL     1      34.920 -15.907 -22.432  0.00  0.00    +0.253 C 
ENDBRANCH  24  27
ENDBRANCH   4  24
TORSDOF 9
ENDMDL
