MODEL 1
REMARK VINA RESULT:     -11.9      0.000      0.000
REMARK  Name = 16040279
REMARK  5 active torsions:
REMARK  status: ('A' for Active; 'I' for Inactive)
REMARK    1  A    between atoms: N_2  and  C_21
REMARK    2  A    between atoms: C_3  and  C_11
REMARK    3  A    between atoms: C_4  and  N_17
REMARK    4  A    between atoms: C_21  and  C_22
REMARK    5  A    between atoms: C_22  and  C_25
REMARK                            x       y       z     vdW  Elec       q    Type
REMARK                         _______ _______ _______ _____ _____    ______ ____
ROOT
ATOM      1  O   UNL     1      34.301 -17.451 -25.529  0.00  0.00    -0.275 OA
ATOM      2  N   UNL     1      35.045 -17.303 -23.335  0.00  0.00    -0.281 N 
ATOM      3  C   UNL     1      33.772 -14.736 -23.118  0.00  0.00    +0.015 C 
ATOM      4  C   UNL     1      34.911 -15.094 -22.148  0.00  0.00    -0.041 C 
ATOM      5  C   UNL     1      35.002 -16.615 -22.046  0.00  0.00    +0.072 C 
ATOM      6  C   UNL     1      34.102 -15.324 -24.493  0.00  0.00    +0.088 C 
ATOM      7  C   UNL     1      34.459 -16.799 -24.494  0.00  0.00    +0.226 C 
ENDROOT
BRANCH   3  11
ATOM      8  F   UNL     1      31.814 -13.383 -21.572  0.00  0.00    -0.204 F 
ATOM      9  F   UNL     1      34.674 -10.378 -25.137  0.00  0.00    -0.202 F 
ATOM     10  F   UNL     1      32.755  -9.204 -23.582  0.00  0.00    -0.202 F 
ATOM     11  C   UNL     1      33.496 -13.246 -23.242  0.00  0.00    +0.006 C 
ATOM     12  C   UNL     1      32.518 -12.653 -22.448  0.00  0.00    +0.138 C 
ATOM     13  C   UNL     1      34.224 -12.484 -24.150  0.00  0.00    +0.030 C 
ATOM     14  C   UNL     1      33.975 -11.116 -24.265  0.00  0.00    +0.167 C 
ATOM     15  C   UNL     1      32.267 -11.285 -22.564  0.00  0.00    +0.061 C 
ATOM     16  C   UNL     1      32.996 -10.517 -23.472  0.00  0.00    +0.170 C 
ENDBRANCH   3  11
BRANCH   4  17
ATOM     17  N   UNL     1      34.681 -14.555 -20.806  0.00  0.00    +0.383 N 
ATOM     18  H   UNL     1      34.198 -13.659 -20.878  0.00  0.00    -0.089 HD
ATOM     19  H   UNL     1      35.577 -14.421 -20.335  0.00  0.00    -0.089 HD
ATOM     20  H   UNL     1      34.109 -15.208 -20.270  0.00  0.00    -0.089 HD
ENDBRANCH   4  17
BRANCH   2  21
ATOM     21  C   UNL     1      35.498 -18.687 -23.302  0.00  0.00    +0.098 C 
BRANCH  21  22
ATOM     22  C   UNL     1      36.084 -19.080 -21.947  0.00  0.00    +0.048 C 
BRANCH  22  25
ATOM     23  O   UNL     1      35.196 -22.646 -18.650  0.00  0.00    -0.435 OA
ATOM     24  O   UNL     1      32.809 -22.470 -18.929  0.00  0.00    -0.435 OA
ATOM     25  C   UNL     1      35.171 -19.978 -21.149  0.00  0.00    -0.017 C 
ATOM     26  C   UNL     1      35.726 -20.893 -20.265  0.00  0.00    +0.036 C 
ATOM     27  C   UNL     1      33.789 -19.866 -21.322  0.00  0.00    -0.001 C 
ATOM     28  C   UNL     1      34.852 -21.693 -19.558  0.00  0.00    +0.176 C 
ATOM     29  C   UNL     1      33.488 -21.593 -19.718  0.00  0.00    +0.176 C 
ATOM     30  C   UNL     1      32.925 -20.687 -20.594  0.00  0.00    +0.040 C 
ATOM     31  C   UNL     1      33.897 -23.134 -18.256  0.00  0.00    +0.429 C 
ENDBRANCH  22  25
ENDBRANCH  21  22
ENDBRANCH   2  21
TORSDOF 5
ENDMDL
MODEL 2
REMARK VINA RESULT:     -11.9      4.048      6.607
REMARK  Name = 16040279
REMARK  5 active torsions:
REMARK  status: ('A' for Active; 'I' for Inactive)
REMARK    1  A    between atoms: N_2  and  C_21
REMARK    2  A    between atoms: C_3  and  C_11
REMARK    3  A    between atoms: C_4  and  N_17
REMARK    4  A    between atoms: C_21  and  C_22
REMARK    5  A    between atoms: C_22  and  C_25
REMARK                            x       y       z     vdW  Elec       q    Type
REMARK                         _______ _______ _______ _____ _____    ______ ____
ROOT
ATOM      1  O   UNL     1      32.839 -21.869 -19.372  0.00  0.00    -0.275 OA
ATOM      2  N   UNL     1      35.150 -21.693 -19.256  0.00  0.00    -0.281 N 
ATOM      3  C   UNL     1      35.032 -19.468 -21.071  0.00  0.00    +0.015 C 
ATOM      4  C   UNL     1      36.349 -20.251 -20.926  0.00  0.00    -0.041 C 
ATOM      5  C   UNL     1      36.361 -20.932 -19.560  0.00  0.00    +0.072 C 
ATOM      6  C   UNL     1      33.867 -20.458 -20.980  0.00  0.00    +0.088 C 
ATOM      7  C   UNL     1      33.897 -21.379 -19.775  0.00  0.00    +0.226 C 
ENDROOT
BRANCH   3  11
ATOM      8  F   UNL     1      35.495 -16.670 -21.172  0.00  0.00    -0.204 F 
ATOM      9  F   UNL     1      34.154 -19.135 -25.867  0.00  0.00    -0.202 F 
ATOM     10  F   UNL     1      34.627 -16.443 -25.818  0.00  0.00    -0.202 F 
ATOM     11  C   UNL     1      34.923 -18.651 -22.349  0.00  0.00    +0.006 C 
ATOM     12  C   UNL     1      35.165 -17.281 -22.319  0.00  0.00    +0.138 C 
ATOM     13  C   UNL     1      34.581 -19.281 -23.542  0.00  0.00    +0.030 C 
ATOM     14  C   UNL     1      34.481 -18.534 -24.716  0.00  0.00    +0.167 C 
ATOM     15  C   UNL     1      35.064 -16.533 -23.493  0.00  0.00    +0.061 C 
ATOM     16  C   UNL     1      34.723 -17.160 -24.691  0.00  0.00    +0.170 C 
ENDBRANCH   3  11
BRANCH   4  17
ATOM     17  N   UNL     1      37.521 -19.377 -21.016  0.00  0.00    +0.383 N 
ATOM     18  H   UNL     1      37.219 -18.422 -21.210  0.00  0.00    -0.089 HD
ATOM     19  H   UNL     1      38.129 -19.701 -21.770  0.00  0.00    -0.089 HD
ATOM     20  H   UNL     1      38.032 -19.400 -20.133  0.00  0.00    -0.089 HD
ENDBRANCH   4  17
BRANCH   2  21
ATOM     21  C   UNL     1      35.256 -22.646 -18.159  0.00  0.00    +0.098 C 
BRANCH  21  22
ATOM     22  C   UNL     1      36.412 -22.324 -17.214  0.00  0.00    +0.048 C 
BRANCH  22  25
ATOM     23  O   UNL     1      38.717 -24.620 -13.499  0.00  0.00    -0.435 OA
ATOM     24  O   UNL     1      36.678 -25.628 -12.704  0.00  0.00    -0.435 OA
ATOM     25  C   UNL     1      36.447 -23.220 -16.000  0.00  0.00    -0.017 C 
ATOM     26  C   UNL     1      37.658 -23.447 -15.362  0.00  0.00    +0.036 C 
ATOM     27  C   UNL     1      35.257 -23.799 -15.551  0.00  0.00    -0.001 C 
ATOM     28  C   UNL     1      37.640 -24.274 -14.257  0.00  0.00    +0.176 C 
ATOM     29  C   UNL     1      36.475 -24.851 -13.803  0.00  0.00    +0.176 C 
ATOM     30  C   UNL     1      35.266 -24.632 -14.429  0.00  0.00    +0.040 C 
ATOM     31  C   UNL     1      38.099 -25.477 -12.517  0.00  0.00    +0.429 C 
ENDBRANCH  22  25
ENDBRANCH  21  22
ENDBRANCH   2  21
TORSDOF 5
ENDMDL
MODEL 3
REMARK VINA RESULT:     -11.9      1.577      2.730
REMARK  Name = 16040279
REMARK  5 active torsions:
REMARK  status: ('A' for Active; 'I' for Inactive)
REMARK    1  A    between atoms: N_2  and  C_21
REMARK    2  A    between atoms: C_3  and  C_11
REMARK    3  A    between atoms: C_4  and  N_17
REMARK    4  A    between atoms: C_21  and  C_22
REMARK    5  A    between atoms: C_22  and  C_25
REMARK                            x       y       z     vdW  Elec       q    Type
REMARK                         _______ _______ _______ _____ _____    ______ ____
ROOT
ATOM      1  O   UNL     1      35.316 -16.294 -20.463  0.00  0.00    -0.275 OA
ATOM      2  N   UNL     1      34.833 -16.643 -22.707  0.00  0.00    -0.281 N 
ATOM      3  C   UNL     1      34.121 -13.868 -22.943  0.00  0.00    +0.015 C 
ATOM      4  C   UNL     1      33.578 -14.875 -23.973  0.00  0.00    -0.041 C 
ATOM      5  C   UNL     1      34.516 -16.079 -24.017  0.00  0.00    +0.072 C 
ATOM      6  C   UNL     1      34.151 -14.548 -21.571  0.00  0.00    +0.088 C 
ATOM      7  C   UNL     1      34.850 -15.893 -21.533  0.00  0.00    +0.226 C 
ENDROOT
BRANCH   3  11
ATOM      8  F   UNL     1      34.775 -11.567 -24.470  0.00  0.00    -0.204 F 
ATOM      9  F   UNL     1      30.475 -11.179 -21.112  0.00  0.00    -0.202 F 
ATOM     10  F   UNL     1      31.218  -9.038 -22.642  0.00  0.00    -0.202 F 
ATOM     11  C   UNL     1      33.341 -12.566 -22.864  0.00  0.00    +0.006 C 
ATOM     12  C   UNL     1      33.723 -11.479 -23.645  0.00  0.00    +0.138 C 
ATOM     13  C   UNL     1      32.247 -12.470 -22.008  0.00  0.00    +0.030 C 
ATOM     14  C   UNL     1      31.528 -11.276 -21.933  0.00  0.00    +0.167 C 
ATOM     15  C   UNL     1      33.005 -10.285 -23.569  0.00  0.00    +0.061 C 
ATOM     16  C   UNL     1      31.907 -10.184 -22.714  0.00  0.00    +0.170 C 
ENDBRANCH   3  11
BRANCH   4  17
ATOM     17  N   UNL     1      33.502 -14.299 -25.318  0.00  0.00    +0.383 N 
ATOM     18  H   UNL     1      33.439 -13.283 -25.250  0.00  0.00    -0.089 HD
ATOM     19  H   UNL     1      32.676 -14.660 -25.797  0.00  0.00    -0.089 HD
ATOM     20  H   UNL     1      34.338 -14.553 -25.845  0.00  0.00    -0.089 HD
ENDBRANCH   4  17
BRANCH   2  21
ATOM     21  C   UNL     1      35.404 -17.983 -22.712  0.00  0.00    +0.098 C 
BRANCH  21  22
ATOM     22  C   UNL     1      34.337 -19.074 -22.646  0.00  0.00    +0.048 C 
BRANCH  22  25
ATOM     23  O   UNL     1      32.717 -22.087 -19.085  0.00  0.00    -0.435 OA
ATOM     24  O   UNL     1      34.951 -22.616 -18.356  0.00  0.00    -0.435 OA
ATOM     25  C   UNL     1      34.539 -20.026 -21.493  0.00  0.00    -0.017 C 
ATOM     26  C   UNL     1      33.430 -20.581 -20.870  0.00  0.00    +0.036 C 
ATOM     27  C   UNL     1      35.841 -20.323 -21.080  0.00  0.00    -0.001 C 
ATOM     28  C   UNL     1      33.665 -21.445 -19.820  0.00  0.00    +0.176 C 
ATOM     29  C   UNL     1      34.942 -21.747 -19.403  0.00  0.00    +0.176 C 
ATOM     30  C   UNL     1      36.052 -21.202 -20.014  0.00  0.00    +0.040 C 
ATOM     31  C   UNL     1      33.539 -22.827 -18.160  0.00  0.00    +0.429 C 
ENDBRANCH  22  25
ENDBRANCH  21  22
ENDBRANCH   2  21
TORSDOF 5
ENDMDL
MODEL 4
REMARK VINA RESULT:     -11.4      4.045      6.732
REMARK  Name = 16040279
REMARK  5 active torsions:
REMARK  status: ('A' for Active; 'I' for Inactive)
REMARK    1  A    between atoms: N_2  and  C_21
REMARK    2  A    between atoms: C_3  and  C_11
REMARK    3  A    between atoms: C_4  and  N_17
REMARK    4  A    between atoms: C_21  and  C_22
REMARK    5  A    between atoms: C_22  and  C_25
REMARK                            x       y       z     vdW  Elec       q    Type
REMARK                         _______ _______ _______ _____ _____    ______ ____
ROOT
ATOM      1  O   UNL     1      32.388 -22.056 -19.166  0.00  0.00    -0.275 OA
ATOM      2  N   UNL     1      34.700 -22.246 -19.096  0.00  0.00    -0.281 N 
ATOM      3  C   UNL     1      34.903 -19.868 -20.697  0.00  0.00    +0.015 C 
ATOM      4  C   UNL     1      36.086 -20.853 -20.659  0.00  0.00    -0.041 C 
ATOM      5  C   UNL     1      36.009 -21.654 -19.361  0.00  0.00    +0.072 C 
ATOM      6  C   UNL     1      33.601 -20.673 -20.665  0.00  0.00    +0.088 C 
ATOM      7  C   UNL     1      33.504 -21.697 -19.551  0.00  0.00    +0.226 C 
ENDROOT
BRANCH   3  11
ATOM      8  F   UNL     1      35.583 -17.119 -20.510  0.00  0.00    -0.204 F 
ATOM      9  F   UNL     1      34.236 -19.012 -25.461  0.00  0.00    -0.202 F 
ATOM     10  F   UNL     1      34.912 -16.383 -25.136  0.00  0.00    -0.202 F 
ATOM     11  C   UNL     1      34.906 -18.927 -21.891  0.00  0.00    +0.006 C 
ATOM     12  C   UNL     1      35.251 -17.590 -21.720  0.00  0.00    +0.138 C 
ATOM     13  C   UNL     1      34.563 -19.411 -23.150  0.00  0.00    +0.030 C 
ATOM     14  C   UNL     1      34.565 -18.551 -24.248  0.00  0.00    +0.167 C 
ATOM     15  C   UNL     1      35.253 -16.728 -22.818  0.00  0.00    +0.061 C 
ATOM     16  C   UNL     1      34.910 -17.209 -24.082  0.00  0.00    +0.170 C 
ENDBRANCH   3  11
BRANCH   4  17
ATOM     17  N   UNL     1      37.377 -20.163 -20.700  0.00  0.00    +0.383 N 
ATOM     18  H   UNL     1      37.477 -19.578 -19.871  0.00  0.00    -0.089 HD
ATOM     19  H   UNL     1      37.424 -19.579 -21.536  0.00  0.00    -0.089 HD
ATOM     20  H   UNL     1      38.131 -20.851 -20.724  0.00  0.00    -0.089 HD
ENDBRANCH   4  17
BRANCH   2  21
ATOM     21  C   UNL     1      34.671 -23.303 -18.094  0.00  0.00    +0.098 C 
BRANCH  21  22
ATOM     22  C   UNL     1      34.909 -22.776 -16.680  0.00  0.00    +0.048 C 
BRANCH  22  25
ATOM     23  O   UNL     1      30.566 -24.440 -15.020  0.00  0.00    -0.435 OA
ATOM     24  O   UNL     1      31.521 -25.199 -12.942  0.00  0.00    -0.435 OA
ATOM     25  C   UNL     1      34.024 -23.434 -15.650  0.00  0.00    -0.017 C 
ATOM     26  C   UNL     1      32.672 -23.591 -15.920  0.00  0.00    +0.036 C 
ATOM     27  C   UNL     1      34.591 -23.869 -14.449  0.00  0.00    -0.001 C 
ATOM     28  C   UNL     1      31.903 -24.198 -14.947  0.00  0.00    +0.176 C 
ATOM     29  C   UNL     1      32.449 -24.631 -13.759  0.00  0.00    +0.176 C 
ATOM     30  C   UNL     1      33.791 -24.481 -13.480  0.00  0.00    +0.040 C 
ATOM     31  C   UNL     1      30.331 -25.075 -13.747  0.00  0.00    +0.429 C 
ENDBRANCH  22  25
ENDBRANCH  21  22
ENDBRANCH   2  21
TORSDOF 5
ENDMDL
MODEL 5
REMARK VINA RESULT:     -11.3      5.563     11.311
REMARK  Name = 16040279
REMARK  5 active torsions:
REMARK  status: ('A' for Active; 'I' for Inactive)
REMARK    1  A    between atoms: N_2  and  C_21
REMARK    2  A    between atoms: C_3  and  C_11
REMARK    3  A    between atoms: C_4  and  N_17
REMARK    4  A    between atoms: C_21  and  C_22
REMARK    5  A    between atoms: C_22  and  C_25
REMARK                            x       y       z     vdW  Elec       q    Type
REMARK                         _______ _______ _______ _____ _____    ______ ____
ROOT
ATOM      1  O   UNL     1      30.911 -11.197 -20.951  0.00  0.00    -0.275 OA
ATOM      2  N   UNL     1      32.347 -10.143 -22.439  0.00  0.00    -0.281 N 
ATOM      3  C   UNL     1      32.971 -12.702 -23.588  0.00  0.00    +0.015 C 
ATOM      4  C   UNL     1      33.955 -11.534 -23.776  0.00  0.00    -0.041 C 
ATOM      5  C   UNL     1      33.185 -10.223 -23.634  0.00  0.00    +0.072 C 
ATOM      6  C   UNL     1      32.369 -12.608 -22.183  0.00  0.00    +0.088 C 
ATOM      7  C   UNL     1      31.783 -11.256 -21.822  0.00  0.00    +0.226 C 
ENDROOT
BRANCH   3  11
ATOM      8  F   UNL     1      32.655 -14.184 -25.988  0.00  0.00    -0.204 F 
ATOM      9  F   UNL     1      35.621 -16.494 -22.014  0.00  0.00    -0.202 F 
ATOM     10  F   UNL     1      35.236 -17.810 -24.379  0.00  0.00    -0.202 F 
ATOM     11  C   UNL     1      33.580 -14.078 -23.804  0.00  0.00    +0.006 C 
ATOM     12  C   UNL     1      33.381 -14.744 -25.009  0.00  0.00    +0.138 C 
ATOM     13  C   UNL     1      34.334 -14.664 -22.791  0.00  0.00    +0.030 C 
ATOM     14  C   UNL     1      34.895 -15.927 -22.985  0.00  0.00    +0.167 C 
ATOM     15  C   UNL     1      33.940 -16.008 -25.204  0.00  0.00    +0.061 C 
ATOM     16  C   UNL     1      34.698 -16.598 -24.192  0.00  0.00    +0.170 C 
ENDBRANCH   3  11
BRANCH   4  17
ATOM     17  N   UNL     1      34.590 -11.556 -25.095  0.00  0.00    +0.383 N 
ATOM     18  H   UNL     1      34.116 -10.896 -25.712  0.00  0.00    -0.089 HD
ATOM     19  H   UNL     1      34.524 -12.496 -25.489  0.00  0.00    -0.089 HD
ATOM     20  H   UNL     1      35.572 -11.294 -25.006  0.00  0.00    -0.089 HD
ENDBRANCH   4  17
BRANCH   2  21
ATOM     21  C   UNL     1      31.895  -8.808 -22.067  0.00  0.00    +0.098 C 
BRANCH  21  22
ATOM     22  C   UNL     1      33.041  -7.801 -21.996  0.00  0.00    +0.048 C 
BRANCH  22  25
ATOM     23  O   UNL     1      30.681  -3.707 -23.428  0.00  0.00    -0.435 OA
ATOM     24  O   UNL     1      32.175  -3.356 -25.286  0.00  0.00    -0.435 OA
ATOM     25  C   UNL     1      32.837  -6.612 -22.903  0.00  0.00    -0.017 C 
ATOM     26  C   UNL     1      31.788  -5.739 -22.649  0.00  0.00    +0.036 C 
ATOM     27  C   UNL     1      33.710  -6.422 -23.978  0.00  0.00    -0.001 C 
ATOM     28  C   UNL     1      31.642  -4.667 -23.506  0.00  0.00    +0.176 C 
ATOM     29  C   UNL     1      32.495  -4.468 -24.568  0.00  0.00    +0.176 C 
ATOM     30  C   UNL     1      33.541  -5.329 -24.830  0.00  0.00    +0.040 C 
ATOM     31  C   UNL     1      31.026  -2.879 -24.558  0.00  0.00    +0.429 C 
ENDBRANCH  22  25
ENDBRANCH  21  22
ENDBRANCH   2  21
TORSDOF 5
ENDMDL
MODEL 6
REMARK VINA RESULT:     -11.3      1.375      2.153
REMARK  Name = 16040279
REMARK  5 active torsions:
REMARK  status: ('A' for Active; 'I' for Inactive)
REMARK    1  A    between atoms: N_2  and  C_21
REMARK    2  A    between atoms: C_3  and  C_11
REMARK    3  A    between atoms: C_4  and  N_17
REMARK    4  A    between atoms: C_21  and  C_22
REMARK    5  A    between atoms: C_22  and  C_25
REMARK                            x       y       z     vdW  Elec       q    Type
REMARK                         _______ _______ _______ _____ _____    ______ ____
ROOT
ATOM      1  O   UNL     1      33.144 -15.948 -26.129  0.00  0.00    -0.275 OA
ATOM      2  N   UNL     1      34.457 -16.172 -24.228  0.00  0.00    -0.281 N 
ATOM      3  C   UNL     1      33.168 -13.858 -23.113  0.00  0.00    +0.015 C 
ATOM      4  C   UNL     1      34.547 -14.282 -22.577  0.00  0.00    -0.041 C 
ATOM      5  C   UNL     1      34.737 -15.772 -22.850  0.00  0.00    +0.072 C 
ATOM      6  C   UNL     1      33.135 -14.113 -24.622  0.00  0.00    +0.088 C 
ATOM      7  C   UNL     1      33.550 -15.508 -25.050  0.00  0.00    +0.226 C 
ENDROOT
BRANCH   3  11
ATOM      8  F   UNL     1      31.388 -13.102 -21.036  0.00  0.00    -0.204 F 
ATOM      9  F   UNL     1      33.522  -9.079 -24.065  0.00  0.00    -0.202 F 
ATOM     10  F   UNL     1      31.792  -8.493 -22.030  0.00  0.00    -0.202 F 
ATOM     11  C   UNL     1      32.796 -12.414 -22.819  0.00  0.00    +0.006 C 
ATOM     12  C   UNL     1      31.915 -12.121 -21.783  0.00  0.00    +0.138 C 
ATOM     13  C   UNL     1      33.340 -11.392 -23.592  0.00  0.00    +0.030 C 
ATOM     14  C   UNL     1      33.001 -10.065 -23.325  0.00  0.00    +0.167 C 
ATOM     15  C   UNL     1      31.574 -10.794 -21.516  0.00  0.00    +0.061 C 
ATOM     16  C   UNL     1      32.118  -9.767 -22.287  0.00  0.00    +0.170 C 
ENDBRANCH   3  11
BRANCH   4  17
ATOM     17  N   UNL     1      34.670 -14.057 -21.135  0.00  0.00    +0.383 N 
ATOM     18  H   UNL     1      35.024 -14.903 -20.688  0.00  0.00    -0.089 HD
ATOM     19  H   UNL     1      33.754 -13.826 -20.748  0.00  0.00    -0.089 HD
ATOM     20  H   UNL     1      35.316 -13.286 -20.964  0.00  0.00    -0.089 HD
ENDBRANCH   4  17
BRANCH   2  21
ATOM     21  C   UNL     1      34.969 -17.476 -24.628  0.00  0.00    +0.098 C 
BRANCH  21  22
ATOM     22  C   UNL     1      34.251 -18.628 -23.928  0.00  0.00    +0.048 C 
BRANCH  22  25
ATOM     23  O   UNL     1      34.744 -21.502 -19.943  0.00  0.00    -0.435 OA
ATOM     24  O   UNL     1      36.953 -20.664 -19.469  0.00  0.00    -0.435 OA
ATOM     25  C   UNL     1      35.008 -19.155 -22.734  0.00  0.00    -0.017 C 
ATOM     26  C   UNL     1      34.416 -20.117 -21.928  0.00  0.00    +0.036 C 
ATOM     27  C   UNL     1      36.288 -18.659 -22.470  0.00  0.00    -0.001 C 
ATOM     28  C   UNL     1      35.147 -20.568 -20.847  0.00  0.00    +0.176 C 
ATOM     29  C   UNL     1      36.409 -20.089 -20.576  0.00  0.00    +0.176 C 
ATOM     30  C   UNL     1      37.008 -19.133 -21.370  0.00  0.00    +0.040 C 
ATOM     31  C   UNL     1      35.893 -21.557 -19.073  0.00  0.00    +0.429 C 
ENDBRANCH  22  25
ENDBRANCH  21  22
ENDBRANCH   2  21
TORSDOF 5
ENDMDL
MODEL 7
REMARK VINA RESULT:     -11.2      4.049      6.779
REMARK  Name = 16040279
REMARK  5 active torsions:
REMARK  status: ('A' for Active; 'I' for Inactive)
REMARK    1  A    between atoms: N_2  and  C_21
REMARK    2  A    between atoms: C_3  and  C_11
REMARK    3  A    between atoms: C_4  and  N_17
REMARK    4  A    between atoms: C_21  and  C_22
REMARK    5  A    between atoms: C_22  and  C_25
REMARK                            x       y       z     vdW  Elec       q    Type
REMARK                         _______ _______ _______ _____ _____    ______ ____
ROOT
ATOM      1  O   UNL     1      36.816 -22.352 -18.534  0.00  0.00    -0.275 OA
ATOM      2  N   UNL     1      34.518 -22.420 -18.850  0.00  0.00    -0.281 N 
ATOM      3  C   UNL     1      34.789 -20.484 -20.956  0.00  0.00    +0.015 C 
ATOM      4  C   UNL     1      33.427 -20.652 -20.260  0.00  0.00    -0.041 C 
ATOM      5  C   UNL     1      33.358 -22.055 -19.661  0.00  0.00    +0.072 C 
ATOM      6  C   UNL     1      35.893 -20.650 -19.907  0.00  0.00    +0.088 C 
ATOM      7  C   UNL     1      35.794 -21.904 -19.061  0.00  0.00    +0.226 C 
ENDROOT
BRANCH   3  11
ATOM      8  F   UNL     1      34.960 -20.286 -23.782  0.00  0.00    -0.204 F 
ATOM      9  F   UNL     1      35.278 -15.622 -20.943  0.00  0.00    -0.202 F 
ATOM     10  F   UNL     1      35.429 -15.579 -23.673  0.00  0.00    -0.202 F 
ATOM     11  C   UNL     1      34.962 -19.164 -21.690  0.00  0.00    +0.006 C 
ATOM     12  C   UNL     1      35.038 -19.147 -23.080  0.00  0.00    +0.138 C 
ATOM     13  C   UNL     1      35.043 -17.978 -20.965  0.00  0.00    +0.030 C 
ATOM     14  C   UNL     1      35.201 -16.765 -21.636  0.00  0.00    +0.167 C 
ATOM     15  C   UNL     1      35.196 -17.934 -23.751  0.00  0.00    +0.061 C 
ATOM     16  C   UNL     1      35.277 -16.743 -23.028  0.00  0.00    +0.170 C 
ENDBRANCH   3  11
BRANCH   4  17
ATOM     17  N   UNL     1      32.309 -20.493 -21.194  0.00  0.00    +0.383 N 
ATOM     18  H   UNL     1      32.137 -19.501 -21.353  0.00  0.00    -0.089 HD
ATOM     19  H   UNL     1      31.472 -20.925 -20.798  0.00  0.00    -0.089 HD
ATOM     20  H   UNL     1      32.538 -20.945 -22.079  0.00  0.00    -0.089 HD
ENDBRANCH   4  17
BRANCH   2  21
ATOM     21  C   UNL     1      34.342 -23.568 -17.970  0.00  0.00    +0.098 C 
BRANCH  21  22
ATOM     22  C   UNL     1      34.022 -23.161 -16.533  0.00  0.00    +0.048 C 
BRANCH  22  25
ATOM     23  O   UNL     1      29.139 -22.809 -17.178  0.00  0.00    -0.435 OA
ATOM     24  O   UNL     1      28.668 -24.121 -15.212  0.00  0.00    -0.435 OA
ATOM     25  C   UNL     1      32.590 -23.440 -16.148  0.00  0.00    -0.017 C 
ATOM     26  C   UNL     1      31.566 -22.933 -16.937  0.00  0.00    +0.036 C 
ATOM     27  C   UNL     1      32.332 -24.201 -15.005  0.00  0.00    -0.001 C 
ATOM     28  C   UNL     1      30.273 -23.214 -16.543  0.00  0.00    +0.176 C 
ATOM     29  C   UNL     1      30.004 -23.962 -15.420  0.00  0.00    +0.176 C 
ATOM     30  C   UNL     1      31.013 -24.471 -14.629  0.00  0.00    +0.040 C 
ATOM     31  C   UNL     1      28.127 -23.388 -16.329  0.00  0.00    +0.429 C 
ENDBRANCH  22  25
ENDBRANCH  21  22
ENDBRANCH   2  21
TORSDOF 5
ENDMDL
MODEL 8
REMARK VINA RESULT:     -11.2      3.999      8.878
REMARK  Name = 16040279
REMARK  5 active torsions:
REMARK  status: ('A' for Active; 'I' for Inactive)
REMARK    1  A    between atoms: N_2  and  C_21
REMARK    2  A    between atoms: C_3  and  C_11
REMARK    3  A    between atoms: C_4  and  N_17
REMARK    4  A    between atoms: C_21  and  C_22
REMARK    5  A    between atoms: C_22  and  C_25
REMARK                            x       y       z     vdW  Elec       q    Type
REMARK                         _______ _______ _______ _____ _____    ______ ____
ROOT
ATOM      1  O   UNL     1      34.118 -19.394 -25.694  0.00  0.00    -0.275 OA
ATOM      2  N   UNL     1      34.661 -17.588 -24.342  0.00  0.00    -0.281 N 
ATOM      3  C   UNL     1      35.149 -19.410 -22.173  0.00  0.00    +0.015 C 
ATOM      4  C   UNL     1      34.846 -17.933 -21.861  0.00  0.00    -0.041 C 
ATOM      5  C   UNL     1      35.214 -17.093 -23.082  0.00  0.00    +0.072 C 
ATOM      6  C   UNL     1      34.294 -19.838 -23.369  0.00  0.00    +0.088 C 
ATOM      7  C   UNL     1      34.381 -18.931 -24.582  0.00  0.00    +0.226 C 
ENDROOT
BRANCH   3  11
ATOM      8  F   UNL     1      32.574 -20.200 -21.280  0.00  0.00    -0.204 F 
ATOM      9  F   UNL     1      36.872 -22.254 -18.593  0.00  0.00    -0.202 F 
ATOM     10  F   UNL     1      34.332 -22.931 -17.839  0.00  0.00    -0.202 F 
ATOM     11  C   UNL     1      34.926 -20.358 -21.006  0.00  0.00    +0.006 C 
ATOM     12  C   UNL     1      33.632 -20.699 -20.626  0.00  0.00    +0.138 C 
ATOM     13  C   UNL     1      36.022 -20.879 -20.324  0.00  0.00    +0.030 C 
ATOM     14  C   UNL     1      35.821 -21.750 -19.252  0.00  0.00    +0.167 C 
ATOM     15  C   UNL     1      33.430 -21.569 -19.554  0.00  0.00    +0.061 C 
ATOM     16  C   UNL     1      34.526 -22.095 -18.868  0.00  0.00    +0.170 C 
ENDBRANCH   3  11
BRANCH   4  17
ATOM     17  N   UNL     1      35.615 -17.444 -20.715  0.00  0.00    +0.383 N 
ATOM     18  H   UNL     1      35.147 -17.714 -19.851  0.00  0.00    -0.089 HD
ATOM     19  H   UNL     1      35.684 -16.426 -20.762  0.00  0.00    -0.089 HD
ATOM     20  H   UNL     1      36.552 -17.849 -20.735  0.00  0.00    -0.089 HD
ENDBRANCH   4  17
BRANCH   2  21
ATOM     21  C   UNL     1      34.666 -16.645 -25.452  0.00  0.00    +0.098 C 
BRANCH  21  22
ATOM     22  C   UNL     1      33.307 -15.978 -25.661  0.00  0.00    +0.048 C 
BRANCH  22  25
ATOM     23  O   UNL     1      33.037 -12.048 -22.684  0.00  0.00    -0.435 OA
ATOM     24  O   UNL     1      33.370 -10.503 -24.503  0.00  0.00    -0.435 OA
ATOM     25  C   UNL     1      33.330 -14.495 -25.385  0.00  0.00    -0.017 C 
ATOM     26  C   UNL     1      33.159 -14.047 -24.082  0.00  0.00    +0.036 C 
ATOM     27  C   UNL     1      33.523 -13.611 -26.449  0.00  0.00    -0.001 C 
ATOM     28  C   UNL     1      33.187 -12.682 -23.879  0.00  0.00    +0.176 C 
ATOM     29  C   UNL     1      33.376 -11.799 -24.918  0.00  0.00    +0.176 C 
ATOM     30  C   UNL     1      33.548 -12.233 -26.217  0.00  0.00    +0.040 C 
ATOM     31  C   UNL     1      33.155 -10.669 -23.087  0.00  0.00    +0.429 C 
ENDBRANCH  22  25
ENDBRANCH  21  22
ENDBRANCH   2  21
TORSDOF 5
ENDMDL
MODEL 9
REMARK VINA RESULT:     -11.1      4.160      9.322
REMARK  Name = 16040279
REMARK  5 active torsions:
REMARK  status: ('A' for Active; 'I' for Inactive)
REMARK    1  A    between atoms: N_2  and  C_21
REMARK    2  A    between atoms: C_3  and  C_11
REMARK    3  A    between atoms: C_4  and  N_17
REMARK    4  A    between atoms: C_21  and  C_22
REMARK    5  A    between atoms: C_22  and  C_25
REMARK                            x       y       z     vdW  Elec       q    Type
REMARK                         _______ _______ _______ _____ _____    ______ ____
ROOT
ATOM      1  O   UNL     1      34.530 -17.303 -25.807  0.00  0.00    -0.275 OA
ATOM      2  N   UNL     1      34.444 -15.845 -24.003  0.00  0.00    -0.281 N 
ATOM      3  C   UNL     1      35.416 -17.951 -22.306  0.00  0.00    +0.015 C 
ATOM      4  C   UNL     1      34.659 -16.768 -21.677  0.00  0.00    -0.041 C 
ATOM      5  C   UNL     1      34.780 -15.564 -22.608  0.00  0.00    +0.072 C 
ATOM      6  C   UNL     1      34.771 -18.277 -23.656  0.00  0.00    +0.088 C 
ATOM      7  C   UNL     1      34.604 -17.096 -24.593  0.00  0.00    +0.226 C 
ENDROOT
BRANCH   3  11
ATOM      8  F   UNL     1      37.828 -19.015 -21.254  0.00  0.00    -0.204 F 
ATOM      9  F   UNL     1      33.203 -21.664 -20.028  0.00  0.00    -0.202 F 
ATOM     10  F   UNL     1      35.599 -22.579 -19.082  0.00  0.00    -0.202 F 
ATOM     11  C   UNL     1      35.468 -19.198 -21.438  0.00  0.00    +0.006 C 
ATOM     12  C   UNL     1      36.691 -19.659 -20.958  0.00  0.00    +0.138 C 
ATOM     13  C   UNL     1      34.290 -19.870 -21.127  0.00  0.00    +0.030 C 
ATOM     14  C   UNL     1      34.334 -21.014 -20.330  0.00  0.00    +0.167 C 
ATOM     15  C   UNL     1      36.735 -20.804 -20.162  0.00  0.00    +0.061 C 
ATOM     16  C   UNL     1      35.557 -21.481 -19.847  0.00  0.00    +0.170 C 
ENDBRANCH   3  11
BRANCH   4  17
ATOM     17  N   UNL     1      35.205 -16.397 -20.370  0.00  0.00    +0.383 N 
ATOM     18  H   UNL     1      35.597 -15.457 -20.419  0.00  0.00    -0.089 HD
ATOM     19  H   UNL     1      35.937 -17.059 -20.108  0.00  0.00    -0.089 HD
ATOM     20  H   UNL     1      34.461 -16.419 -19.671  0.00  0.00    -0.089 HD
ENDBRANCH   4  17
BRANCH   2  21
ATOM     21  C   UNL     1      34.185 -14.682 -24.842  0.00  0.00    +0.098 C 
BRANCH  21  22
ATOM     22  C   UNL     1      33.093 -13.779 -24.270  0.00  0.00    +0.048 C 
BRANCH  22  25
ATOM     23  O   UNL     1      32.898  -9.242 -22.332  0.00  0.00    -0.435 OA
ATOM     24  O   UNL     1      34.546  -8.389 -23.869  0.00  0.00    -0.435 OA
ATOM     25  C   UNL     1      33.509 -12.331 -24.190  0.00  0.00    -0.017 C 
ATOM     26  C   UNL     1      32.932 -11.514 -23.228  0.00  0.00    +0.036 C 
ATOM     27  C   UNL     1      34.465 -11.850 -25.088  0.00  0.00    -0.001 C 
ATOM     28  C   UNL     1      33.343 -10.197 -23.194  0.00  0.00    +0.176 C 
ATOM     29  C   UNL     1      34.284  -9.709 -24.072  0.00  0.00    +0.176 C 
ATOM     30  C   UNL     1      34.865 -10.512 -25.032  0.00  0.00    +0.040 C 
ATOM     31  C   UNL     1      33.665  -8.101 -22.765  0.00  0.00    +0.429 C 
ENDBRANCH  22  25
ENDBRANCH  21  22
ENDBRANCH   2  21
TORSDOF 5
ENDMDL
