MODEL 1
REMARK VINA RESULT:     -11.6      0.000      0.000
REMARK  Name = 68488178
REMARK  9 active torsions:
REMARK  status: ('A' for Active; 'I' for Inactive)
REMARK    1  A    between atoms: N_1  and  C_10
REMARK    2  A    between atoms: N_2  and  C_29
REMARK    3  A    between atoms: C_10  and  C_11
REMARK    4  A    between atoms: C_16  and  O_17
REMARK    5  A    between atoms: O_17  and  C_18
REMARK    6  A    between atoms: C_23  and  C_26
REMARK    7  A    between atoms: C_29  and  C_30
REMARK    8  A    between atoms: C_35  and  C_37
REMARK    9  A    between atoms: C_37  and  O_38
REMARK                            x       y       z     vdW  Elec       q    Type
REMARK                         _______ _______ _______ _____ _____    ______ ____
ROOT
ATOM      1  N   UNL     1      33.727 -12.279 -23.585  0.00  0.00    +0.388 N 
ATOM      2  N   UNL     1      34.489  -9.582 -23.585  0.00  0.00    +0.388 N 
ATOM      3  C   UNL     1      34.212 -11.588 -24.803  0.00  0.00    -0.081 C 
ATOM      4  C   UNL     1      33.084 -10.015 -23.785  0.00  0.00    -0.081 C 
ATOM      5  C   UNL     1      33.083 -10.641 -25.168  0.00  0.00    -0.046 C 
ATOM      6  C   UNL     1      32.886 -11.262 -22.904  0.00  0.00    -0.098 C 
ATOM      7  C   UNL     1      35.285 -10.587 -24.334  0.00  0.00    -0.098 C 
ATOM      8  H   UNL     1      34.496 -12.604 -22.998  0.00  0.00    -0.079 HD
ATOM      9  H   UNL     1      34.740  -9.544 -22.596  0.00  0.00    -0.079 HD
ENDROOT
BRANCH   1  10
ATOM     10  C   UNL     1      32.980 -13.494 -23.888  0.00  0.00    -0.050 C 
BRANCH  10  11
ATOM     11  C   UNL     1      33.805 -14.732 -23.656  0.00  0.00    -0.043 C 
ATOM     12  C   UNL     1      33.913 -15.696 -24.659  0.00  0.00    -0.003 C 
ATOM     13  C   UNL     1      34.461 -14.915 -22.438  0.00  0.00    -0.003 C 
ATOM     14  C   UNL     1      34.677 -16.843 -24.444  0.00  0.00    +0.037 C 
ATOM     15  C   UNL     1      35.225 -16.062 -22.223  0.00  0.00    +0.037 C 
ATOM     16  C   UNL     1      35.333 -17.026 -23.226  0.00  0.00    +0.145 C 
BRANCH  16  17
ATOM     17  O   UNL     1      36.077 -18.146 -23.016  0.00  0.00    -0.453 OA
BRANCH  17  18
ATOM     18  C   UNL     1      35.623 -19.054 -22.075  0.00  0.00    +0.145 C 
ATOM     19  C   UNL     1      36.515 -19.621 -21.165  0.00  0.00    +0.038 C 
ATOM     20  C   UNL     1      34.273 -19.404 -22.038  0.00  0.00    +0.038 C 
ATOM     21  C   UNL     1      36.057 -20.538 -20.219  0.00  0.00    +0.008 C 
ATOM     22  C   UNL     1      33.815 -20.321 -21.092  0.00  0.00    +0.008 C 
ATOM     23  C   UNL     1      34.708 -20.888 -20.181  0.00  0.00    +0.054 C 
BRANCH  23  26
ATOM     24  O   UNL     1      32.898 -21.791 -18.952  0.00  0.00    -0.431 OA
ATOM     25  N   UNL     1      34.907 -22.737 -18.522  0.00  0.00    -0.206 NA
ATOM     26  C   UNL     1      34.235 -21.837 -19.204  0.00  0.00    +0.230 C 
ATOM     27  C   UNL     1      32.717 -22.764 -18.015  0.00  0.00    +0.202 C 
ATOM     28  C   UNL     1      33.938 -23.335 -17.759  0.00  0.00    +0.143 C 
ENDBRANCH  23  26
ENDBRANCH  17  18
ENDBRANCH  16  17
ENDBRANCH  10  11
ENDBRANCH   1  10
BRANCH   2  29
ATOM     29  C   UNL     1      34.732  -8.225 -24.060  0.00  0.00    -0.050 C 
BRANCH  29  30
ATOM     30  C   UNL     1      33.695  -7.259 -23.551  0.00  0.00    -0.043 C 
ATOM     31  C   UNL     1      33.256  -7.341 -22.230  0.00  0.00    -0.006 C 
ATOM     32  C   UNL     1      33.174  -6.284 -24.401  0.00  0.00    -0.006 C 
ATOM     33  C   UNL     1      32.295  -6.447 -21.759  0.00  0.00    +0.006 C 
ATOM     34  C   UNL     1      32.213  -5.390 -23.931  0.00  0.00    +0.006 C 
ATOM     35  C   UNL     1      31.773  -5.470 -22.608  0.00  0.00    +0.075 C 
BRANCH  35  37
ATOM     36  O   UNL     1      30.358  -3.546 -22.725  0.00  0.00    -0.245 OA
ATOM     37  C   UNL     1      30.772  -4.538 -22.117  0.00  0.00    +0.338 C 
BRANCH  37  38
ATOM     38  O   UNL     1      30.314  -4.871 -20.879  0.00  0.00    -0.477 OA
ATOM     39  H   UNL     1      30.918  -4.997 -20.174  0.00  0.00    +0.295 HD
ENDBRANCH  37  38
ENDBRANCH  35  37
ENDBRANCH  29  30
ENDBRANCH   2  29
TORSDOF 9
ENDMDL
MODEL 2
REMARK VINA RESULT:     -11.1      5.411     14.885
REMARK  Name = 68488178
REMARK  9 active torsions:
REMARK  status: ('A' for Active; 'I' for Inactive)
REMARK    1  A    between atoms: N_1  and  C_10
REMARK    2  A    between atoms: N_2  and  C_29
REMARK    3  A    between atoms: C_10  and  C_11
REMARK    4  A    between atoms: C_16  and  O_17
REMARK    5  A    between atoms: O_17  and  C_18
REMARK    6  A    between atoms: C_23  and  C_26
REMARK    7  A    between atoms: C_29  and  C_30
REMARK    8  A    between atoms: C_35  and  C_37
REMARK    9  A    between atoms: C_37  and  O_38
REMARK                            x       y       z     vdW  Elec       q    Type
REMARK                         _______ _______ _______ _____ _____    ______ ____
ROOT
ATOM      1  N   UNL     1      33.189 -23.751 -17.019  0.00  0.00    +0.388 N 
ATOM      2  N   UNL     1      34.280 -25.013 -14.768  0.00  0.00    +0.388 N 
ATOM      3  C   UNL     1      34.357 -23.205 -16.287  0.00  0.00    -0.081 C 
ATOM      4  C   UNL     1      33.146 -24.060 -14.678  0.00  0.00    -0.081 C 
ATOM      5  C   UNL     1      33.774 -22.710 -14.975  0.00  0.00    -0.046 C 
ATOM      6  C   UNL     1      32.302 -24.271 -15.949  0.00  0.00    -0.098 C 
ATOM      7  C   UNL     1      35.168 -24.420 -15.800  0.00  0.00    -0.098 C 
ATOM      8  H   UNL     1      33.462 -24.474 -17.686  0.00  0.00    -0.079 HD
ATOM      9  H   UNL     1      33.970 -25.953 -15.015  0.00  0.00    -0.079 HD
ENDROOT
BRANCH   1  10
ATOM     10  C   UNL     1      32.525 -22.748 -17.844  0.00  0.00    -0.050 C 
BRANCH  10  11
ATOM     11  C   UNL     1      33.484 -22.070 -18.785  0.00  0.00    -0.043 C 
ATOM     12  C   UNL     1      34.854 -22.319 -18.684  0.00  0.00    -0.003 C 
ATOM     13  C   UNL     1      33.004 -21.194 -19.759  0.00  0.00    -0.003 C 
ATOM     14  C   UNL     1      35.743 -21.691 -19.556  0.00  0.00    +0.037 C 
ATOM     15  C   UNL     1      33.894 -20.567 -20.632  0.00  0.00    +0.037 C 
ATOM     16  C   UNL     1      35.263 -20.815 -20.530  0.00  0.00    +0.145 C 
BRANCH  16  17
ATOM     17  O   UNL     1      36.131 -20.202 -21.381  0.00  0.00    -0.453 OA
BRANCH  17  18
ATOM     18  C   UNL     1      35.623 -19.232 -22.230  0.00  0.00    +0.145 C 
ATOM     19  C   UNL     1      35.787 -17.882 -21.922  0.00  0.00    +0.038 C 
ATOM     20  C   UNL     1      34.948 -19.607 -23.391  0.00  0.00    +0.038 C 
ATOM     21  C   UNL     1      35.273 -16.906 -22.775  0.00  0.00    +0.008 C 
ATOM     22  C   UNL     1      34.434 -18.630 -24.244  0.00  0.00    +0.008 C 
ATOM     23  C   UNL     1      34.597 -17.279 -23.937  0.00  0.00    +0.054 C 
BRANCH  23  26
ATOM     24  O   UNL     1      33.756 -15.084 -24.223  0.00  0.00    -0.431 OA
ATOM     25  N   UNL     1      33.836 -16.328 -26.111  0.00  0.00    -0.206 NA
ATOM     26  C   UNL     1      34.065 -16.269 -24.819  0.00  0.00    +0.230 C 
ATOM     27  C   UNL     1      33.285 -14.325 -25.251  0.00  0.00    +0.202 C 
ATOM     28  C   UNL     1      33.336 -15.083 -26.394  0.00  0.00    +0.143 C 
ENDBRANCH  23  26
ENDBRANCH  17  18
ENDBRANCH  16  17
ENDBRANCH  10  11
ENDBRANCH   1  10
BRANCH   2  29
ATOM     29  C   UNL     1      34.964 -25.193 -13.493  0.00  0.00    -0.050 C 
BRANCH  29  30
ATOM     30  C   UNL     1      36.439 -25.429 -13.677  0.00  0.00    -0.043 C 
ATOM     31  C   UNL     1      37.363 -24.589 -13.052  0.00  0.00    -0.006 C 
ATOM     32  C   UNL     1      36.884 -26.485 -14.472  0.00  0.00    -0.006 C 
ATOM     33  C   UNL     1      38.729 -24.807 -13.223  0.00  0.00    +0.006 C 
ATOM     34  C   UNL     1      38.250 -26.702 -14.644  0.00  0.00    +0.006 C 
ATOM     35  C   UNL     1      39.174 -25.864 -14.018  0.00  0.00    +0.075 C 
BRANCH  35  37
ATOM     36  O   UNL     1      41.213 -27.101 -13.839  0.00  0.00    -0.245 OA
ATOM     37  C   UNL     1      40.599 -26.091 -14.196  0.00  0.00    +0.338 C 
BRANCH  37  38
ATOM     38  O   UNL     1      41.218 -25.050 -14.816  0.00  0.00    -0.477 OA
ATOM     39  H   UNL     1      41.223 -24.202 -14.417  0.00  0.00    +0.295 HD
ENDBRANCH  37  38
ENDBRANCH  35  37
ENDBRANCH  29  30
ENDBRANCH   2  29
TORSDOF 9
ENDMDL
MODEL 3
REMARK VINA RESULT:     -10.9      2.680     12.989
REMARK  Name = 68488178
REMARK  9 active torsions:
REMARK  status: ('A' for Active; 'I' for Inactive)
REMARK    1  A    between atoms: N_1  and  C_10
REMARK    2  A    between atoms: N_2  and  C_29
REMARK    3  A    between atoms: C_10  and  C_11
REMARK    4  A    between atoms: C_16  and  O_17
REMARK    5  A    between atoms: O_17  and  C_18
REMARK    6  A    between atoms: C_23  and  C_26
REMARK    7  A    between atoms: C_29  and  C_30
REMARK    8  A    between atoms: C_35  and  C_37
REMARK    9  A    between atoms: C_37  and  O_38
REMARK                            x       y       z     vdW  Elec       q    Type
REMARK                         _______ _______ _______ _____ _____    ______ ____
ROOT
ATOM      1  N   UNL     1      34.989 -17.442 -22.518  0.00  0.00    +0.388 N 
ATOM      2  N   UNL     1      35.238 -19.820 -21.057  0.00  0.00    +0.388 N 
ATOM      3  C   UNL     1      35.665 -18.645 -23.062  0.00  0.00    -0.081 C 
ATOM      4  C   UNL     1      36.215 -18.708 -20.946  0.00  0.00    -0.081 C 
ATOM      5  C   UNL     1      36.957 -18.734 -22.270  0.00  0.00    -0.046 C 
ATOM      6  C   UNL     1      35.407 -17.406 -21.094  0.00  0.00    -0.098 C 
ATOM      7  C   UNL     1      34.901 -19.858 -22.503  0.00  0.00    -0.098 C 
ATOM      8  H   UNL     1      33.976 -17.491 -22.627  0.00  0.00    -0.079 HD
ATOM      9  H   UNL     1      34.418 -19.667 -20.469  0.00  0.00    -0.079 HD
ENDROOT
BRANCH   1  10
ATOM     10  C   UNL     1      35.357 -16.222 -23.229  0.00  0.00    -0.050 C 
BRANCH  10  11
ATOM     11  C   UNL     1      34.425 -15.084 -22.909  0.00  0.00    -0.043 C 
ATOM     12  C   UNL     1      33.663 -14.502 -23.923  0.00  0.00    -0.003 C 
ATOM     13  C   UNL     1      34.322 -14.612 -21.601  0.00  0.00    -0.003 C 
ATOM     14  C   UNL     1      32.800 -13.447 -23.628  0.00  0.00    +0.037 C 
ATOM     15  C   UNL     1      33.459 -13.557 -21.305  0.00  0.00    +0.037 C 
ATOM     16  C   UNL     1      32.697 -12.975 -22.319  0.00  0.00    +0.145 C 
BRANCH  16  17
ATOM     17  O   UNL     1      31.855 -11.945 -22.031  0.00  0.00    -0.453 OA
BRANCH  17  18
ATOM     18  C   UNL     1      32.166 -10.696 -22.543  0.00  0.00    +0.145 C 
ATOM     19  C   UNL     1      31.276  -9.635 -22.381  0.00  0.00    +0.038 C 
ATOM     20  C   UNL     1      33.369 -10.501 -23.222  0.00  0.00    +0.038 C 
ATOM     21  C   UNL     1      31.588  -8.378 -22.899  0.00  0.00    +0.008 C 
ATOM     22  C   UNL     1      33.681  -9.244 -23.740  0.00  0.00    +0.008 C 
ATOM     23  C   UNL     1      32.790  -8.182 -23.578  0.00  0.00    +0.054 C 
BRANCH  23  26
ATOM     24  O   UNL     1      34.376  -6.755 -24.605  0.00  0.00    -0.431 OA
ATOM     25  N   UNL     1      32.364  -5.806 -24.197  0.00  0.00    -0.206 NA
ATOM     26  C   UNL     1      33.112  -6.882 -24.114  0.00  0.00    +0.230 C 
ATOM     27  C   UNL     1      34.421  -5.465 -25.039  0.00  0.00    +0.202 C 
ATOM     28  C   UNL     1      33.198  -4.893 -24.790  0.00  0.00    +0.143 C 
ENDBRANCH  23  26
ENDBRANCH  17  18
ENDBRANCH  16  17
ENDBRANCH  10  11
ENDBRANCH   1  10
BRANCH   2  29
ATOM     29  C   UNL     1      35.777 -21.090 -20.585  0.00  0.00    -0.050 C 
BRANCH  29  30
ATOM     30  C   UNL     1      34.909 -21.705 -19.520  0.00  0.00    -0.043 C 
ATOM     31  C   UNL     1      33.520 -21.631 -19.624  0.00  0.00    -0.006 C 
ATOM     32  C   UNL     1      35.494 -22.348 -18.428  0.00  0.00    -0.006 C 
ATOM     33  C   UNL     1      32.717 -22.200 -18.636  0.00  0.00    +0.006 C 
ATOM     34  C   UNL     1      34.690 -22.916 -17.441  0.00  0.00    +0.006 C 
ATOM     35  C   UNL     1      33.301 -22.844 -17.545  0.00  0.00    +0.075 C 
BRANCH  35  37
ATOM     36  O   UNL     1      32.869 -24.083 -15.545  0.00  0.00    -0.245 OA
ATOM     37  C   UNL     1      32.463 -23.437 -16.516  0.00  0.00    +0.338 C 
BRANCH  37  38
ATOM     38  O   UNL     1      31.138 -23.207 -16.728  0.00  0.00    -0.477 OA
ATOM     39  H   UNL     1      30.679 -22.586 -16.196  0.00  0.00    +0.295 HD
ENDBRANCH  37  38
ENDBRANCH  35  37
ENDBRANCH  29  30
ENDBRANCH   2  29
TORSDOF 9
ENDMDL
MODEL 4
REMARK VINA RESULT:     -10.9      2.672     12.991
REMARK  Name = 68488178
REMARK  9 active torsions:
REMARK  status: ('A' for Active; 'I' for Inactive)
REMARK    1  A    between atoms: N_1  and  C_10
REMARK    2  A    between atoms: N_2  and  C_29
REMARK    3  A    between atoms: C_10  and  C_11
REMARK    4  A    between atoms: C_16  and  O_17
REMARK    5  A    between atoms: O_17  and  C_18
REMARK    6  A    between atoms: C_23  and  C_26
REMARK    7  A    between atoms: C_29  and  C_30
REMARK    8  A    between atoms: C_35  and  C_37
REMARK    9  A    between atoms: C_37  and  O_38
REMARK                            x       y       z     vdW  Elec       q    Type
REMARK                         _______ _______ _______ _____ _____    ______ ____
ROOT
ATOM      1  N   UNL     1      34.950 -17.380 -22.540  0.00  0.00    +0.388 N 
ATOM      2  N   UNL     1      35.186 -19.781 -21.115  0.00  0.00    +0.388 N 
ATOM      3  C   UNL     1      35.639 -18.571 -23.093  0.00  0.00    -0.081 C 
ATOM      4  C   UNL     1      36.155 -18.668 -20.970  0.00  0.00    -0.081 C 
ATOM      5  C   UNL     1      36.919 -18.669 -22.282  0.00  0.00    -0.046 C 
ATOM      6  C   UNL     1      35.344 -17.367 -21.109  0.00  0.00    -0.098 C 
ATOM      7  C   UNL     1      34.871 -19.797 -22.566  0.00  0.00    -0.098 C 
ATOM      8  H   UNL     1      33.938 -17.432 -22.665  0.00  0.00    -0.079 HD
ATOM      9  H   UNL     1      34.355 -19.642 -20.538  0.00  0.00    -0.079 HD
ENDROOT
BRANCH   1  10
ATOM     10  C   UNL     1      35.324 -16.148 -23.224  0.00  0.00    -0.050 C 
BRANCH  10  11
ATOM     11  C   UNL     1      34.383 -15.018 -22.899  0.00  0.00    -0.043 C 
ATOM     12  C   UNL     1      34.259 -14.571 -21.583  0.00  0.00    -0.003 C 
ATOM     13  C   UNL     1      33.635 -14.419 -23.913  0.00  0.00    -0.003 C 
ATOM     14  C   UNL     1      33.387 -13.525 -21.282  0.00  0.00    +0.037 C 
ATOM     15  C   UNL     1      32.764 -13.373 -23.612  0.00  0.00    +0.037 C 
ATOM     16  C   UNL     1      32.639 -12.926 -22.296  0.00  0.00    +0.145 C 
BRANCH  16  17
ATOM     17  O   UNL     1      31.788 -11.905 -22.002  0.00  0.00    -0.453 OA
BRANCH  17  18
ATOM     18  C   UNL     1      32.085 -10.652 -22.512  0.00  0.00    +0.145 C 
ATOM     19  C   UNL     1      31.206  -9.589 -22.304  0.00  0.00    +0.038 C 
ATOM     20  C   UNL     1      33.262 -10.453 -23.233  0.00  0.00    +0.038 C 
ATOM     21  C   UNL     1      31.503  -8.328 -22.820  0.00  0.00    +0.008 C 
ATOM     22  C   UNL     1      33.559  -9.192 -23.749  0.00  0.00    +0.008 C 
ATOM     23  C   UNL     1      32.679  -8.128 -23.542  0.00  0.00    +0.054 C 
BRANCH  23  26
ATOM     24  O   UNL     1      34.218  -6.706 -24.643  0.00  0.00    -0.431 OA
ATOM     25  N   UNL     1      32.250  -5.736 -24.094  0.00  0.00    -0.206 NA
ATOM     26  C   UNL     1      32.986  -6.824 -24.076  0.00  0.00    +0.230 C 
ATOM     27  C   UNL     1      34.255  -5.409 -25.058  0.00  0.00    +0.202 C 
ATOM     28  C   UNL     1      33.059  -4.825 -24.723  0.00  0.00    +0.143 C 
ENDBRANCH  23  26
ENDBRANCH  17  18
ENDBRANCH  16  17
ENDBRANCH  10  11
ENDBRANCH   1  10
BRANCH   2  29
ATOM     29  C   UNL     1      35.722 -21.057 -20.656  0.00  0.00    -0.050 C 
BRANCH  29  30
ATOM     30  C   UNL     1      34.867 -21.669 -19.579  0.00  0.00    -0.043 C 
ATOM     31  C   UNL     1      35.465 -22.325 -18.502  0.00  0.00    -0.006 C 
ATOM     32  C   UNL     1      33.476 -21.582 -19.657  0.00  0.00    -0.006 C 
ATOM     33  C   UNL     1      34.672 -22.892 -17.505  0.00  0.00    +0.006 C 
ATOM     34  C   UNL     1      32.685 -22.150 -18.660  0.00  0.00    +0.006 C 
ATOM     35  C   UNL     1      33.282 -22.805 -17.582  0.00  0.00    +0.075 C 
BRANCH  35  37
ATOM     36  O   UNL     1      32.877 -24.022 -15.564  0.00  0.00    -0.245 OA
ATOM     37  C   UNL     1      32.457 -23.396 -16.542  0.00  0.00    +0.338 C 
BRANCH  37  38
ATOM     38  O   UNL     1      31.128 -23.188 -16.751  0.00  0.00    -0.477 OA
ATOM     39  H   UNL     1      30.497 -23.570 -16.173  0.00  0.00    +0.295 HD
ENDBRANCH  37  38
ENDBRANCH  35  37
ENDBRANCH  29  30
ENDBRANCH   2  29
TORSDOF 9
ENDMDL
MODEL 5
REMARK VINA RESULT:     -10.7      3.837      7.504
REMARK  Name = 68488178
REMARK  9 active torsions:
REMARK  status: ('A' for Active; 'I' for Inactive)
REMARK    1  A    between atoms: N_1  and  C_10
REMARK    2  A    between atoms: N_2  and  C_29
REMARK    3  A    between atoms: C_10  and  C_11
REMARK    4  A    between atoms: C_16  and  O_17
REMARK    5  A    between atoms: O_17  and  C_18
REMARK    6  A    between atoms: C_23  and  C_26
REMARK    7  A    between atoms: C_29  and  C_30
REMARK    8  A    between atoms: C_35  and  C_37
REMARK    9  A    between atoms: C_37  and  O_38
REMARK                            x       y       z     vdW  Elec       q    Type
REMARK                         _______ _______ _______ _____ _____    ______ ____
ROOT
ATOM      1  N   UNL     1      34.918 -19.185 -21.519  0.00  0.00    +0.388 N 
ATOM      2  N   UNL     1      34.651 -16.595 -22.553  0.00  0.00    +0.388 N 
ATOM      3  C   UNL     1      35.979 -18.158 -21.381  0.00  0.00    -0.081 C 
ATOM      4  C   UNL     1      35.159 -17.729 -23.363  0.00  0.00    -0.081 C 
ATOM      5  C   UNL     1      36.535 -18.009 -22.786  0.00  0.00    -0.046 C 
ATOM      6  C   UNL     1      34.390 -18.977 -22.890  0.00  0.00    -0.098 C 
ATOM      7  C   UNL     1      35.256 -16.810 -21.214  0.00  0.00    -0.098 C 
ATOM      8  H   UNL     1      34.197 -19.087 -20.803  0.00  0.00    -0.079 HD
ATOM      9  H   UNL     1      33.631 -16.574 -22.521  0.00  0.00    -0.079 HD
ENDROOT
BRANCH   1  10
ATOM     10  C   UNL     1      35.420 -20.540 -21.324  0.00  0.00    -0.050 C 
BRANCH  10  11
ATOM     11  C   UNL     1      34.669 -21.267 -20.241  0.00  0.00    -0.043 C 
ATOM     12  C   UNL     1      35.347 -22.136 -19.385  0.00  0.00    -0.003 C 
ATOM     13  C   UNL     1      33.296 -21.072 -20.092  0.00  0.00    -0.003 C 
ATOM     14  C   UNL     1      34.652 -22.809 -18.381  0.00  0.00    +0.037 C 
ATOM     15  C   UNL     1      32.600 -21.745 -19.088  0.00  0.00    +0.037 C 
ATOM     16  C   UNL     1      33.278 -22.614 -18.232  0.00  0.00    +0.145 C 
BRANCH  16  17
ATOM     17  O   UNL     1      32.599 -23.272 -17.253  0.00  0.00    -0.453 OA
BRANCH  17  18
ATOM     18  C   UNL     1      33.253 -23.492 -16.052  0.00  0.00    +0.145 C 
ATOM     19  C   UNL     1      34.647 -23.523 -16.013  0.00  0.00    +0.038 C 
ATOM     20  C   UNL     1      32.518 -23.683 -14.882  0.00  0.00    +0.038 C 
ATOM     21  C   UNL     1      35.306 -23.748 -14.805  0.00  0.00    +0.008 C 
ATOM     22  C   UNL     1      33.177 -23.907 -13.674  0.00  0.00    +0.008 C 
ATOM     23  C   UNL     1      34.572 -23.939 -13.634  0.00  0.00    +0.054 C 
BRANCH  23  26
ATOM     24  O   UNL     1      36.357 -23.404 -12.175  0.00  0.00    -0.431 OA
ATOM     25  N   UNL     1      34.962 -25.016 -11.421  0.00  0.00    -0.206 NA
ATOM     26  C   UNL     1      35.253 -24.172 -12.384  0.00  0.00    +0.230 C 
ATOM     27  C   UNL     1      36.802 -23.812 -10.954  0.00  0.00    +0.202 C 
ATOM     28  C   UNL     1      35.952 -24.789 -10.500  0.00  0.00    +0.143 C 
ENDBRANCH  23  26
ENDBRANCH  17  18
ENDBRANCH  16  17
ENDBRANCH  10  11
ENDBRANCH   1  10
BRANCH   2  29
ATOM     29  C   UNL     1      35.010 -15.298 -23.115  0.00  0.00    -0.050 C 
BRANCH  29  30
ATOM     30  C   UNL     1      34.061 -14.215 -22.677  0.00  0.00    -0.043 C 
ATOM     31  C   UNL     1      33.883 -13.081 -23.471  0.00  0.00    -0.006 C 
ATOM     32  C   UNL     1      33.360 -14.344 -21.478  0.00  0.00    -0.006 C 
ATOM     33  C   UNL     1      33.004 -12.078 -23.064  0.00  0.00    +0.006 C 
ATOM     34  C   UNL     1      32.482 -13.340 -21.072  0.00  0.00    +0.006 C 
ATOM     35  C   UNL     1      32.302 -12.207 -21.866  0.00  0.00    +0.075 C 
BRANCH  35  37
ATOM     36  O   UNL     1      31.712 -10.025 -21.083  0.00  0.00    -0.245 OA
ATOM     37  C   UNL     1      31.386 -11.161 -21.443  0.00  0.00    +0.338 C 
BRANCH  37  38
ATOM     38  O   UNL     1      30.085 -11.561 -21.484  0.00  0.00    -0.477 OA
ATOM     39  H   UNL     1      29.607 -11.519 -22.288  0.00  0.00    +0.295 HD
ENDBRANCH  37  38
ENDBRANCH  35  37
ENDBRANCH  29  30
ENDBRANCH   2  29
TORSDOF 9
ENDMDL
MODEL 6
REMARK VINA RESULT:     -10.6      2.623      3.825
REMARK  Name = 68488178
REMARK  9 active torsions:
REMARK  status: ('A' for Active; 'I' for Inactive)
REMARK    1  A    between atoms: N_1  and  C_10
REMARK    2  A    between atoms: N_2  and  C_29
REMARK    3  A    between atoms: C_10  and  C_11
REMARK    4  A    between atoms: C_16  and  O_17
REMARK    5  A    between atoms: O_17  and  C_18
REMARK    6  A    between atoms: C_23  and  C_26
REMARK    7  A    between atoms: C_29  and  C_30
REMARK    8  A    between atoms: C_35  and  C_37
REMARK    9  A    between atoms: C_37  and  O_38
REMARK                            x       y       z     vdW  Elec       q    Type
REMARK                         _______ _______ _______ _____ _____    ______ ____
ROOT
ATOM      1  N   UNL     1      32.057 -10.361 -22.869  0.00  0.00    +0.388 N 
ATOM      2  N   UNL     1      32.813  -7.734 -23.483  0.00  0.00    +0.388 N 
ATOM      3  C   UNL     1      31.351  -9.179 -22.318  0.00  0.00    -0.081 C 
ATOM      4  C   UNL     1      33.431  -8.504 -22.376  0.00  0.00    -0.081 C 
ATOM      5  C   UNL     1      32.337  -8.587 -21.327  0.00  0.00    -0.046 C 
ATOM      6  C   UNL     1      33.489  -9.969 -22.848  0.00  0.00    -0.098 C 
ATOM      7  C   UNL     1      31.377  -8.107 -23.423  0.00  0.00    -0.098 C 
ATOM      8  H   UNL     1      31.731 -10.598 -23.807  0.00  0.00    -0.079 HD
ATOM      9  H   UNL     1      33.236  -7.955 -24.385  0.00  0.00    -0.079 HD
ENDROOT
BRANCH   1  10
ATOM     10  C   UNL     1      31.809 -11.573 -22.097  0.00  0.00    -0.050 C 
BRANCH  10  11
ATOM     11  C   UNL     1      32.654 -12.724 -22.573  0.00  0.00    -0.043 C 
ATOM     12  C   UNL     1      33.401 -13.466 -21.657  0.00  0.00    -0.003 C 
ATOM     13  C   UNL     1      32.691 -13.050 -23.929  0.00  0.00    -0.003 C 
ATOM     14  C   UNL     1      34.184 -14.533 -22.097  0.00  0.00    +0.037 C 
ATOM     15  C   UNL     1      33.474 -14.116 -24.369  0.00  0.00    +0.037 C 
ATOM     16  C   UNL     1      34.221 -14.858 -23.453  0.00  0.00    +0.145 C 
BRANCH  16  17
ATOM     17  O   UNL     1      34.986 -15.899 -23.883  0.00  0.00    -0.453 OA
BRANCH  17  18
ATOM     18  C   UNL     1      35.064 -17.019 -23.072  0.00  0.00    +0.145 C 
ATOM     19  C   UNL     1      34.626 -18.255 -23.546  0.00  0.00    +0.038 C 
ATOM     20  C   UNL     1      35.580 -16.910 -21.781  0.00  0.00    +0.038 C 
ATOM     21  C   UNL     1      34.702 -19.382 -22.728  0.00  0.00    +0.008 C 
ATOM     22  C   UNL     1      35.656 -18.037 -20.963  0.00  0.00    +0.008 C 
ATOM     23  C   UNL     1      35.217 -19.274 -21.437  0.00  0.00    +0.054 C 
BRANCH  23  26
ATOM     24  O   UNL     1      34.109 -21.064 -20.355  0.00  0.00    -0.431 OA
ATOM     25  N   UNL     1      36.344 -20.984 -20.016  0.00  0.00    -0.206 NA
ATOM     26  C   UNL     1      35.295 -20.439 -20.591  0.00  0.00    +0.230 C 
ATOM     27  C   UNL     1      34.453 -22.107 -19.548  0.00  0.00    +0.202 C 
ATOM     28  C   UNL     1      35.810 -22.054 -19.346  0.00  0.00    +0.143 C 
ENDBRANCH  23  26
ENDBRANCH  17  18
ENDBRANCH  16  17
ENDBRANCH  10  11
ENDBRANCH   1  10
BRANCH   2  29
ATOM     29  C   UNL     1      33.012  -6.296 -23.346  0.00  0.00    -0.050 C 
BRANCH  29  30
ATOM     30  C   UNL     1      33.494  -5.672 -24.628  0.00  0.00    -0.043 C 
ATOM     31  C   UNL     1      34.806  -5.881 -25.055  0.00  0.00    -0.006 C 
ATOM     32  C   UNL     1      32.630  -4.884 -25.389  0.00  0.00    -0.006 C 
ATOM     33  C   UNL     1      35.252  -5.302 -26.243  0.00  0.00    +0.006 C 
ATOM     34  C   UNL     1      33.077  -4.305 -26.576  0.00  0.00    +0.006 C 
ATOM     35  C   UNL     1      34.388  -4.515 -27.004  0.00  0.00    +0.075 C 
BRANCH  35  37
ATOM     36  O   UNL     1      35.798  -3.122 -28.344  0.00  0.00    -0.245 OA
ATOM     37  C   UNL     1      34.854  -3.912 -28.242  0.00  0.00    +0.338 C 
BRANCH  37  38
ATOM     38  O   UNL     1      34.129  -4.314 -29.322  0.00  0.00    -0.477 OA
ATOM     39  H   UNL     1      33.608  -3.694 -29.794  0.00  0.00    +0.295 HD
ENDBRANCH  37  38
ENDBRANCH  35  37
ENDBRANCH  29  30
ENDBRANCH   2  29
TORSDOF 9
ENDMDL
MODEL 7
REMARK VINA RESULT:     -10.5      2.572     13.028
REMARK  Name = 68488178
REMARK  9 active torsions:
REMARK  status: ('A' for Active; 'I' for Inactive)
REMARK    1  A    between atoms: N_1  and  C_10
REMARK    2  A    between atoms: N_2  and  C_29
REMARK    3  A    between atoms: C_10  and  C_11
REMARK    4  A    between atoms: C_16  and  O_17
REMARK    5  A    between atoms: O_17  and  C_18
REMARK    6  A    between atoms: C_23  and  C_26
REMARK    7  A    between atoms: C_29  and  C_30
REMARK    8  A    between atoms: C_35  and  C_37
REMARK    9  A    between atoms: C_37  and  O_38
REMARK                            x       y       z     vdW  Elec       q    Type
REMARK                         _______ _______ _______ _____ _____    ______ ____
ROOT
ATOM      1  N   UNL     1      35.712 -19.405 -20.695  0.00  0.00    +0.388 N 
ATOM      2  N   UNL     1      34.534 -21.574 -19.370  0.00  0.00    +0.388 N 
ATOM      3  C   UNL     1      34.785 -20.344 -21.371  0.00  0.00    -0.081 C 
ATOM      4  C   UNL     1      35.874 -21.657 -20.002  0.00  0.00    -0.081 C 
ATOM      5  C   UNL     1      35.582 -21.630 -21.491  0.00  0.00    -0.046 C 
ATOM      6  C   UNL     1      36.528 -20.275 -19.812  0.00  0.00    -0.098 C 
ATOM      7  C   UNL     1      33.740 -20.752 -20.316  0.00  0.00    -0.098 C 
ATOM      8  H   UNL     1      35.212 -18.682 -20.176  0.00  0.00    -0.079 HD
ATOM      9  H   UNL     1      34.577 -21.163 -18.436  0.00  0.00    -0.079 HD
ENDROOT
BRANCH   1  10
ATOM     10  C   UNL     1      36.535 -18.654 -21.636  0.00  0.00    -0.050 C 
BRANCH  10  11
ATOM     11  C   UNL     1      35.709 -17.728 -22.488  0.00  0.00    -0.043 C 
ATOM     12  C   UNL     1      35.268 -18.144 -23.745  0.00  0.00    -0.003 C 
ATOM     13  C   UNL     1      35.384 -16.453 -22.022  0.00  0.00    -0.003 C 
ATOM     14  C   UNL     1      34.503 -17.287 -24.535  0.00  0.00    +0.037 C 
ATOM     15  C   UNL     1      34.618 -15.596 -22.812  0.00  0.00    +0.037 C 
ATOM     16  C   UNL     1      34.178 -16.012 -24.069  0.00  0.00    +0.145 C 
BRANCH  16  17
ATOM     17  O   UNL     1      33.432 -15.175 -24.840  0.00  0.00    -0.453 OA
BRANCH  17  18
ATOM     18  C   UNL     1      33.475 -13.822 -24.549  0.00  0.00    +0.145 C 
ATOM     19  C   UNL     1      33.912 -12.914 -25.513  0.00  0.00    +0.038 C 
ATOM     20  C   UNL     1      33.081 -13.367 -23.290  0.00  0.00    +0.038 C 
ATOM     21  C   UNL     1      33.958 -11.552 -25.219  0.00  0.00    +0.008 C 
ATOM     22  C   UNL     1      33.128 -12.004 -22.995  0.00  0.00    +0.008 C 
ATOM     23  C   UNL     1      33.566 -11.096 -23.960  0.00  0.00    +0.054 C 
BRANCH  23  26
ATOM     24  O   UNL     1      34.861  -9.142 -23.633  0.00  0.00    -0.431 OA
ATOM     25  N   UNL     1      32.630  -8.856 -23.397  0.00  0.00    -0.206 NA
ATOM     26  C   UNL     1      33.614  -9.687 -23.655  0.00  0.00    +0.230 C 
ATOM     27  C   UNL     1      34.631  -7.834 -23.328  0.00  0.00    +0.202 C 
ATOM     28  C   UNL     1      33.276  -7.665 -23.186  0.00  0.00    +0.143 C 
ENDBRANCH  23  26
ENDBRANCH  17  18
ENDBRANCH  16  17
ENDBRANCH  10  11
ENDBRANCH   1  10
BRANCH   2  29
ATOM     29  C   UNL     1      33.937 -22.886 -19.146  0.00  0.00    -0.050 C 
BRANCH  29  30
ATOM     30  C   UNL     1      33.586 -23.103 -17.699  0.00  0.00    -0.043 C 
ATOM     31  C   UNL     1      34.596 -23.321 -16.762  0.00  0.00    -0.006 C 
ATOM     32  C   UNL     1      32.251 -23.087 -17.294  0.00  0.00    -0.006 C 
ATOM     33  C   UNL     1      34.271 -23.523 -15.421  0.00  0.00    +0.006 C 
ATOM     34  C   UNL     1      31.926 -23.289 -15.954  0.00  0.00    +0.006 C 
ATOM     35  C   UNL     1      32.936 -23.506 -15.016  0.00  0.00    +0.075 C 
BRANCH  35  37
ATOM     36  O   UNL     1      31.462 -23.924 -13.179  0.00  0.00    -0.245 OA
ATOM     37  C   UNL     1      32.597 -23.716 -13.618  0.00  0.00    +0.338 C 
BRANCH  37  38
ATOM     38  O   UNL     1      33.688 -23.663 -12.805  0.00  0.00    -0.477 OA
ATOM     39  H   UNL     1      34.003 -22.835 -12.497  0.00  0.00    +0.295 HD
ENDBRANCH  37  38
ENDBRANCH  35  37
ENDBRANCH  29  30
ENDBRANCH   2  29
TORSDOF 9
ENDMDL
MODEL 8
REMARK VINA RESULT:     -10.1      1.912      2.699
REMARK  Name = 68488178
REMARK  9 active torsions:
REMARK  status: ('A' for Active; 'I' for Inactive)
REMARK    1  A    between atoms: N_1  and  C_10
REMARK    2  A    between atoms: N_2  and  C_29
REMARK    3  A    between atoms: C_10  and  C_11
REMARK    4  A    between atoms: C_16  and  O_17
REMARK    5  A    between atoms: O_17  and  C_18
REMARK    6  A    between atoms: C_23  and  C_26
REMARK    7  A    between atoms: C_29  and  C_30
REMARK    8  A    between atoms: C_35  and  C_37
REMARK    9  A    between atoms: C_37  and  O_38
REMARK                            x       y       z     vdW  Elec       q    Type
REMARK                         _______ _______ _______ _____ _____    ______ ____
ROOT
ATOM      1  N   UNL     1      32.697 -11.295 -22.607  0.00  0.00    +0.388 N 
ATOM      2  N   UNL     1      33.093  -8.713 -21.595  0.00  0.00    +0.388 N 
ATOM      3  C   UNL     1      32.598 -10.082 -23.455  0.00  0.00    -0.081 C 
ATOM      4  C   UNL     1      31.777  -9.396 -21.547  0.00  0.00    -0.081 C 
ATOM      5  C   UNL     1      31.316  -9.412 -22.993  0.00  0.00    -0.046 C 
ATOM      6  C   UNL     1      32.074 -10.890 -21.323  0.00  0.00    -0.098 C 
ATOM      7  C   UNL     1      33.648  -9.093 -22.918  0.00  0.00    -0.098 C 
ATOM      8  H   UNL     1      33.664 -11.602 -22.492  0.00  0.00    -0.079 HD
ATOM      9  H   UNL     1      33.699  -8.995 -20.823  0.00  0.00    -0.079 HD
ENDROOT
BRANCH   1  10
ATOM     10  C   UNL     1      32.033 -12.450 -23.200  0.00  0.00    -0.050 C 
BRANCH  10  11
ATOM     11  C   UNL     1      32.970 -13.617 -23.356  0.00  0.00    -0.043 C 
ATOM     12  C   UNL     1      33.794 -13.997 -22.296  0.00  0.00    -0.003 C 
ATOM     13  C   UNL     1      33.015 -14.319 -24.561  0.00  0.00    -0.003 C 
ATOM     14  C   UNL     1      34.663 -15.079 -22.441  0.00  0.00    +0.037 C 
ATOM     15  C   UNL     1      33.884 -15.401 -24.706  0.00  0.00    +0.037 C 
ATOM     16  C   UNL     1      34.708 -15.781 -23.646  0.00  0.00    +0.145 C 
BRANCH  16  17
ATOM     17  O   UNL     1      35.556 -16.836 -23.787  0.00  0.00    -0.453 OA
BRANCH  17  18
ATOM     18  C   UNL     1      35.465 -17.864 -22.864  0.00  0.00    +0.145 C 
ATOM     19  C   UNL     1      36.391 -17.953 -21.825  0.00  0.00    +0.038 C 
ATOM     20  C   UNL     1      34.446 -18.811 -22.974  0.00  0.00    +0.038 C 
ATOM     21  C   UNL     1      36.301 -18.990 -20.898  0.00  0.00    +0.008 C 
ATOM     22  C   UNL     1      34.356 -19.848 -22.046  0.00  0.00    +0.008 C 
ATOM     23  C   UNL     1      35.283 -19.938 -21.007  0.00  0.00    +0.054 C 
BRANCH  23  26
ATOM     24  O   UNL     1      33.965 -21.596 -19.950  0.00  0.00    -0.431 OA
ATOM     25  N   UNL     1      36.115 -21.504 -19.256  0.00  0.00    -0.206 NA
ATOM     26  C   UNL     1      35.190 -21.011 -20.047  0.00  0.00    +0.230 C 
ATOM     27  C   UNL     1      34.143 -22.554 -18.998  0.00  0.00    +0.202 C 
ATOM     28  C   UNL     1      35.450 -22.495 -18.580  0.00  0.00    +0.143 C 
ENDBRANCH  23  26
ENDBRANCH  17  18
ENDBRANCH  16  17
ENDBRANCH  10  11
ENDBRANCH   1  10
BRANCH   2  29
ATOM     29  C   UNL     1      32.982  -7.267 -21.442  0.00  0.00    -0.050 C 
BRANCH  29  30
ATOM     30  C   UNL     1      33.188  -6.547 -22.747  0.00  0.00    -0.043 C 
ATOM     31  C   UNL     1      34.392  -6.690 -23.439  0.00  0.00    -0.006 C 
ATOM     32  C   UNL     1      32.177  -5.737 -23.265  0.00  0.00    -0.006 C 
ATOM     33  C   UNL     1      34.583  -6.022 -24.648  0.00  0.00    +0.006 C 
ATOM     34  C   UNL     1      32.370  -5.069 -24.474  0.00  0.00    +0.006 C 
ATOM     35  C   UNL     1      33.572  -5.213 -25.167  0.00  0.00    +0.075 C 
BRANCH  35  37
ATOM     36  O   UNL     1      34.326  -4.989 -27.426  0.00  0.00    -0.245 OA
ATOM     37  C   UNL     1      33.772  -4.518 -26.428  0.00  0.00    +0.338 C 
BRANCH  37  38
ATOM     38  O   UNL     1      33.272  -3.252 -26.409  0.00  0.00    -0.477 OA
ATOM     39  H   UNL     1      33.116  -2.797 -27.214  0.00  0.00    +0.295 HD
ENDBRANCH  37  38
ENDBRANCH  35  37
ENDBRANCH  29  30
ENDBRANCH   2  29
TORSDOF 9
ENDMDL
MODEL 9
REMARK VINA RESULT:      -9.2      3.291      6.386
REMARK  Name = 68488178
REMARK  9 active torsions:
REMARK  status: ('A' for Active; 'I' for Inactive)
REMARK    1  A    between atoms: N_1  and  C_10
REMARK    2  A    between atoms: N_2  and  C_29
REMARK    3  A    between atoms: C_10  and  C_11
REMARK    4  A    between atoms: C_16  and  O_17
REMARK    5  A    between atoms: O_17  and  C_18
REMARK    6  A    between atoms: C_23  and  C_26
REMARK    7  A    between atoms: C_29  and  C_30
REMARK    8  A    between atoms: C_35  and  C_37
REMARK    9  A    between atoms: C_37  and  O_38
REMARK                            x       y       z     vdW  Elec       q    Type
REMARK                         _______ _______ _______ _____ _____    ______ ____
ROOT
ATOM      1  N   UNL     1      34.834 -18.026 -22.492  0.00  0.00    +0.388 N 
ATOM      2  N   UNL     1      33.826 -15.655 -23.594  0.00  0.00    +0.388 N 
ATOM      3  C   UNL     1      35.632 -16.778 -22.564  0.00  0.00    -0.081 C 
ATOM      4  C   UNL     1      34.472 -16.706 -24.417  0.00  0.00    -0.081 C 
ATOM      5  C   UNL     1      35.940 -16.619 -24.042  0.00  0.00    -0.046 C 
ATOM      6  C   UNL     1      34.090 -18.054 -23.776  0.00  0.00    -0.098 C 
ATOM      7  C   UNL     1      34.639 -15.619 -22.352  0.00  0.00    -0.098 C 
ATOM      8  H   UNL     1      34.214 -18.037 -21.682  0.00  0.00    -0.079 HD
ATOM      9  H   UNL     1      32.843 -15.864 -23.410  0.00  0.00    -0.079 HD
ENDROOT
BRANCH   1  10
ATOM     10  C   UNL     1      35.663 -19.212 -22.313  0.00  0.00    -0.050 C 
BRANCH  10  11
ATOM     11  C   UNL     1      35.109 -20.130 -21.256  0.00  0.00    -0.043 C 
ATOM     12  C   UNL     1      35.971 -20.934 -20.510  0.00  0.00    -0.003 C 
ATOM     13  C   UNL     1      33.735 -20.175 -21.023  0.00  0.00    -0.003 C 
ATOM     14  C   UNL     1      35.458 -21.785 -19.531  0.00  0.00    +0.037 C 
ATOM     15  C   UNL     1      33.222 -21.026 -20.043  0.00  0.00    +0.037 C 
ATOM     16  C   UNL     1      34.083 -21.831 -19.297  0.00  0.00    +0.145 C 
BRANCH  16  17
ATOM     17  O   UNL     1      33.583 -22.661 -18.342  0.00  0.00    -0.453 OA
BRANCH  17  18
ATOM     18  C   UNL     1      34.417 -23.016 -17.295  0.00  0.00    +0.145 C 
ATOM     19  C   UNL     1      33.961 -23.884 -16.304  0.00  0.00    +0.038 C 
ATOM     20  C   UNL     1      35.713 -22.504 -17.232  0.00  0.00    +0.038 C 
ATOM     21  C   UNL     1      34.800 -24.239 -15.248  0.00  0.00    +0.008 C 
ATOM     22  C   UNL     1      36.552 -22.858 -16.176  0.00  0.00    +0.008 C 
ATOM     23  C   UNL     1      36.096 -23.727 -15.183  0.00  0.00    +0.054 C 
BRANCH  23  26
ATOM     24  O   UNL     1      37.264 -25.418 -14.009  0.00  0.00    -0.431 OA
ATOM     25  N   UNL     1      37.505 -23.333 -13.165  0.00  0.00    -0.206 NA
ATOM     26  C   UNL     1      36.964 -24.093 -14.091  0.00  0.00    +0.230 C 
ATOM     27  C   UNL     1      38.077 -25.494 -12.919  0.00  0.00    +0.202 C 
ATOM     28  C   UNL     1      38.220 -24.227 -12.411  0.00  0.00    +0.143 C 
ENDBRANCH  23  26
ENDBRANCH  17  18
ENDBRANCH  16  17
ENDBRANCH  10  11
ENDBRANCH   1  10
BRANCH   2  29
ATOM     29  C   UNL     1      33.789 -14.360 -24.263  0.00  0.00    -0.050 C 
BRANCH  29  30
ATOM     30  C   UNL     1      33.198 -13.291 -23.384  0.00  0.00    -0.043 C 
ATOM     31  C   UNL     1      33.401 -11.945 -23.690  0.00  0.00    -0.006 C 
ATOM     32  C   UNL     1      32.447 -13.646 -22.262  0.00  0.00    -0.006 C 
ATOM     33  C   UNL     1      32.855 -10.955 -22.875  0.00  0.00    +0.006 C 
ATOM     34  C   UNL     1      31.901 -12.655 -21.447  0.00  0.00    +0.006 C 
ATOM     35  C   UNL     1      32.103 -11.309 -21.754  0.00  0.00    +0.075 C 
BRANCH  35  37
ATOM     36  O   UNL     1      30.927 -10.472 -19.846  0.00  0.00    -0.245 OA
ATOM     37  C   UNL     1      31.533 -10.276 -20.904  0.00  0.00    +0.338 C 
BRANCH  37  38
ATOM     38  O   UNL     1      31.737  -9.024 -21.399  0.00  0.00    -0.477 OA
ATOM     39  H   UNL     1      31.945  -8.319 -20.818  0.00  0.00    +0.295 HD
ENDBRANCH  37  38
ENDBRANCH  35  37
ENDBRANCH  29  30
ENDBRANCH   2  29
TORSDOF 9
ENDMDL
