MODEL 1
REMARK VINA RESULT:     -12.5      0.000      0.000
REMARK  Name = 9998128
REMARK  2 active torsions:
REMARK  status: ('A' for Active; 'I' for Inactive)
REMARK    1  A    between atoms: N_1  and  C_15
REMARK    2  A    between atoms: C_7  and  C_24
REMARK                            x       y       z     vdW  Elec       q    Type
REMARK                         _______ _______ _______ _____ _____    ______ ____
ROOT
ATOM      1  N   UNL     1      33.836 -25.031 -14.726  0.00  0.00    -0.290 N 
ATOM      2  N   UNL     1      33.811 -23.640 -16.624  0.00  0.00    -0.327 NA
ATOM      3  N   UNL     1      31.733 -22.798 -17.504  0.00  0.00    -0.342 NA
ATOM      4  C   UNL     1      31.714 -24.212 -15.568  0.00  0.00    +0.143 C 
ATOM      5  C   UNL     1      33.101 -24.271 -15.670  0.00  0.00    +0.184 C 
ATOM      6  C   UNL     1      31.054 -23.440 -16.537  0.00  0.00    +0.133 C 
ATOM      7  C   UNL     1      33.075 -22.933 -17.495  0.00  0.00    +0.165 C 
ATOM      8  C   UNL     1      30.994 -24.880 -14.562  0.00  0.00    -0.011 C 
ATOM      9  C   UNL     1      29.665 -23.358 -16.469  0.00  0.00    +0.029 C 
ATOM     10  C   UNL     1      29.607 -24.781 -14.516  0.00  0.00    -0.004 C 
ATOM     11  C   UNL     1      28.942 -24.018 -15.471  0.00  0.00    +0.002 C 
ATOM     12  H   UNL     1      33.343 -25.806 -14.369  0.00  0.00    +0.154 HD
ENDROOT
BRANCH   1  15
ATOM     13  N   UNL     1      38.812 -24.297 -12.482  0.00  0.00    -0.236 N 
ATOM     14  N   UNL     1      38.603 -23.383 -11.519  0.00  0.00    -0.180 NA
ATOM     15  C   UNL     1      35.130 -24.894 -14.201  0.00  0.00    +0.050 C 
ATOM     16  C   UNL     1      36.664 -23.879 -12.629  0.00  0.00    +0.037 C 
ATOM     17  C   UNL     1      37.689 -24.638 -13.184  0.00  0.00    +0.067 C 
ATOM     18  C   UNL     1      35.361 -24.003 -13.139  0.00  0.00    +0.018 C 
ATOM     19  C   UNL     1      36.186 -25.642 -14.738  0.00  0.00    +0.016 C 
ATOM     20  C   UNL     1      37.488 -25.531 -14.240  0.00  0.00    +0.017 C 
ATOM     21  C   UNL     1      37.295 -23.132 -11.612  0.00  0.00    +0.119 C 
ATOM     22  H   UNL     1      39.697 -24.688 -12.665  0.00  0.00    +0.174 HD
ENDBRANCH   1  15
BRANCH   7  24
ATOM     23  N   UNL     1      33.025 -21.546 -19.400  0.00  0.00    -0.398 NA
ATOM     24  C   UNL     1      33.795 -22.242 -18.533  0.00  0.00    +0.197 C 
ATOM     25  C   UNL     1      35.179 -22.307 -18.611  0.00  0.00    +0.098 C 
ATOM     26  C   UNL     1      33.672 -20.886 -20.387  0.00  0.00    +0.110 C 
ATOM     27  C   UNL     1      35.808 -21.616 -19.639  0.00  0.00    -0.016 C 
ATOM     28  C   UNL     1      35.048 -20.889 -20.549  0.00  0.00    +0.023 C 
ATOM     29  C   UNL     1      32.825 -20.118 -21.345  0.00  0.00    +0.066 C 
ENDBRANCH   7  24
TORSDOF 2
ENDMDL
MODEL 2
REMARK VINA RESULT:     -12.3      1.331      4.792
REMARK  Name = 9998128
REMARK  2 active torsions:
REMARK  status: ('A' for Active; 'I' for Inactive)
REMARK    1  A    between atoms: N_1  and  C_15
REMARK    2  A    between atoms: C_7  and  C_24
REMARK                            x       y       z     vdW  Elec       q    Type
REMARK                         _______ _______ _______ _____ _____    ______ ____
ROOT
ATOM      1  N   UNL     1      35.890 -23.105 -16.331  0.00  0.00    -0.290 N 
ATOM      2  N   UNL     1      33.544 -23.266 -16.416  0.00  0.00    -0.327 NA
ATOM      3  N   UNL     1      32.323 -22.429 -18.317  0.00  0.00    -0.342 NA
ATOM      4  C   UNL     1      34.713 -22.245 -18.269  0.00  0.00    +0.143 C 
ATOM      5  C   UNL     1      34.677 -22.866 -17.023  0.00  0.00    +0.184 C 
ATOM      6  C   UNL     1      33.473 -22.042 -18.896  0.00  0.00    +0.133 C 
ATOM      7  C   UNL     1      32.421 -23.020 -17.109  0.00  0.00    +0.165 C 
ATOM      8  C   UNL     1      35.910 -21.836 -18.883  0.00  0.00    -0.011 C 
ATOM      9  C   UNL     1      33.468 -21.423 -20.143  0.00  0.00    +0.029 C 
ATOM     10  C   UNL     1      35.877 -21.220 -20.130  0.00  0.00    -0.004 C 
ATOM     11  C   UNL     1      34.654 -21.013 -20.761  0.00  0.00    +0.002 C 
ATOM     12  H   UNL     1      36.594 -22.443 -16.522  0.00  0.00    +0.154 HD
ENDROOT
BRANCH   1  15
ATOM     13  N   UNL     1      37.547 -26.812 -12.609  0.00  0.00    -0.236 N 
ATOM     14  N   UNL     1      38.157 -26.075 -11.665  0.00  0.00    -0.180 NA
ATOM     15  C   UNL     1      36.282 -24.102 -15.424  0.00  0.00    +0.050 C 
ATOM     16  C   UNL     1      37.361 -24.760 -13.360  0.00  0.00    +0.037 C 
ATOM     17  C   UNL     1      37.048 -26.083 -13.653  0.00  0.00    +0.067 C 
ATOM     18  C   UNL     1      36.975 -23.747 -14.255  0.00  0.00    +0.018 C 
ATOM     19  C   UNL     1      35.984 -25.445 -15.689  0.00  0.00    +0.016 C 
ATOM     20  C   UNL     1      36.360 -26.464 -14.808  0.00  0.00    +0.017 C 
ATOM     21  C   UNL     1      38.041 -24.827 -12.126  0.00  0.00    +0.119 C 
ATOM     22  H   UNL     1      37.468 -27.791 -12.553  0.00  0.00    +0.174 HD
ENDBRANCH   1  15
BRANCH   7  24
ATOM     23  N   UNL     1      30.067 -22.913 -17.052  0.00  0.00    -0.398 NA
ATOM     24  C   UNL     1      31.185 -23.432 -16.496  0.00  0.00    +0.197 C 
ATOM     25  C   UNL     1      31.176 -24.300 -15.413  0.00  0.00    +0.098 C 
ATOM     26  C   UNL     1      28.889 -23.281 -16.498  0.00  0.00    +0.110 C 
ATOM     27  C   UNL     1      29.947 -24.655 -14.870  0.00  0.00    -0.016 C 
ATOM     28  C   UNL     1      28.776 -24.140 -15.417  0.00  0.00    +0.023 C 
ATOM     29  C   UNL     1      27.655 -22.709 -17.109  0.00  0.00    +0.066 C 
ENDBRANCH   7  24
TORSDOF 2
ENDMDL
MODEL 3
REMARK VINA RESULT:     -12.1      1.836      5.978
REMARK  Name = 9998128
REMARK  2 active torsions:
REMARK  status: ('A' for Active; 'I' for Inactive)
REMARK    1  A    between atoms: N_1  and  C_15
REMARK    2  A    between atoms: C_7  and  C_24
REMARK                            x       y       z     vdW  Elec       q    Type
REMARK                         _______ _______ _______ _____ _____    ______ ____
ROOT
ATOM      1  N   UNL     1      33.243 -24.041 -14.095  0.00  0.00    -0.290 N 
ATOM      2  N   UNL     1      34.411 -23.204 -15.958  0.00  0.00    -0.327 NA
ATOM      3  N   UNL     1      36.810 -23.385 -16.088  0.00  0.00    -0.342 NA
ATOM      4  C   UNL     1      35.658 -24.250 -14.171  0.00  0.00    +0.143 C 
ATOM      5  C   UNL     1      34.472 -23.823 -14.765  0.00  0.00    +0.184 C 
ATOM      6  C   UNL     1      36.836 -24.001 -14.893  0.00  0.00    +0.133 C 
ATOM      7  C   UNL     1      35.599 -23.020 -16.556  0.00  0.00    +0.165 C 
ATOM      8  C   UNL     1      35.697 -24.895 -12.923  0.00  0.00    -0.011 C 
ATOM      9  C   UNL     1      38.042 -24.413 -14.332  0.00  0.00    +0.029 C 
ATOM     10  C   UNL     1      36.915 -25.297 -12.385  0.00  0.00    -0.004 C 
ATOM     11  C   UNL     1      38.090 -25.055 -13.091  0.00  0.00    +0.002 C 
ATOM     12  H   UNL     1      33.320 -24.044 -13.113  0.00  0.00    +0.154 HD
ENDROOT
BRANCH   1  15
ATOM     13  N   UNL     1      28.130 -24.623 -16.059  0.00  0.00    -0.236 N 
ATOM     14  N   UNL     1      27.939 -23.519 -16.801  0.00  0.00    -0.180 NA
ATOM     15  C   UNL     1      31.936 -24.254 -14.560  0.00  0.00    +0.050 C 
ATOM     16  C   UNL     1      30.021 -23.532 -15.852  0.00  0.00    +0.037 C 
ATOM     17  C   UNL     1      29.359 -24.691 -15.463  0.00  0.00    +0.067 C 
ATOM     18  C   UNL     1      31.331 -23.302 -15.398  0.00  0.00    +0.018 C 
ATOM     19  C   UNL     1      31.240 -25.410 -14.187  0.00  0.00    +0.016 C 
ATOM     20  C   UNL     1      29.936 -25.654 -14.631  0.00  0.00    +0.017 C 
ATOM     21  C   UNL     1      29.092 -22.858 -16.673  0.00  0.00    +0.119 C 
ATOM     22  H   UNL     1      27.444 -25.321 -15.955  0.00  0.00    +0.174 HD
ENDBRANCH   1  15
BRANCH   7  24
ATOM     23  N   UNL     1      34.348 -22.171 -18.365  0.00  0.00    -0.398 NA
ATOM     24  C   UNL     1      35.579 -22.361 -17.835  0.00  0.00    +0.197 C 
ATOM     25  C   UNL     1      36.754 -21.962 -18.455  0.00  0.00    +0.098 C 
ATOM     26  C   UNL     1      34.296 -21.555 -19.567  0.00  0.00    +0.110 C 
ATOM     27  C   UNL     1      36.661 -21.332 -19.691  0.00  0.00    -0.016 C 
ATOM     28  C   UNL     1      35.411 -21.120 -20.265  0.00  0.00    +0.023 C 
ATOM     29  C   UNL     1      32.940 -21.345 -20.153  0.00  0.00    +0.066 C 
ENDBRANCH   7  24
TORSDOF 2
ENDMDL
MODEL 4
REMARK VINA RESULT:     -11.7      1.713      5.206
REMARK  Name = 9998128
REMARK  2 active torsions:
REMARK  status: ('A' for Active; 'I' for Inactive)
REMARK    1  A    between atoms: N_1  and  C_15
REMARK    2  A    between atoms: C_7  and  C_24
REMARK                            x       y       z     vdW  Elec       q    Type
REMARK                         _______ _______ _______ _____ _____    ______ ____
ROOT
ATOM      1  N   UNL     1      36.923 -22.897 -16.194  0.00  0.00    -0.290 N 
ATOM      2  N   UNL     1      34.655 -23.449 -15.897  0.00  0.00    -0.327 NA
ATOM      3  N   UNL     1      33.026 -22.908 -17.589  0.00  0.00    -0.342 NA
ATOM      4  C   UNL     1      35.328 -22.328 -17.930  0.00  0.00    +0.143 C 
ATOM      5  C   UNL     1      35.594 -22.893 -16.685  0.00  0.00    +0.184 C 
ATOM      6  C   UNL     1      33.989 -22.361 -18.352  0.00  0.00    +0.133 C 
ATOM      7  C   UNL     1      33.411 -23.422 -16.403  0.00  0.00    +0.165 C 
ATOM      8  C   UNL     1      36.326 -21.753 -18.736  0.00  0.00    -0.011 C 
ATOM      9  C   UNL     1      33.683 -21.805 -19.592  0.00  0.00    +0.029 C 
ATOM     10  C   UNL     1      35.993 -21.205 -19.970  0.00  0.00    -0.004 C 
ATOM     11  C   UNL     1      34.670 -21.231 -20.399  0.00  0.00    +0.002 C 
ATOM     12  H   UNL     1      37.465 -22.136 -16.507  0.00  0.00    +0.154 HD
ENDROOT
BRANCH   1  15
ATOM     13  N   UNL     1      39.840 -26.379 -13.079  0.00  0.00    -0.236 N 
ATOM     14  N   UNL     1      40.887 -26.710 -13.854  0.00  0.00    -0.180 NA
ATOM     15  C   UNL     1      37.616 -23.776 -15.347  0.00  0.00    +0.050 C 
ATOM     16  C   UNL     1      39.490 -25.248 -14.925  0.00  0.00    +0.037 C 
ATOM     17  C   UNL     1      38.965 -25.504 -13.663  0.00  0.00    +0.067 C 
ATOM     18  C   UNL     1      38.811 -24.370 -15.787  0.00  0.00    +0.018 C 
ATOM     19  C   UNL     1      37.115 -24.057 -14.070  0.00  0.00    +0.016 C 
ATOM     20  C   UNL     1      37.780 -24.928 -13.200  0.00  0.00    +0.017 C 
ATOM     21  C   UNL     1      40.670 -26.020 -14.976  0.00  0.00    +0.119 C 
ATOM     22  H   UNL     1      39.715 -26.734 -12.169  0.00  0.00    +0.174 HD
ENDBRANCH   1  15
BRANCH   7  24
ATOM     23  N   UNL     1      31.132 -23.952 -16.121  0.00  0.00    -0.398 NA
ATOM     24  C   UNL     1      32.376 -24.007 -15.592  0.00  0.00    +0.197 C 
ATOM     25  C   UNL     1      32.665 -24.577 -14.360  0.00  0.00    +0.098 C 
ATOM     26  C   UNL     1      30.137 -24.493 -15.383  0.00  0.00    +0.110 C 
ATOM     27  C   UNL     1      31.616 -25.123 -13.630  0.00  0.00    -0.016 C 
ATOM     28  C   UNL     1      30.324 -25.084 -14.144  0.00  0.00    +0.023 C 
ATOM     29  C   UNL     1      28.764 -24.433 -15.964  0.00  0.00    +0.066 C 
ENDBRANCH   7  24
TORSDOF 2
ENDMDL
MODEL 5
REMARK VINA RESULT:     -11.4      1.141      2.177
REMARK  Name = 9998128
REMARK  2 active torsions:
REMARK  status: ('A' for Active; 'I' for Inactive)
REMARK    1  A    between atoms: N_1  and  C_15
REMARK    2  A    between atoms: C_7  and  C_24
REMARK                            x       y       z     vdW  Elec       q    Type
REMARK                         _______ _______ _______ _____ _____    ______ ____
ROOT
ATOM      1  N   UNL     1      34.554 -25.258 -14.581  0.00  0.00    -0.290 N 
ATOM      2  N   UNL     1      34.183 -23.849 -16.428  0.00  0.00    -0.327 NA
ATOM      3  N   UNL     1      31.959 -23.104 -16.979  0.00  0.00    -0.342 NA
ATOM      4  C   UNL     1      32.294 -24.540 -15.088  0.00  0.00    +0.143 C 
ATOM      5  C   UNL     1      33.653 -24.526 -15.393  0.00  0.00    +0.184 C 
ATOM      6  C   UNL     1      31.462 -23.792 -15.935  0.00  0.00    +0.133 C 
ATOM      7  C   UNL     1      33.292 -23.170 -17.168  0.00  0.00    +0.165 C 
ATOM      8  C   UNL     1      31.763 -25.256 -14.001  0.00  0.00    -0.011 C 
ATOM      9  C   UNL     1      30.096 -23.782 -15.663  0.00  0.00    +0.029 C 
ATOM     10  C   UNL     1      30.395 -25.229 -13.751  0.00  0.00    -0.004 C 
ATOM     11  C   UNL     1      29.560 -24.491 -14.584  0.00  0.00    +0.002 C 
ATOM     12  H   UNL     1      34.158 -26.062 -14.171  0.00  0.00    +0.154 HD
ENDROOT
BRANCH   1  15
ATOM     13  N   UNL     1      39.918 -24.687 -13.465  0.00  0.00    -0.236 N 
ATOM     14  N   UNL     1      40.516 -25.573 -14.280  0.00  0.00    -0.180 NA
ATOM     15  C   UNL     1      35.904 -25.060 -14.248  0.00  0.00    +0.050 C 
ATOM     16  C   UNL     1      38.243 -25.604 -14.543  0.00  0.00    +0.037 C 
ATOM     17  C   UNL     1      38.555 -24.656 -13.575  0.00  0.00    +0.067 C 
ATOM     18  C   UNL     1      36.898 -25.816 -14.891  0.00  0.00    +0.018 C 
ATOM     19  C   UNL     1      36.253 -24.114 -13.276  0.00  0.00    +0.016 C 
ATOM     20  C   UNL     1      37.587 -23.891 -12.919  0.00  0.00    +0.017 C 
ATOM     21  C   UNL     1      39.493 -26.129 -14.934  0.00  0.00    +0.119 C 
ATOM     22  H   UNL     1      40.419 -24.110 -12.844  0.00  0.00    +0.174 HD
ENDBRANCH   1  15
BRANCH   7  24
ATOM     23  N   UNL     1      35.166 -22.436 -18.397  0.00  0.00    -0.398 NA
ATOM     24  C   UNL     1      33.817 -22.431 -18.287  0.00  0.00    +0.197 C 
ATOM     25  C   UNL     1      32.974 -21.770 -19.169  0.00  0.00    +0.098 C 
ATOM     26  C   UNL     1      35.689 -21.750 -19.438  0.00  0.00    +0.110 C 
ATOM     27  C   UNL     1      33.549 -21.075 -20.226  0.00  0.00    -0.016 C 
ATOM     28  C   UNL     1      34.933 -21.060 -20.371  0.00  0.00    +0.023 C 
ATOM     29  C   UNL     1      37.176 -21.755 -19.561  0.00  0.00    +0.066 C 
ENDBRANCH   7  24
TORSDOF 2
ENDMDL
MODEL 6
REMARK VINA RESULT:     -11.4      1.981      7.003
REMARK  Name = 9998128
REMARK  2 active torsions:
REMARK  status: ('A' for Active; 'I' for Inactive)
REMARK    1  A    between atoms: N_1  and  C_15
REMARK    2  A    between atoms: C_7  and  C_24
REMARK                            x       y       z     vdW  Elec       q    Type
REMARK                         _______ _______ _______ _____ _____    ______ ____
ROOT
ATOM      1  N   UNL     1      35.340 -23.035 -17.260  0.00  0.00    -0.290 N 
ATOM      2  N   UNL     1      33.342 -23.694 -16.207  0.00  0.00    -0.327 NA
ATOM      3  N   UNL     1      33.324 -24.304 -13.876  0.00  0.00    -0.342 NA
ATOM      4  C   UNL     1      35.382 -23.639 -14.911  0.00  0.00    +0.143 C 
ATOM      5  C   UNL     1      34.664 -23.470 -16.093  0.00  0.00    +0.184 C 
ATOM      6  C   UNL     1      34.646 -24.071 -13.796  0.00  0.00    +0.133 C 
ATOM      7  C   UNL     1      32.744 -24.103 -15.076  0.00  0.00    +0.165 C 
ATOM      8  C   UNL     1      36.764 -23.399 -14.817  0.00  0.00    -0.011 C 
ATOM      9  C   UNL     1      35.330 -24.252 -12.596  0.00  0.00    +0.029 C 
ATOM     10  C   UNL     1      37.422 -23.587 -13.607  0.00  0.00    -0.004 C 
ATOM     11  C   UNL     1      36.704 -24.015 -12.494  0.00  0.00    +0.002 C 
ATOM     12  H   UNL     1      36.283 -23.318 -17.302  0.00  0.00    +0.154 HD
ENDROOT
BRANCH   1  15
ATOM     13  N   UNL     1      33.989 -19.998 -21.652  0.00  0.00    -0.236 N 
ATOM     14  N   UNL     1      35.163 -19.500 -22.077  0.00  0.00    -0.180 NA
ATOM     15  C   UNL     1      34.926 -22.281 -18.369  0.00  0.00    +0.050 C 
ATOM     16  C   UNL     1      35.441 -20.823 -20.230  0.00  0.00    +0.037 C 
ATOM     17  C   UNL     1      34.087 -20.799 -20.547  0.00  0.00    +0.067 C 
ATOM     18  C   UNL     1      35.876 -21.573 -19.125  0.00  0.00    +0.018 C 
ATOM     19  C   UNL     1      33.570 -22.234 -18.716  0.00  0.00    +0.016 C 
ATOM     20  C   UNL     1      33.121 -21.492 -19.813  0.00  0.00    +0.017 C 
ATOM     21  C   UNL     1      36.044 -20.005 -21.209  0.00  0.00    +0.119 C 
ATOM     22  H   UNL     1      33.134 -19.802 -22.097  0.00  0.00    +0.174 HD
ENDBRANCH   1  15
BRANCH   7  24
ATOM     23  N   UNL     1      30.637 -23.507 -15.949  0.00  0.00    -0.398 NA
ATOM     24  C   UNL     1      31.329 -24.354 -15.153  0.00  0.00    +0.197 C 
ATOM     25  C   UNL     1      30.746 -25.399 -14.449  0.00  0.00    +0.098 C 
ATOM     26  C   UNL     1      29.305 -23.717 -16.042  0.00  0.00    +0.110 C 
ATOM     27  C   UNL     1      29.374 -25.583 -14.569  0.00  0.00    -0.016 C 
ATOM     28  C   UNL     1      28.631 -24.730 -15.380  0.00  0.00    +0.023 C 
ATOM     29  C   UNL     1      28.540 -22.782 -16.919  0.00  0.00    +0.066 C 
ENDBRANCH   7  24
TORSDOF 2
ENDMDL
MODEL 7
REMARK VINA RESULT:     -10.4      1.929      7.643
REMARK  Name = 9998128
REMARK  2 active torsions:
REMARK  status: ('A' for Active; 'I' for Inactive)
REMARK    1  A    between atoms: N_1  and  C_15
REMARK    2  A    between atoms: C_7  and  C_24
REMARK                            x       y       z     vdW  Elec       q    Type
REMARK                         _______ _______ _______ _____ _____    ______ ____
ROOT
ATOM      1  N   UNL     1      32.308 -23.059 -17.605  0.00  0.00    -0.290 N 
ATOM      2  N   UNL     1      34.028 -23.555 -16.078  0.00  0.00    -0.327 NA
ATOM      3  N   UNL     1      36.315 -22.976 -16.571  0.00  0.00    -0.342 NA
ATOM      4  C   UNL     1      34.592 -22.454 -18.155  0.00  0.00    +0.143 C 
ATOM      5  C   UNL     1      33.684 -23.024 -17.266  0.00  0.00    +0.184 C 
ATOM      6  C   UNL     1      35.937 -22.454 -17.751  0.00  0.00    +0.133 C 
ATOM      7  C   UNL     1      35.340 -23.498 -15.799  0.00  0.00    +0.165 C 
ATOM      8  C   UNL     1      34.208 -21.906 -19.391  0.00  0.00    -0.011 C 
ATOM      9  C   UNL     1      36.875 -21.894 -18.614  0.00  0.00    +0.029 C 
ATOM     10  C   UNL     1      35.165 -21.352 -20.234  0.00  0.00    -0.004 C 
ATOM     11  C   UNL     1      36.501 -21.346 -19.845  0.00  0.00    +0.002 C 
ATOM     12  H   UNL     1      32.139 -23.117 -18.574  0.00  0.00    +0.154 HD
ENDROOT
BRANCH   1  15
ATOM     13  N   UNL     1      27.574 -22.893 -14.796  0.00  0.00    -0.236 N 
ATOM     14  N   UNL     1      26.642 -22.684 -15.741  0.00  0.00    -0.180 NA
ATOM     15  C   UNL     1      31.140 -23.029 -16.828  0.00  0.00    +0.050 C 
ATOM     16  C   UNL     1      28.738 -22.796 -16.652  0.00  0.00    +0.037 C 
ATOM     17  C   UNL     1      28.852 -22.970 -15.277  0.00  0.00    +0.067 C 
ATOM     18  C   UNL     1      29.896 -22.825 -17.447  0.00  0.00    +0.018 C 
ATOM     19  C   UNL     1      31.219 -23.199 -15.440  0.00  0.00    +0.016 C 
ATOM     20  C   UNL     1      30.076 -23.174 -14.634  0.00  0.00    +0.017 C 
ATOM     21  C   UNL     1      27.354 -22.626 -16.869  0.00  0.00    +0.119 C 
ATOM     22  H   UNL     1      27.354 -22.983 -13.840  0.00  0.00    +0.174 HD
ENDBRANCH   1  15
BRANCH   7  24
ATOM     23  N   UNL     1      37.021 -24.525 -14.503  0.00  0.00    -0.398 NA
ATOM     24  C   UNL     1      35.753 -24.055 -14.537  0.00  0.00    +0.197 C 
ATOM     25  C   UNL     1      34.888 -24.093 -13.453  0.00  0.00    +0.098 C 
ATOM     26  C   UNL     1      37.438 -25.055 -13.331  0.00  0.00    +0.110 C 
ATOM     27  C   UNL     1      35.352 -24.646 -12.265  0.00  0.00    -0.016 C 
ATOM     28  C   UNL     1      36.651 -25.138 -12.194  0.00  0.00    +0.023 C 
ATOM     29  C   UNL     1      38.837 -25.573 -13.292  0.00  0.00    +0.066 C 
ENDBRANCH   7  24
TORSDOF 2
ENDMDL
MODEL 8
REMARK VINA RESULT:     -10.4      1.599      6.664
REMARK  Name = 9998128
REMARK  2 active torsions:
REMARK  status: ('A' for Active; 'I' for Inactive)
REMARK    1  A    between atoms: N_1  and  C_15
REMARK    2  A    between atoms: C_7  and  C_24
REMARK                            x       y       z     vdW  Elec       q    Type
REMARK                         _______ _______ _______ _____ _____    ______ ____
ROOT
ATOM      1  N   UNL     1      32.173 -22.536 -17.461  0.00  0.00    -0.290 N 
ATOM      2  N   UNL     1      33.453 -23.235 -15.615  0.00  0.00    -0.327 NA
ATOM      3  N   UNL     1      32.538 -24.762 -13.992  0.00  0.00    -0.342 NA
ATOM      4  C   UNL     1      31.200 -24.075 -15.859  0.00  0.00    +0.143 C 
ATOM      5  C   UNL     1      32.282 -23.303 -16.275  0.00  0.00    +0.184 C 
ATOM      6  C   UNL     1      31.381 -24.809 -14.676  0.00  0.00    +0.133 C 
ATOM      7  C   UNL     1      33.511 -23.978 -14.498  0.00  0.00    +0.165 C 
ATOM      8  C   UNL     1      29.985 -24.130 -16.566  0.00  0.00    -0.011 C 
ATOM      9  C   UNL     1      30.320 -25.592 -14.227  0.00  0.00    +0.029 C 
ATOM     10  C   UNL     1      28.942 -24.920 -16.096  0.00  0.00    -0.004 C 
ATOM     11  C   UNL     1      29.110 -25.653 -14.924  0.00  0.00    +0.002 C 
ATOM     12  H   UNL     1      31.256 -22.229 -17.654  0.00  0.00    +0.154 HD
ENDROOT
BRANCH   1  15
ATOM     13  N   UNL     1      35.676 -20.773 -21.329  0.00  0.00    -0.236 N 
ATOM     14  N   UNL     1      34.937 -19.943 -22.084  0.00  0.00    -0.180 NA
ATOM     15  C   UNL     1      33.118 -22.128 -18.416  0.00  0.00    +0.050 C 
ATOM     16  C   UNL     1      33.703 -20.831 -20.373  0.00  0.00    +0.037 C 
ATOM     17  C   UNL     1      34.995 -21.339 -20.286  0.00  0.00    +0.067 C 
ATOM     18  C   UNL     1      32.743 -21.227 -19.427  0.00  0.00    +0.018 C 
ATOM     19  C   UNL     1      34.428 -22.620 -18.358  0.00  0.00    +0.016 C 
ATOM     20  C   UNL     1      35.395 -22.236 -19.292  0.00  0.00    +0.017 C 
ATOM     21  C   UNL     1      33.737 -19.981 -21.499  0.00  0.00    +0.119 C 
ATOM     22  H   UNL     1      36.626 -20.958 -21.511  0.00  0.00    +0.174 HD
ENDBRANCH   1  15
BRANCH   7  24
ATOM     23  N   UNL     1      34.659 -24.326 -12.469  0.00  0.00    -0.398 NA
ATOM     24  C   UNL     1      34.746 -23.934 -13.761  0.00  0.00    +0.197 C 
ATOM     25  C   UNL     1      35.925 -23.514 -14.361  0.00  0.00    +0.098 C 
ATOM     26  C   UNL     1      35.803 -24.295 -11.750  0.00  0.00    +0.110 C 
ATOM     27  C   UNL     1      37.081 -23.495 -13.589  0.00  0.00    -0.016 C 
ATOM     28  C   UNL     1      37.028 -23.892 -12.257  0.00  0.00    +0.023 C 
ATOM     29  C   UNL     1      35.709 -24.727 -10.325  0.00  0.00    +0.066 C 
ENDBRANCH   7  24
TORSDOF 2
ENDMDL
MODEL 9
REMARK VINA RESULT:     -10.1      1.970      6.876
REMARK  Name = 9998128
REMARK  2 active torsions:
REMARK  status: ('A' for Active; 'I' for Inactive)
REMARK    1  A    between atoms: N_1  and  C_15
REMARK    2  A    between atoms: C_7  and  C_24
REMARK                            x       y       z     vdW  Elec       q    Type
REMARK                         _______ _______ _______ _____ _____    ______ ____
ROOT
ATOM      1  N   UNL     1      33.113 -23.350 -17.481  0.00  0.00    -0.290 N 
ATOM      2  N   UNL     1      35.157 -23.528 -16.329  0.00  0.00    -0.327 NA
ATOM      3  N   UNL     1      37.141 -22.452 -17.172  0.00  0.00    -0.342 NA
ATOM      4  C   UNL     1      35.078 -22.246 -18.377  0.00  0.00    +0.143 C 
ATOM      5  C   UNL     1      34.491 -23.035 -17.390  0.00  0.00    +0.184 C 
ATOM      6  C   UNL     1      36.446 -21.974 -18.220  0.00  0.00    +0.133 C 
ATOM      7  C   UNL     1      36.459 -23.203 -16.284  0.00  0.00    +0.165 C 
ATOM      8  C   UNL     1      34.361 -21.742 -19.476  0.00  0.00    -0.011 C 
ATOM      9  C   UNL     1      37.068 -21.189 -19.188  0.00  0.00    +0.029 C 
ATOM     10  C   UNL     1      35.007 -20.961 -20.428  0.00  0.00    -0.004 C 
ATOM     11  C   UNL     1      36.363 -20.684 -20.284  0.00  0.00    +0.002 C 
ATOM     12  H   UNL     1      32.777 -23.403 -18.406  0.00  0.00    +0.154 HD
ENDROOT
BRANCH   1  15
ATOM     13  N   UNL     1      29.471 -24.478 -13.506  0.00  0.00    -0.236 N 
ATOM     14  N   UNL     1      30.196 -25.115 -12.571  0.00  0.00    -0.180 NA
ATOM     15  C   UNL     1      32.133 -23.605 -16.508  0.00  0.00    +0.050 C 
ATOM     16  C   UNL     1      31.488 -24.524 -14.365  0.00  0.00    +0.037 C 
ATOM     17  C   UNL     1      30.187 -24.097 -14.607  0.00  0.00    +0.067 C 
ATOM     18  C   UNL     1      32.483 -24.278 -15.326  0.00  0.00    +0.018 C 
ATOM     19  C   UNL     1      30.813 -23.188 -16.720  0.00  0.00    +0.016 C 
ATOM     20  C   UNL     1      29.811 -23.425 -15.774  0.00  0.00    +0.017 C 
ATOM     21  C   UNL     1      31.423 -25.141 -13.098  0.00  0.00    +0.119 C 
ATOM     22  H   UNL     1      28.508 -24.301 -13.406  0.00  0.00    +0.174 HD
ENDBRANCH   1  15
BRANCH   7  24
ATOM     23  N   UNL     1      38.254 -24.506 -15.488  0.00  0.00    -0.398 NA
ATOM     24  C   UNL     1      37.209 -23.710 -15.165  0.00  0.00    +0.197 C 
ATOM     25  C   UNL     1      36.859 -23.388 -13.861  0.00  0.00    +0.098 C 
ATOM     26  C   UNL     1      38.979 -24.999 -14.458  0.00  0.00    +0.110 C 
ATOM     27  C   UNL     1      37.627 -23.914 -12.830  0.00  0.00    -0.016 C 
ATOM     28  C   UNL     1      38.710 -24.736 -13.125  0.00  0.00    +0.023 C 
ATOM     29  C   UNL     1      40.132 -25.878 -14.812  0.00  0.00    +0.066 C 
ENDBRANCH   7  24
TORSDOF 2
ENDMDL
