MODEL 1
REMARK VINA RESULT:     -13.2      0.000      0.000
REMARK  Name = 9800765
REMARK  5 active torsions:
REMARK  status: ('A' for Active; 'I' for Inactive)
REMARK    1  A    between atoms: C_3  and  C_17
REMARK    2  A    between atoms: C_5  and  N_8
REMARK    3  A    between atoms: N_8  and  C_14
REMARK    4  A    between atoms: C_17  and  C_20
REMARK    5  A    between atoms: C_23  and  C_26
REMARK                            x       y       z     vdW  Elec       q    Type
REMARK                         _______ _______ _______ _____ _____    ______ ____
ROOT
ATOM      1  O   UNL     1      36.692 -22.809 -15.982  0.00  0.00    -0.337 OA
ATOM      2  N   UNL     1      35.976 -22.808 -17.173  0.00  0.00    -0.079 NA
ATOM      3  C   UNL     1      34.738 -23.175 -16.832  0.00  0.00    +0.106 C 
ATOM      4  C   UNL     1      34.614 -23.418 -15.453  0.00  0.00    +0.076 C 
ATOM      5  C   UNL     1      35.867 -23.173 -14.975  0.00  0.00    +0.252 C 
ENDROOT
BRANCH   3   6
ATOM      6  C   UNL     1      33.693 -23.281 -17.863  0.00  0.00    +0.066 C 
ATOM      7  C   UNL     1      32.252 -23.259 -17.297  0.00  0.00    +0.011 C 
BRANCH   6   9
ATOM      8  F   UNL     1      36.830 -20.715 -20.548  0.00  0.00    -0.204 F 
ATOM      9  C   UNL     1      33.984 -22.212 -18.921  0.00  0.00    -0.015 C 
ATOM     10  C   UNL     1      35.293 -21.953 -19.251  0.00  0.00    +0.026 C 
ATOM     11  C   UNL     1      32.924 -21.553 -19.499  0.00  0.00    -0.004 C 
ATOM     12  C   UNL     1      34.505 -20.294 -20.820  0.00  0.00    +0.027 C 
ATOM     13  C   UNL     1      35.558 -20.980 -20.215  0.00  0.00    +0.140 C 
ATOM     14  C   UNL     1      33.188 -20.580 -20.462  0.00  0.00    +0.002 C 
BRANCH  12  15
ATOM     15  C   UNL     1      34.775 -19.284 -21.821  0.00  0.00    +0.002 C 
ATOM     16  C   UNL     1      34.495 -19.543 -23.163  0.00  0.00    +0.000 C 
ATOM     17  C   UNL     1      35.312 -18.054 -21.445  0.00  0.00    +0.000 C 
ATOM     18  C   UNL     1      34.753 -18.570 -24.129  0.00  0.00    +0.000 C 
ATOM     19  C   UNL     1      35.570 -17.081 -22.411  0.00  0.00    +0.000 C 
ATOM     20  C   UNL     1      35.292 -17.339 -23.754  0.00  0.00    +0.000 C 
ENDBRANCH  12  15
ENDBRANCH   6   9
ENDBRANCH   3   6
BRANCH   5  21
ATOM     21  N   UNL     1      36.333 -23.251 -13.696  0.00  0.00    -0.147 NA
BRANCH  21  29
ATOM     22  O   UNL     1      39.192 -27.014 -14.636  0.00  0.00    -0.350 OA
ATOM     23  N   UNL     1      37.340 -25.307 -13.410  0.00  0.00    -0.277 N 
ATOM     24  N   UNL     1      35.444 -24.955 -12.230  0.00  0.00    -0.373 N 
ATOM     25  C   UNL     1      37.137 -26.753 -13.375  0.00  0.00    +0.125 C 
ATOM     26  C   UNL     1      38.728 -24.883 -13.574  0.00  0.00    +0.125 C 
ATOM     27  C   UNL     1      37.813 -27.386 -14.585  0.00  0.00    +0.164 C 
ATOM     28  C   UNL     1      39.334 -25.598 -14.775  0.00  0.00    +0.164 C 
ATOM     29  C   UNL     1      36.348 -24.432 -13.130  0.00  0.00    +0.182 C 
ATOM     30  H   UNL     1      35.571 -25.866 -11.877  0.00  0.00    +0.158 HD
ATOM     31  H   UNL     1      34.670 -24.420 -11.940  0.00  0.00    +0.158 HD
ENDBRANCH  21  29
ENDBRANCH   5  21
TORSDOF 5
ENDMDL
MODEL 2
REMARK VINA RESULT:     -12.4      4.297      7.517
REMARK  Name = 9800765
REMARK  5 active torsions:
REMARK  status: ('A' for Active; 'I' for Inactive)
REMARK    1  A    between atoms: C_3  and  C_17
REMARK    2  A    between atoms: C_5  and  N_8
REMARK    3  A    between atoms: N_8  and  C_14
REMARK    4  A    between atoms: C_17  and  C_20
REMARK    5  A    between atoms: C_23  and  C_26
REMARK                            x       y       z     vdW  Elec       q    Type
REMARK                         _______ _______ _______ _____ _____    ______ ____
ROOT
ATOM      1  O   UNL     1      36.165 -19.052 -21.198  0.00  0.00    -0.337 OA
ATOM      2  N   UNL     1      36.288 -18.282 -22.348  0.00  0.00    -0.079 NA
ATOM      3  C   UNL     1      35.194 -18.553 -23.064  0.00  0.00    +0.106 C 
ATOM      4  C   UNL     1      34.352 -19.478 -22.423  0.00  0.00    +0.076 C 
ATOM      5  C   UNL     1      35.010 -19.753 -21.262  0.00  0.00    +0.252 C 
ENDROOT
BRANCH   3   6
ATOM      6  C   UNL     1      34.989 -17.899 -24.367  0.00  0.00    +0.066 C 
ATOM      7  C   UNL     1      34.072 -18.695 -25.328  0.00  0.00    +0.011 C 
BRANCH   6   9
ATOM      8  F   UNL     1      32.601 -13.879 -25.695  0.00  0.00    -0.204 F 
ATOM      9  C   UNL     1      34.538 -16.461 -24.093  0.00  0.00    -0.015 C 
ATOM     10  C   UNL     1      33.766 -15.824 -25.035  0.00  0.00    +0.026 C 
ATOM     11  C   UNL     1      34.923 -15.864 -22.915  0.00  0.00    -0.004 C 
ATOM     12  C   UNL     1      33.729 -13.881 -23.601  0.00  0.00    +0.027 C 
ATOM     13  C   UNL     1      33.355 -14.515 -24.786  0.00  0.00    +0.140 C 
ATOM     14  C   UNL     1      34.513 -14.555 -22.666  0.00  0.00    +0.002 C 
BRANCH  12  15
ATOM     15  C   UNL     1      33.304 -12.523 -23.337  0.00  0.00    +0.002 C 
ATOM     16  C   UNL     1      32.338 -12.273 -22.361  0.00  0.00    +0.000 C 
ATOM     17  C   UNL     1      33.859 -11.465 -24.056  0.00  0.00    +0.000 C 
ATOM     18  C   UNL     1      31.929 -10.965 -22.105  0.00  0.00    +0.000 C 
ATOM     19  C   UNL     1      33.449 -10.157 -23.800  0.00  0.00    +0.000 C 
ATOM     20  C   UNL     1      32.483  -9.906 -22.825  0.00  0.00    +0.000 C 
ENDBRANCH  12  15
ENDBRANCH   6   9
ENDBRANCH   3   6
BRANCH   5  21
ATOM     21  N   UNL     1      34.655 -20.591 -20.247  0.00  0.00    -0.147 NA
BRANCH  21  29
ATOM     22  O   UNL     1      34.343 -23.711 -16.589  0.00  0.00    -0.350 OA
ATOM     23  N   UNL     1      35.297 -22.255 -18.783  0.00  0.00    -0.277 N 
ATOM     24  N   UNL     1      36.965 -21.217 -19.902  0.00  0.00    -0.373 N 
ATOM     25  C   UNL     1      36.203 -22.619 -17.698  0.00  0.00    +0.125 C 
ATOM     26  C   UNL     1      34.132 -23.124 -18.933  0.00  0.00    +0.125 C 
ATOM     27  C   UNL     1      35.408 -22.775 -16.407  0.00  0.00    +0.164 C 
ATOM     28  C   UNL     1      33.427 -23.257 -17.588  0.00  0.00    +0.164 C 
ATOM     29  C   UNL     1      35.604 -21.301 -19.690  0.00  0.00    +0.182 C 
ATOM     30  H   UNL     1      37.578 -21.814 -19.414  0.00  0.00    +0.158 HD
ATOM     31  H   UNL     1      37.325 -20.560 -20.541  0.00  0.00    +0.158 HD
ENDBRANCH  21  29
ENDBRANCH   5  21
TORSDOF 5
ENDMDL
MODEL 3
REMARK VINA RESULT:     -12.1      1.452      2.005
REMARK  Name = 9800765
REMARK  5 active torsions:
REMARK  status: ('A' for Active; 'I' for Inactive)
REMARK    1  A    between atoms: C_3  and  C_17
REMARK    2  A    between atoms: C_5  and  N_8
REMARK    3  A    between atoms: N_8  and  C_14
REMARK    4  A    between atoms: C_17  and  C_20
REMARK    5  A    between atoms: C_23  and  C_26
REMARK                            x       y       z     vdW  Elec       q    Type
REMARK                         _______ _______ _______ _____ _____    ______ ____
ROOT
ATOM      1  O   UNL     1      35.136 -23.612 -14.407  0.00  0.00    -0.337 OA
ATOM      2  N   UNL     1      34.022 -23.870 -15.197  0.00  0.00    -0.079 NA
ATOM      3  C   UNL     1      34.347 -23.416 -16.411  0.00  0.00    +0.106 C 
ATOM      4  C   UNL     1      35.640 -22.866 -16.446  0.00  0.00    +0.076 C 
ATOM      5  C   UNL     1      36.084 -23.017 -15.166  0.00  0.00    +0.252 C 
ENDROOT
BRANCH   3   6
ATOM      6  C   UNL     1      33.385 -23.529 -17.519  0.00  0.00    +0.066 C 
ATOM      7  C   UNL     1      31.905 -23.470 -17.069  0.00  0.00    +0.011 C 
BRANCH   6   9
ATOM      8  F   UNL     1      32.175 -20.124 -20.770  0.00  0.00    -0.204 F 
ATOM      9  C   UNL     1      33.777 -22.489 -18.574  0.00  0.00    -0.015 C 
ATOM     10  C   UNL     1      32.780 -21.776 -19.195  0.00  0.00    +0.026 C 
ATOM     11  C   UNL     1      35.111 -22.313 -18.859  0.00  0.00    -0.004 C 
ATOM     12  C   UNL     1      34.480 -20.625 -20.468  0.00  0.00    +0.027 C 
ATOM     13  C   UNL     1      33.136 -20.829 -20.155  0.00  0.00    +0.140 C 
ATOM     14  C   UNL     1      35.467 -21.367 -19.820  0.00  0.00    +0.002 C 
BRANCH  12  15
ATOM     15  C   UNL     1      34.855 -19.644 -21.463  0.00  0.00    +0.002 C 
ATOM     16  C   UNL     1      35.465 -18.452 -21.070  0.00  0.00    +0.000 C 
ATOM     17  C   UNL     1      34.608 -19.889 -22.813  0.00  0.00    +0.000 C 
ATOM     18  C   UNL     1      35.828 -17.506 -22.028  0.00  0.00    +0.000 C 
ATOM     19  C   UNL     1      34.971 -18.942 -23.771  0.00  0.00    +0.000 C 
ATOM     20  C   UNL     1      35.581 -17.750 -23.379  0.00  0.00    +0.000 C 
ENDBRANCH  12  15
ENDBRANCH   6   9
ENDBRANCH   3   6
BRANCH   5  21
ATOM     21  N   UNL     1      37.280 -22.660 -14.620  0.00  0.00    -0.147 NA
BRANCH  21  29
ATOM     22  O   UNL     1      38.267 -27.332 -13.973  0.00  0.00    -0.350 OA
ATOM     23  N   UNL     1      38.052 -24.567 -13.576  0.00  0.00    -0.277 N 
ATOM     24  N   UNL     1      37.703 -22.775 -12.242  0.00  0.00    -0.373 N 
ATOM     25  C   UNL     1      37.868 -25.484 -12.454  0.00  0.00    +0.125 C 
ATOM     26  C   UNL     1      38.867 -25.088 -14.670  0.00  0.00    +0.125 C 
ATOM     27  C   UNL     1      37.375 -26.828 -12.976  0.00  0.00    +0.164 C 
ATOM     28  C   UNL     1      38.330 -26.449 -15.095  0.00  0.00    +0.164 C 
ATOM     29  C   UNL     1      37.653 -23.277 -13.526  0.00  0.00    +0.182 C 
ATOM     30  H   UNL     1      38.004 -23.350 -11.500  0.00  0.00    +0.158 HD
ATOM     31  H   UNL     1      37.437 -21.844 -12.065  0.00  0.00    +0.158 HD
ENDBRANCH  21  29
ENDBRANCH   5  21
TORSDOF 5
ENDMDL
MODEL 4
REMARK VINA RESULT:     -11.9      9.988     13.985
REMARK  Name = 9800765
REMARK  5 active torsions:
REMARK  status: ('A' for Active; 'I' for Inactive)
REMARK    1  A    between atoms: C_3  and  C_17
REMARK    2  A    between atoms: C_5  and  N_8
REMARK    3  A    between atoms: N_8  and  C_14
REMARK    4  A    between atoms: C_17  and  C_20
REMARK    5  A    between atoms: C_23  and  C_26
REMARK                            x       y       z     vdW  Elec       q    Type
REMARK                         _______ _______ _______ _____ _____    ______ ____
ROOT
ATOM      1  O   UNL     1      32.296 -13.385 -21.166  0.00  0.00    -0.337 OA
ATOM      2  N   UNL     1      31.956 -12.317 -20.344  0.00  0.00    -0.079 NA
ATOM      3  C   UNL     1      31.860 -11.267 -21.164  0.00  0.00    +0.106 C 
ATOM      4  C   UNL     1      32.126 -11.608 -22.501  0.00  0.00    +0.076 C 
ATOM      5  C   UNL     1      32.392 -12.944 -22.441  0.00  0.00    +0.252 C 
ENDROOT
BRANCH   3   6
ATOM      6  C   UNL     1      31.508  -9.944 -20.623  0.00  0.00    +0.066 C 
ATOM      7  C   UNL     1      32.010  -9.706 -19.178  0.00  0.00    +0.011 C 
BRANCH   6   9
ATOM      8  F   UNL     1      30.807  -7.438 -24.729  0.00  0.00    -0.204 F 
ATOM      9  C   UNL     1      31.964  -8.896 -21.643  0.00  0.00    -0.015 C 
ATOM     10  C   UNL     1      31.163  -8.647 -22.732  0.00  0.00    +0.026 C 
ATOM     11  C   UNL     1      33.157  -8.246 -21.429  0.00  0.00    -0.004 C 
ATOM     12  C   UNL     1      32.782  -7.015 -23.473  0.00  0.00    +0.027 C 
ATOM     13  C   UNL     1      31.578  -7.692 -23.661  0.00  0.00    +0.140 C 
ATOM     14  C   UNL     1      33.572  -7.292 -22.358  0.00  0.00    +0.002 C 
BRANCH  12  15
ATOM     15  C   UNL     1      33.216  -6.023 -24.433  0.00  0.00    +0.002 C 
ATOM     16  C   UNL     1      34.449  -6.165 -25.072  0.00  0.00    +0.000 C 
ATOM     17  C   UNL     1      32.404  -4.927 -24.720  0.00  0.00    +0.000 C 
ATOM     18  C   UNL     1      34.868  -5.210 -25.998  0.00  0.00    +0.000 C 
ATOM     19  C   UNL     1      32.823  -3.972 -25.647  0.00  0.00    +0.000 C 
ATOM     20  C   UNL     1      34.056  -4.112 -26.285  0.00  0.00    +0.000 C 
ENDBRANCH  12  15
ENDBRANCH   6   9
ENDBRANCH   3   6
BRANCH   5  21
ATOM     21  N   UNL     1      32.716 -13.805 -23.446  0.00  0.00    -0.147 NA
BRANCH  21  29
ATOM     22  O   UNL     1      34.122 -17.837 -25.679  0.00  0.00    -0.350 OA
ATOM     23  N   UNL     1      34.136 -15.465 -24.189  0.00  0.00    -0.277 N 
ATOM     24  N   UNL     1      34.890 -14.208 -22.467  0.00  0.00    -0.373 N 
ATOM     25  C   UNL     1      34.992 -16.581 -23.796  0.00  0.00    +0.125 C 
ATOM     26  C   UNL     1      33.766 -15.439 -25.601  0.00  0.00    +0.125 C 
ATOM     27  C   UNL     1      34.369 -17.887 -24.272  0.00  0.00    +0.164 C 
ATOM     28  C   UNL     1      33.196 -16.795 -25.998  0.00  0.00    +0.164 C 
ATOM     29  C   UNL     1      33.857 -14.440 -23.352  0.00  0.00    +0.182 C 
ATOM     30  H   UNL     1      35.702 -14.764 -22.501  0.00  0.00    +0.158 HD
ATOM     31  H   UNL     1      34.815 -13.487 -21.801  0.00  0.00    +0.158 HD
ENDBRANCH  21  29
ENDBRANCH   5  21
TORSDOF 5
ENDMDL
MODEL 5
REMARK VINA RESULT:     -11.5     10.634     14.786
REMARK  Name = 9800765
REMARK  5 active torsions:
REMARK  status: ('A' for Active; 'I' for Inactive)
REMARK    1  A    between atoms: C_3  and  C_17
REMARK    2  A    between atoms: C_5  and  N_8
REMARK    3  A    between atoms: N_8  and  C_14
REMARK    4  A    between atoms: C_17  and  C_20
REMARK    5  A    between atoms: C_23  and  C_26
REMARK                            x       y       z     vdW  Elec       q    Type
REMARK                         _______ _______ _______ _____ _____    ______ ____
ROOT
ATOM      1  O   UNL     1      33.357 -11.657 -23.624  0.00  0.00    -0.337 OA
ATOM      2  N   UNL     1      33.146 -10.327 -23.282  0.00  0.00    -0.079 NA
ATOM      3  C   UNL     1      32.263 -10.364 -22.281  0.00  0.00    +0.106 C 
ATOM      4  C   UNL     1      31.884 -11.676 -21.952  0.00  0.00    +0.076 C 
ATOM      5  C   UNL     1      32.601 -12.441 -22.824  0.00  0.00    +0.252 C 
ENDROOT
BRANCH   3   6
ATOM      6  C   UNL     1      31.803  -9.110 -21.661  0.00  0.00    +0.066 C 
ATOM      7  C   UNL     1      32.367  -8.874 -20.238  0.00  0.00    +0.011 C 
BRANCH   6   9
ATOM      8  F   UNL     1      34.886  -6.121 -23.938  0.00  0.00    -0.204 F 
ATOM      9  C   UNL     1      32.077  -7.979 -22.657  0.00  0.00    -0.015 C 
ATOM     10  C   UNL     1      33.375  -7.566 -22.840  0.00  0.00    +0.026 C 
ATOM     11  C   UNL     1      31.014  -7.421 -23.327  0.00  0.00    -0.004 C 
ATOM     12  C   UNL     1      32.569  -5.948 -24.443  0.00  0.00    +0.027 C 
ATOM     13  C   UNL     1      33.625  -6.536 -23.747  0.00  0.00    +0.140 C 
ATOM     14  C   UNL     1      31.263  -6.391 -24.233  0.00  0.00    +0.002 C 
BRANCH  12  15
ATOM     15  C   UNL     1      32.823  -4.880 -25.386  0.00  0.00    +0.002 C 
ATOM     16  C   UNL     1      32.326  -3.600 -25.138  0.00  0.00    +0.000 C 
ATOM     17  C   UNL     1      33.564  -5.130 -26.540  0.00  0.00    +0.000 C 
ATOM     18  C   UNL     1      32.572  -2.570 -26.045  0.00  0.00    +0.000 C 
ATOM     19  C   UNL     1      33.809  -4.099 -27.447  0.00  0.00    +0.000 C 
ATOM     20  C   UNL     1      33.313  -2.818 -27.201  0.00  0.00    +0.000 C 
ENDBRANCH  12  15
ENDBRANCH   6   9
ENDBRANCH   3   6
BRANCH   5  21
ATOM     21  N   UNL     1      32.629 -13.796 -22.960  0.00  0.00    -0.147 NA
BRANCH  21  29
ATOM     22  O   UNL     1      34.205 -17.334 -25.828  0.00  0.00    -0.350 OA
ATOM     23  N   UNL     1      34.121 -15.237 -23.973  0.00  0.00    -0.277 N 
ATOM     24  N   UNL     1      34.836 -14.236 -22.075  0.00  0.00    -0.373 N 
ATOM     25  C   UNL     1      35.039 -16.354 -23.772  0.00  0.00    +0.125 C 
ATOM     26  C   UNL     1      33.728 -15.002 -25.360  0.00  0.00    +0.125 C 
ATOM     27  C   UNL     1      34.476 -17.598 -24.450  0.00  0.00    +0.164 C 
ATOM     28  C   UNL     1      33.222 -16.305 -25.967  0.00  0.00    +0.164 C 
ATOM     29  C   UNL     1      33.803 -14.377 -22.979  0.00  0.00    +0.182 C 
ATOM     30  H   UNL     1      35.675 -14.735 -22.205  0.00  0.00    +0.158 HD
ATOM     31  H   UNL     1      34.734 -13.637 -21.300  0.00  0.00    +0.158 HD
ENDBRANCH  21  29
ENDBRANCH   5  21
TORSDOF 5
ENDMDL
MODEL 6
REMARK VINA RESULT:     -11.4      1.531      2.346
REMARK  Name = 9800765
REMARK  5 active torsions:
REMARK  status: ('A' for Active; 'I' for Inactive)
REMARK    1  A    between atoms: C_3  and  C_17
REMARK    2  A    between atoms: C_5  and  N_8
REMARK    3  A    between atoms: N_8  and  C_14
REMARK    4  A    between atoms: C_17  and  C_20
REMARK    5  A    between atoms: C_23  and  C_26
REMARK                            x       y       z     vdW  Elec       q    Type
REMARK                         _______ _______ _______ _____ _____    ______ ____
ROOT
ATOM      1  O   UNL     1      35.668 -24.761 -16.008  0.00  0.00    -0.337 OA
ATOM      2  N   UNL     1      34.488 -24.806 -16.741  0.00  0.00    -0.079 NA
ATOM      3  C   UNL     1      34.262 -23.543 -17.112  0.00  0.00    +0.106 C 
ATOM      4  C   UNL     1      35.256 -22.665 -16.647  0.00  0.00    +0.076 C 
ATOM      5  C   UNL     1      36.107 -23.483 -15.964  0.00  0.00    +0.252 C 
ENDROOT
BRANCH   3   6
ATOM      6  C   UNL     1      33.076 -23.215 -17.918  0.00  0.00    +0.066 C 
ATOM      7  C   UNL     1      31.839 -22.818 -17.076  0.00  0.00    +0.011 C 
BRANCH   6   9
ATOM      8  F   UNL     1      36.528 -20.984 -20.513  0.00  0.00    -0.204 F 
ATOM      9  C   UNL     1      33.503 -22.178 -18.962  0.00  0.00    -0.015 C 
ATOM     10  C   UNL     1      34.839 -22.058 -19.260  0.00  0.00    +0.026 C 
ATOM     11  C   UNL     1      32.532 -21.407 -19.558  0.00  0.00    -0.004 C 
ATOM     12  C   UNL     1      34.268 -20.316 -20.833  0.00  0.00    +0.027 C 
ATOM     13  C   UNL     1      35.227 -21.113 -20.210  0.00  0.00    +0.140 C 
ATOM     14  C   UNL     1      32.920 -20.463 -20.507  0.00  0.00    +0.002 C 
BRANCH  12  15
ATOM     15  C   UNL     1      34.666 -19.336 -21.821  0.00  0.00    +0.002 C 
ATOM     16  C   UNL     1      35.293 -18.156 -21.417  0.00  0.00    +0.000 C 
ATOM     17  C   UNL     1      34.424 -19.570 -23.174  0.00  0.00    +0.000 C 
ATOM     18  C   UNL     1      35.679 -17.212 -22.368  0.00  0.00    +0.000 C 
ATOM     19  C   UNL     1      34.809 -18.624 -24.125  0.00  0.00    +0.000 C 
ATOM     20  C   UNL     1      35.436 -17.444 -23.722  0.00  0.00    +0.000 C 
ENDBRANCH  12  15
ENDBRANCH   6   9
ENDBRANCH   3   6
BRANCH   5  21
ATOM     21  N   UNL     1      37.255 -23.172 -15.299  0.00  0.00    -0.147 NA
BRANCH  21  29
ATOM     22  O   UNL     1      37.052 -24.197 -10.596  0.00  0.00    -0.350 OA
ATOM     23  N   UNL     1      37.539 -24.370 -13.348  0.00  0.00    -0.277 N 
ATOM     24  N   UNL     1      38.821 -25.003 -15.100  0.00  0.00    -0.373 N 
ATOM     25  C   UNL     1      38.508 -24.911 -12.398  0.00  0.00    +0.125 C 
ATOM     26  C   UNL     1      36.168 -24.289 -12.853  0.00  0.00    +0.125 C 
ATOM     27  C   UNL     1      38.396 -24.156 -11.079  0.00  0.00    +0.164 C 
ATOM     28  C   UNL     1      36.159 -23.562 -11.514  0.00  0.00    +0.164 C 
ATOM     29  C   UNL     1      37.853 -24.134 -14.642  0.00  0.00    +0.182 C 
ATOM     30  H   UNL     1      39.193 -25.688 -14.498  0.00  0.00    +0.158 HD
ATOM     31  H   UNL     1      39.141 -24.939 -16.029  0.00  0.00    +0.158 HD
ENDBRANCH  21  29
ENDBRANCH   5  21
TORSDOF 5
ENDMDL
MODEL 7
REMARK VINA RESULT:     -11.0     10.545     14.821
REMARK  Name = 9800765
REMARK  5 active torsions:
REMARK  status: ('A' for Active; 'I' for Inactive)
REMARK    1  A    between atoms: C_3  and  C_17
REMARK    2  A    between atoms: C_5  and  N_8
REMARK    3  A    between atoms: N_8  and  C_14
REMARK    4  A    between atoms: C_17  and  C_20
REMARK    5  A    between atoms: C_23  and  C_26
REMARK                            x       y       z     vdW  Elec       q    Type
REMARK                         _______ _______ _______ _____ _____    ______ ____
ROOT
ATOM      1  O   UNL     1      32.323 -12.543 -22.593  0.00  0.00    -0.337 OA
ATOM      2  N   UNL     1      31.707 -11.535 -21.862  0.00  0.00    -0.079 NA
ATOM      3  C   UNL     1      32.227 -10.398 -22.334  0.00  0.00    +0.106 C 
ATOM      4  C   UNL     1      33.167 -10.625 -23.354  0.00  0.00    +0.076 C 
ATOM      5  C   UNL     1      33.185 -11.983 -23.472  0.00  0.00    +0.252 C 
ENDROOT
BRANCH   3   6
ATOM      6  C   UNL     1      31.793  -9.106 -21.779  0.00  0.00    +0.066 C 
ATOM      7  C   UNL     1      32.223  -8.882 -20.308  0.00  0.00    +0.011 C 
BRANCH   6   9
ATOM      8  F   UNL     1      35.290  -6.376 -23.765  0.00  0.00    -0.204 F 
ATOM      9  C   UNL     1      32.244  -8.014 -22.753  0.00  0.00    -0.015 C 
ATOM     10  C   UNL     1      33.579  -7.695 -22.810  0.00  0.00    +0.026 C 
ATOM     11  C   UNL     1      31.294  -7.395 -23.533  0.00  0.00    -0.004 C 
ATOM     12  C   UNL     1      33.052  -6.053 -24.502  0.00  0.00    +0.027 C 
ATOM     13  C   UNL     1      33.990  -6.700 -23.698  0.00  0.00    +0.140 C 
ATOM     14  C   UNL     1      31.704  -6.401 -24.419  0.00  0.00    +0.002 C 
BRANCH  12  15
ATOM     15  C   UNL     1      33.474  -5.021 -25.425  0.00  0.00    +0.002 C 
ATOM     16  C   UNL     1      32.754  -3.829 -25.512  0.00  0.00    +0.000 C 
ATOM     17  C   UNL     1      34.598  -5.218 -26.226  0.00  0.00    +0.000 C 
ATOM     18  C   UNL     1      33.160  -2.834 -26.401  0.00  0.00    +0.000 C 
ATOM     19  C   UNL     1      35.003  -4.222 -27.115  0.00  0.00    +0.000 C 
ATOM     20  C   UNL     1      34.284  -3.030 -27.204  0.00  0.00    +0.000 C 
ENDBRANCH  12  15
ENDBRANCH   6   9
ENDBRANCH   3   6
BRANCH   5  21
ATOM     21  N   UNL     1      33.919 -12.766 -24.312  0.00  0.00    -0.147 NA
BRANCH  21  29
ATOM     22  O   UNL     1      35.121 -17.417 -23.930  0.00  0.00    -0.350 OA
ATOM     23  N   UNL     1      33.711 -15.059 -24.473  0.00  0.00    -0.277 N 
ATOM     24  N   UNL     1      32.304 -13.839 -25.756  0.00  0.00    -0.373 N 
ATOM     25  C   UNL     1      33.611 -16.197 -25.383  0.00  0.00    +0.125 C 
ATOM     26  C   UNL     1      34.066 -15.398 -23.098  0.00  0.00    +0.125 C 
ATOM     27  C   UNL     1      34.881 -17.033 -25.286  0.00  0.00    +0.164 C 
ATOM     28  C   UNL     1      35.316 -16.269 -23.100  0.00  0.00    +0.164 C 
ATOM     29  C   UNL     1      33.328 -13.813 -24.832  0.00  0.00    +0.182 C 
ATOM     30  H   UNL     1      31.946 -14.701 -26.071  0.00  0.00    +0.158 HD
ATOM     31  H   UNL     1      31.930 -12.996 -26.103  0.00  0.00    +0.158 HD
ENDBRANCH  21  29
ENDBRANCH   5  21
TORSDOF 5
ENDMDL
MODEL 8
REMARK VINA RESULT:     -10.9      5.595     11.104
REMARK  Name = 9800765
REMARK  5 active torsions:
REMARK  status: ('A' for Active; 'I' for Inactive)
REMARK    1  A    between atoms: C_3  and  C_17
REMARK    2  A    between atoms: C_5  and  N_8
REMARK    3  A    between atoms: N_8  and  C_14
REMARK    4  A    between atoms: C_17  and  C_20
REMARK    5  A    between atoms: C_23  and  C_26
REMARK                            x       y       z     vdW  Elec       q    Type
REMARK                         _______ _______ _______ _____ _____    ______ ____
ROOT
ATOM      1  O   UNL     1      35.241 -16.266 -21.206  0.00  0.00    -0.337 OA
ATOM      2  N   UNL     1      35.161 -17.653 -21.179  0.00  0.00    -0.079 NA
ATOM      3  C   UNL     1      34.812 -18.004 -22.419  0.00  0.00    +0.106 C 
ATOM      4  C   UNL     1      34.659 -16.891 -23.265  0.00  0.00    +0.076 C 
ATOM      5  C   UNL     1      34.940 -15.834 -22.451  0.00  0.00    +0.252 C 
ENDROOT
BRANCH   3   6
ATOM      6  C   UNL     1      34.635 -19.425 -22.758  0.00  0.00    +0.066 C 
ATOM      7  C   UNL     1      35.541 -19.908 -23.917  0.00  0.00    +0.011 C 
BRANCH   6   9
ATOM      8  F   UNL     1      32.648 -21.635 -18.912  0.00  0.00    -0.204 F 
ATOM      9  C   UNL     1      34.771 -20.226 -21.460  0.00  0.00    -0.015 C 
ATOM     10  C   UNL     1      33.630 -20.566 -20.775  0.00  0.00    +0.026 C 
ATOM     11  C   UNL     1      36.031 -20.573 -21.030  0.00  0.00    -0.004 C 
ATOM     12  C   UNL     1      35.016 -21.663 -19.129  0.00  0.00    +0.027 C 
ATOM     13  C   UNL     1      33.753 -21.295 -19.592  0.00  0.00    +0.140 C 
ATOM     14  C   UNL     1      36.155 -21.302 -19.848  0.00  0.00    +0.002 C 
BRANCH  12  15
ATOM     15  C   UNL     1      35.150 -22.421 -17.904  0.00  0.00    +0.002 C 
ATOM     16  C   UNL     1      36.349 -22.388 -17.192  0.00  0.00    +0.000 C 
ATOM     17  C   UNL     1      34.081 -23.184 -17.435  0.00  0.00    +0.000 C 
ATOM     18  C   UNL     1      36.479 -23.117 -16.010  0.00  0.00    +0.000 C 
ATOM     19  C   UNL     1      34.211 -23.914 -16.253  0.00  0.00    +0.000 C 
ATOM     20  C   UNL     1      35.410 -23.881 -15.540  0.00  0.00    +0.000 C 
ENDBRANCH  12  15
ENDBRANCH   6   9
ENDBRANCH   3   6
BRANCH   5  21
ATOM     21  N   UNL     1      34.947 -14.502 -22.740  0.00  0.00    -0.147 NA
BRANCH  21  29
ATOM     22  O   UNL     1      33.253 -10.532 -24.880  0.00  0.00    -0.350 OA
ATOM     23  N   UNL     1      33.459 -12.825 -23.286  0.00  0.00    -0.277 N 
ATOM     24  N   UNL     1      33.018 -13.967 -21.385  0.00  0.00    -0.373 N 
ATOM     25  C   UNL     1      32.728 -11.659 -22.798  0.00  0.00    +0.125 C 
ATOM     26  C   UNL     1      33.547 -12.935 -24.740  0.00  0.00    +0.125 C 
ATOM     27  C   UNL     1      33.285 -10.403 -23.457  0.00  0.00    +0.164 C 
ATOM     28  C   UNL     1      34.068 -11.623 -25.314  0.00  0.00    +0.164 C 
ATOM     29  C   UNL     1      33.865 -13.818 -22.463  0.00  0.00    +0.182 C 
ATOM     30  H   UNL     1      32.231 -13.382 -21.292  0.00  0.00    +0.158 HD
ATOM     31  H   UNL     1      33.199 -14.657 -20.706  0.00  0.00    +0.158 HD
ENDBRANCH  21  29
ENDBRANCH   5  21
TORSDOF 5
ENDMDL
MODEL 9
REMARK VINA RESULT:     -10.8      6.992     12.109
REMARK  Name = 9800765
REMARK  5 active torsions:
REMARK  status: ('A' for Active; 'I' for Inactive)
REMARK    1  A    between atoms: C_3  and  C_17
REMARK    2  A    between atoms: C_5  and  N_8
REMARK    3  A    between atoms: N_8  and  C_14
REMARK    4  A    between atoms: C_17  and  C_20
REMARK    5  A    between atoms: C_23  and  C_26
REMARK                            x       y       z     vdW  Elec       q    Type
REMARK                         _______ _______ _______ _____ _____    ______ ____
ROOT
ATOM      1  O   UNL     1      34.494 -13.571 -22.654  0.00  0.00    -0.337 OA
ATOM      2  N   UNL     1      34.891 -14.844 -23.045  0.00  0.00    -0.079 NA
ATOM      3  C   UNL     1      34.099 -15.152 -24.076  0.00  0.00    +0.106 C 
ATOM      4  C   UNL     1      33.192 -14.121 -24.377  0.00  0.00    +0.076 C 
ATOM      5  C   UNL     1      33.486 -13.160 -23.456  0.00  0.00    +0.252 C 
ENDROOT
BRANCH   3   6
ATOM      6  C   UNL     1      34.244 -16.451 -24.751  0.00  0.00    +0.066 C 
ATOM      7  C   UNL     1      35.277 -16.444 -25.905  0.00  0.00    +0.011 C 
BRANCH   6   9
ATOM      8  F   UNL     1      35.865 -17.690 -20.339  0.00  0.00    -0.204 F 
ATOM      9  C   UNL     1      34.499 -17.505 -23.668  0.00  0.00    -0.015 C 
ATOM     10  C   UNL     1      35.074 -17.105 -22.485  0.00  0.00    +0.026 C 
ATOM     11  C   UNL     1      34.143 -18.809 -23.923  0.00  0.00    -0.004 C 
ATOM     12  C   UNL     1      34.957 -19.394 -21.725  0.00  0.00    +0.027 C 
ATOM     13  C   UNL     1      35.305 -18.063 -21.499  0.00  0.00    +0.140 C 
ATOM     14  C   UNL     1      34.376 -19.767 -22.937  0.00  0.00    +0.002 C 
BRANCH  12  15
ATOM     15  C   UNL     1      35.194 -20.393 -20.705  0.00  0.00    +0.002 C 
ATOM     16  C   UNL     1      34.118 -21.079 -20.139  0.00  0.00    +0.000 C 
ATOM     17  C   UNL     1      36.495 -20.670 -20.288  0.00  0.00    +0.000 C 
ATOM     18  C   UNL     1      34.346 -22.042 -19.156  0.00  0.00    +0.000 C 
ATOM     19  C   UNL     1      36.722 -21.633 -19.305  0.00  0.00    +0.000 C 
ATOM     20  C   UNL     1      35.648 -22.319 -18.738  0.00  0.00    +0.000 C 
ENDBRANCH  12  15
ENDBRANCH   6   9
ENDBRANCH   3   6
BRANCH   5  21
ATOM     21  N   UNL     1      32.918 -11.935 -23.276  0.00  0.00    -0.147 NA
BRANCH  21  29
ATOM     22  O   UNL     1      31.909  -7.895 -20.852  0.00  0.00    -0.350 OA
ATOM     23  N   UNL     1      31.845 -10.533 -21.790  0.00  0.00    -0.277 N 
ATOM     24  N   UNL     1      31.546 -12.750 -21.460  0.00  0.00    -0.373 N 
ATOM     25  C   UNL     1      31.576 -10.251 -20.383  0.00  0.00    +0.125 C 
ATOM     26  C   UNL     1      31.579  -9.426 -22.704  0.00  0.00    +0.125 C 
ATOM     27  C   UNL     1      32.287  -8.964 -19.982  0.00  0.00    +0.164 C 
ATOM     28  C   UNL     1      32.290  -8.175 -22.201  0.00  0.00    +0.164 C 
ATOM     29  C   UNL     1      32.144 -11.776 -22.232  0.00  0.00    +0.182 C 
ATOM     30  H   UNL     1      30.984 -12.495 -20.693  0.00  0.00    +0.158 HD
ATOM     31  H   UNL     1      31.683 -13.701 -21.674  0.00  0.00    +0.158 HD
ENDBRANCH  21  29
ENDBRANCH   5  21
TORSDOF 5
ENDMDL
