MODEL 1
REMARK VINA RESULT:     -12.5      0.000      0.000
REMARK  Name = 10407120
REMARK  4 active torsions:
REMARK  status: ('A' for Active; 'I' for Inactive)
REMARK    1  A    between atoms: N_2  and  C_19
REMARK    2  A    between atoms: C_3  and  C_6
REMARK    3  A    between atoms: C_5  and  C_16
REMARK    4  A    between atoms: C_19  and  C_21
REMARK                            x       y       z     vdW  Elec       q    Type
REMARK                         _______ _______ _______ _____ _____    ______ ____
ROOT
ATOM      1  O   UNL     1      34.666 -16.249 -25.756  0.00  0.00    -0.270 OA
ATOM      2  N   UNL     1      33.634 -14.636 -24.438  0.00  0.00    -0.267 N 
ATOM      3  C   UNL     1      34.413 -15.778 -24.646  0.00  0.00    +0.250 C 
ATOM      4  C   UNL     1      33.071 -13.937 -25.585  0.00  0.00    +0.116 C 
ENDROOT
BRANCH   3   6
ATOM      5  C   UNL     1      35.045 -17.804 -23.383  0.00  0.00    +0.006 C 
ATOM      6  C   UNL     1      34.928 -16.455 -23.420  0.00  0.00    +0.058 C 
BRANCH   5  16
ATOM      7  O   UNL     1      36.663 -22.295 -17.337  0.00  0.00    -0.275 OA
ATOM      8  N   UNL     1      36.925 -20.709 -18.978  0.00  0.00    -0.270 N 
ATOM      9  N   UNL     1      37.278 -19.126 -20.699  0.00  0.00    -0.229 NA
ATOM     10  C   UNL     1      34.213 -21.089 -19.707  0.00  0.00    +0.039 C 
ATOM     11  C   UNL     1      35.120 -20.196 -20.497  0.00  0.00    +0.010 C 
ATOM     12  C   UNL     1      34.996 -22.219 -19.059  0.00  0.00    +0.090 C 
ATOM     13  C   UNL     1      36.439 -19.998 -20.092  0.00  0.00    +0.130 C 
ATOM     14  C   UNL     1      34.653 -19.462 -21.588  0.00  0.00    +0.000 C 
ATOM     15  C   UNL     1      36.246 -21.735 -18.351  0.00  0.00    +0.227 C 
ATOM     16  C   UNL     1      35.502 -18.576 -22.242  0.00  0.00    +0.019 C 
ATOM     17  C   UNL     1      36.792 -18.444 -21.761  0.00  0.00    +0.100 C 
ATOM     18  H   UNL     1      37.808 -20.459 -18.623  0.00  0.00    +0.156 HD
ENDBRANCH   5  16
ENDBRANCH   3   6
BRANCH   2  19
ATOM     19  C   UNL     1      33.292 -14.079 -23.130  0.00  0.00    +0.158 C 
BRANCH  19  21
ATOM     20  O   UNL     1      34.397 -12.084 -23.875  0.00  0.00    -0.456 OA
ATOM     21  C   UNL     1      33.410 -12.584 -23.110  0.00  0.00    +0.139 A 
ATOM     22  C   UNL     1      32.708 -11.621 -22.464  0.00  0.00    +0.013 A 
ATOM     23  C   UNL     1      33.302 -10.392 -22.853  0.00  0.00    +0.033 A 
ATOM     24  C   UNL     1      34.337 -10.731 -23.721  0.00  0.00    +0.145 A 
ATOM     25  C   UNL     1      31.564 -11.802 -21.548  0.00  0.00    +0.034 C 
ATOM     26  C   UNL     1      33.082  -9.034 -22.569  0.00  0.00    +0.003 C 
ATOM     27  C   UNL     1      35.177  -9.805 -24.334  0.00  0.00    +0.037 C 
ATOM     28  C   UNL     1      33.912  -8.078 -23.171  0.00  0.00    +0.000 C 
ATOM     29  C   UNL     1      34.941  -8.459 -24.037  0.00  0.00    +0.003 C 
ENDBRANCH  19  21
ENDBRANCH   2  19
TORSDOF 4
ENDMDL
MODEL 2
REMARK VINA RESULT:     -12.5      2.414      9.647
REMARK  Name = 10407120
REMARK  4 active torsions:
REMARK  status: ('A' for Active; 'I' for Inactive)
REMARK    1  A    between atoms: N_2  and  C_19
REMARK    2  A    between atoms: C_3  and  C_6
REMARK    3  A    between atoms: C_5  and  C_16
REMARK    4  A    between atoms: C_19  and  C_21
REMARK                            x       y       z     vdW  Elec       q    Type
REMARK                         _______ _______ _______ _____ _____    ______ ____
ROOT
ATOM      1  O   UNL     1      34.715 -16.624 -25.630  0.00  0.00    -0.270 OA
ATOM      2  N   UNL     1      34.978 -17.434 -23.467  0.00  0.00    -0.267 N 
ATOM      3  C   UNL     1      34.780 -16.427 -24.415  0.00  0.00    +0.250 C 
ATOM      4  C   UNL     1      35.122 -18.815 -23.911  0.00  0.00    +0.116 C 
ENDROOT
BRANCH   3   6
ATOM      5  C   UNL     1      33.459 -14.456 -23.729  0.00  0.00    +0.006 C 
ATOM      6  C   UNL     1      34.673 -15.036 -23.884  0.00  0.00    +0.058 C 
BRANCH   5  16
ATOM      7  O   UNL     1      31.756  -7.653 -20.543  0.00  0.00    -0.275 OA
ATOM      8  N   UNL     1      32.636  -9.190 -22.005  0.00  0.00    -0.270 N 
ATOM      9  N   UNL     1      33.635 -10.735 -23.492  0.00  0.00    -0.229 NA
ATOM     10  C   UNL     1      31.247 -11.232 -20.613  0.00  0.00    +0.039 C 
ATOM     11  C   UNL     1      32.203 -11.549 -21.723  0.00  0.00    +0.010 C 
ATOM     12  C   UNL     1      31.659  -9.958 -19.892  0.00  0.00    +0.090 C 
ATOM     13  C   UNL     1      32.842 -10.522 -22.415  0.00  0.00    +0.130 C 
ATOM     14  C   UNL     1      32.402 -12.859 -22.163  0.00  0.00    +0.000 C 
ATOM     15  C   UNL     1      31.982  -8.825 -20.844  0.00  0.00    +0.227 C 
ATOM     16  C   UNL     1      33.229 -13.104 -23.253  0.00  0.00    +0.019 C 
ATOM     17  C   UNL     1      33.813 -12.018 -23.878  0.00  0.00    +0.100 C 
ATOM     18  H   UNL     1      32.981  -8.473 -22.583  0.00  0.00    +0.156 HD
ENDBRANCH   5  16
ENDBRANCH   3   6
BRANCH   2  19
ATOM     19  C   UNL     1      35.091 -17.221 -22.025  0.00  0.00    +0.158 C 
BRANCH  19  21
ATOM     20  O   UNL     1      33.947 -19.029 -20.939  0.00  0.00    -0.456 OA
ATOM     21  C   UNL     1      35.147 -18.515 -21.269  0.00  0.00    +0.139 A 
ATOM     22  C   UNL     1      36.180 -19.283 -20.846  0.00  0.00    +0.013 A 
ATOM     23  C   UNL     1      35.585 -20.389 -20.184  0.00  0.00    +0.033 A 
ATOM     24  C   UNL     1      34.211 -20.185 -20.269  0.00  0.00    +0.145 A 
ATOM     25  C   UNL     1      37.623 -19.030 -21.029  0.00  0.00    +0.034 C 
ATOM     26  C   UNL     1      36.054 -21.537 -19.524  0.00  0.00    +0.003 C 
ATOM     27  C   UNL     1      33.258 -21.053 -19.739  0.00  0.00    +0.037 C 
ATOM     28  C   UNL     1      35.120 -22.429 -18.980  0.00  0.00    +0.000 C 
ATOM     29  C   UNL     1      33.748 -22.188 -19.086  0.00  0.00    +0.003 C 
ENDBRANCH  19  21
ENDBRANCH   2  19
TORSDOF 4
ENDMDL
MODEL 3
REMARK VINA RESULT:     -12.0      1.867      2.987
REMARK  Name = 10407120
REMARK  4 active torsions:
REMARK  status: ('A' for Active; 'I' for Inactive)
REMARK    1  A    between atoms: N_2  and  C_19
REMARK    2  A    between atoms: C_3  and  C_6
REMARK    3  A    between atoms: C_5  and  C_16
REMARK    4  A    between atoms: C_19  and  C_21
REMARK                            x       y       z     vdW  Elec       q    Type
REMARK                         _______ _______ _______ _____ _____    ______ ____
ROOT
ATOM      1  O   UNL     1      34.642 -18.851 -24.355  0.00  0.00    -0.270 OA
ATOM      2  N   UNL     1      34.856 -16.808 -23.268  0.00  0.00    -0.267 N 
ATOM      3  C   UNL     1      34.912 -18.203 -23.343  0.00  0.00    +0.250 C 
ATOM      4  C   UNL     1      34.458 -16.045 -24.443  0.00  0.00    +0.116 C 
ENDROOT
BRANCH   3   6
ATOM      5  C   UNL     1      34.508 -19.893 -21.587  0.00  0.00    +0.006 C 
ATOM      6  C   UNL     1      35.298 -18.914 -22.088  0.00  0.00    +0.058 C 
BRANCH   5  16
ATOM      7  O   UNL     1      34.971 -24.006 -15.091  0.00  0.00    -0.275 OA
ATOM      8  N   UNL     1      35.614 -22.702 -16.869  0.00  0.00    -0.270 N 
ATOM      9  N   UNL     1      36.345 -21.431 -18.725  0.00  0.00    -0.229 NA
ATOM     10  C   UNL     1      32.894 -22.496 -17.637  0.00  0.00    +0.039 C 
ATOM     11  C   UNL     1      33.993 -21.930 -18.483  0.00  0.00    +0.010 C 
ATOM     12  C   UNL     1      33.380 -23.709 -16.860  0.00  0.00    +0.090 C 
ATOM     13  C   UNL     1      35.319 -22.011 -18.060  0.00  0.00    +0.130 C 
ATOM     14  C   UNL     1      33.720 -21.219 -19.653  0.00  0.00    +0.000 C 
ATOM     15  C   UNL     1      34.705 -23.468 -16.166  0.00  0.00    +0.227 C 
ATOM     16  C   UNL     1      34.761 -20.632 -20.364  0.00  0.00    +0.019 C 
ATOM     17  C   UNL     1      36.042 -20.764 -19.861  0.00  0.00    +0.100 C 
ATOM     18  H   UNL     1      36.529 -22.635 -16.514  0.00  0.00    +0.156 HD
ENDBRANCH   5  16
ENDBRANCH   3   6
BRANCH   2  19
ATOM     19  C   UNL     1      35.139 -16.019 -22.070  0.00  0.00    +0.158 C 
BRANCH  19  21
ATOM     20  O   UNL     1      34.671 -13.811 -22.884  0.00  0.00    -0.456 OA
ATOM     21  C   UNL     1      34.309 -14.770 -22.012  0.00  0.00    +0.139 A 
ATOM     22  C   UNL     1      33.252 -14.410 -21.245  0.00  0.00    +0.013 A 
ATOM     23  C   UNL     1      32.906 -13.100 -21.667  0.00  0.00    +0.033 A 
ATOM     24  C   UNL     1      33.809 -12.777 -22.676  0.00  0.00    +0.145 A 
ATOM     25  C   UNL     1      32.591 -15.206 -20.192  0.00  0.00    +0.034 C 
ATOM     26  C   UNL     1      31.932 -12.152 -21.308  0.00  0.00    +0.003 C 
ATOM     27  C   UNL     1      33.812 -11.565 -23.363  0.00  0.00    +0.037 C 
ATOM     28  C   UNL     1      31.911 -10.923 -21.981  0.00  0.00    +0.000 C 
ATOM     29  C   UNL     1      32.835 -10.636 -22.989  0.00  0.00    +0.003 C 
ENDBRANCH  19  21
ENDBRANCH   2  19
TORSDOF 4
ENDMDL
MODEL 4
REMARK VINA RESULT:     -11.3      6.097     12.923
REMARK  Name = 10407120
REMARK  4 active torsions:
REMARK  status: ('A' for Active; 'I' for Inactive)
REMARK    1  A    between atoms: N_2  and  C_19
REMARK    2  A    between atoms: C_3  and  C_6
REMARK    3  A    between atoms: C_5  and  C_16
REMARK    4  A    between atoms: C_19  and  C_21
REMARK                            x       y       z     vdW  Elec       q    Type
REMARK                         _______ _______ _______ _____ _____    ______ ____
ROOT
ATOM      1  O   UNL     1      30.782 -24.532 -15.869  0.00  0.00    -0.270 OA
ATOM      2  N   UNL     1      31.978 -24.104 -13.922  0.00  0.00    -0.267 N 
ATOM      3  C   UNL     1      31.678 -23.929 -15.276  0.00  0.00    +0.250 C 
ATOM      4  C   UNL     1      31.201 -25.052 -13.135  0.00  0.00    +0.116 C 
ENDROOT
BRANCH   3   6
ATOM      5  C   UNL     1      33.148 -23.338 -17.171  0.00  0.00    +0.006 C 
ATOM      6  C   UNL     1      32.539 -22.963 -16.021  0.00  0.00    +0.058 C 
BRANCH   5  16
ATOM      7  O   UNL     1      37.088 -18.604 -21.797  0.00  0.00    -0.275 OA
ATOM      8  N   UNL     1      36.660 -20.173 -20.175  0.00  0.00    -0.270 N 
ATOM      9  N   UNL     1      36.270 -21.731 -18.438  0.00  0.00    -0.229 NA
ATOM     10  C   UNL     1      33.925 -20.117 -20.914  0.00  0.00    +0.039 C 
ATOM     11  C   UNL     1      34.403 -20.911 -19.738  0.00  0.00    +0.010 C 
ATOM     12  C   UNL     1      34.802 -18.895 -21.134  0.00  0.00    +0.090 C 
ATOM     13  C   UNL     1      35.760 -20.952 -19.422  0.00  0.00    +0.130 C 
ATOM     14  C   UNL     1      33.533 -21.710 -18.994  0.00  0.00    +0.000 C 
ATOM     15  C   UNL     1      36.282 -19.223 -21.102  0.00  0.00    +0.227 C 
ATOM     16  C   UNL     1      34.030 -22.502 -17.965  0.00  0.00    +0.019 C 
ATOM     17  C   UNL     1      35.393 -22.479 -17.732  0.00  0.00    +0.100 C 
ATOM     18  H   UNL     1      37.623 -20.316 -20.031  0.00  0.00    +0.156 HD
ENDBRANCH   5  16
ENDBRANCH   3   6
BRANCH   2  19
ATOM     19  C   UNL     1      33.058 -23.426 -13.207  0.00  0.00    +0.158 C 
BRANCH  19  21
ATOM     20  O   UNL     1      34.568 -24.867 -14.390  0.00  0.00    -0.456 OA
ATOM     21  C   UNL     1      34.334 -24.215 -13.236  0.00  0.00    +0.139 A 
ATOM     22  C   UNL     1      35.312 -24.404 -12.318  0.00  0.00    +0.013 A 
ATOM     23  C   UNL     1      36.259 -25.257 -12.944  0.00  0.00    +0.033 A 
ATOM     24  C   UNL     1      35.755 -25.512 -14.216  0.00  0.00    +0.145 A 
ATOM     25  C   UNL     1      35.386 -23.847 -10.953  0.00  0.00    +0.034 C 
ATOM     26  C   UNL     1      37.484 -25.839 -12.577  0.00  0.00    +0.003 C 
ATOM     27  C   UNL     1      36.390 -26.315 -15.161  0.00  0.00    +0.037 C 
ATOM     28  C   UNL     1      38.147 -26.653 -13.507  0.00  0.00    +0.000 C 
ATOM     29  C   UNL     1      37.607 -26.885 -14.775  0.00  0.00    +0.003 C 
ENDBRANCH  19  21
ENDBRANCH   2  19
TORSDOF 4
ENDMDL
MODEL 5
REMARK VINA RESULT:     -11.3      5.012     11.523
REMARK  Name = 10407120
REMARK  4 active torsions:
REMARK  status: ('A' for Active; 'I' for Inactive)
REMARK    1  A    between atoms: N_2  and  C_19
REMARK    2  A    between atoms: C_3  and  C_6
REMARK    3  A    between atoms: C_5  and  C_16
REMARK    4  A    between atoms: C_19  and  C_21
REMARK                            x       y       z     vdW  Elec       q    Type
REMARK                         _______ _______ _______ _____ _____    ______ ____
ROOT
ATOM      1  O   UNL     1      32.301  -8.350 -19.126  0.00  0.00    -0.270 OA
ATOM      2  N   UNL     1      31.415 -10.227 -20.172  0.00  0.00    -0.267 N 
ATOM      3  C   UNL     1      32.077  -8.996 -20.150  0.00  0.00    +0.250 C 
ATOM      4  C   UNL     1      30.946 -10.808 -18.920  0.00  0.00    +0.116 C 
ENDROOT
BRANCH   3   6
ATOM      5  C   UNL     1      33.453  -7.496 -21.549  0.00  0.00    +0.006 C 
ATOM      6  C   UNL     1      32.499  -8.453 -21.476  0.00  0.00    +0.058 C 
BRANCH   5  16
ATOM      7  O   UNL     1      35.173  -3.722 -28.040  0.00  0.00    -0.275 OA
ATOM      8  N   UNL     1      35.378  -5.165 -26.265  0.00  0.00    -0.270 N 
ATOM      9  N   UNL     1      35.677  -6.604 -24.412  0.00  0.00    -0.229 NA
ATOM     10  C   UNL     1      32.730  -4.512 -25.494  0.00  0.00    +0.039 C 
ATOM     11  C   UNL     1      33.598  -5.395 -24.650  0.00  0.00    +0.010 C 
ATOM     12  C   UNL     1      33.570  -3.510 -26.270  0.00  0.00    +0.090 C 
ATOM     13  C   UNL     1      34.882  -5.731 -25.074  0.00  0.00    +0.130 C 
ATOM     14  C   UNL     1      33.118  -5.987 -23.481  0.00  0.00    +0.000 C 
ATOM     15  C   UNL     1      34.753  -4.152 -26.966  0.00  0.00    +0.227 C 
ATOM     16  C   UNL     1      33.923  -6.870 -22.772  0.00  0.00    +0.019 C 
ATOM     17  C   UNL     1      35.181  -7.145 -23.276  0.00  0.00    +0.100 C 
ATOM     18  H   UNL     1      36.226  -5.514 -26.621  0.00  0.00    +0.156 HD
ENDBRANCH   5  16
ENDBRANCH   3   6
BRANCH   2  19
ATOM     19  C   UNL     1      31.108 -10.995 -21.377  0.00  0.00    +0.158 C 
BRANCH  19  21
ATOM     20  O   UNL     1      31.956 -13.137 -20.704  0.00  0.00    -0.456 OA
ATOM     21  C   UNL     1      32.074 -12.125 -21.583  0.00  0.00    +0.139 A 
ATOM     22  C   UNL     1      33.056 -12.331 -22.493  0.00  0.00    +0.013 A 
ATOM     23  C   UNL     1      33.618 -13.593 -22.165  0.00  0.00    +0.033 A 
ATOM     24  C   UNL     1      32.907 -14.046 -21.057  0.00  0.00    +0.145 A 
ATOM     25  C   UNL     1      33.464 -11.440 -23.597  0.00  0.00    +0.034 C 
ATOM     26  C   UNL     1      34.647 -14.401 -22.679  0.00  0.00    +0.003 C 
ATOM     27  C   UNL     1      33.148 -15.260 -20.418  0.00  0.00    +0.037 C 
ATOM     28  C   UNL     1      34.913 -15.628 -22.056  0.00  0.00    +0.000 C 
ATOM     29  C   UNL     1      34.176 -16.047 -20.945  0.00  0.00    +0.003 C 
ENDBRANCH  19  21
ENDBRANCH   2  19
TORSDOF 4
ENDMDL
MODEL 6
REMARK VINA RESULT:     -11.2      3.787     11.234
REMARK  Name = 10407120
REMARK  4 active torsions:
REMARK  status: ('A' for Active; 'I' for Inactive)
REMARK    1  A    between atoms: N_2  and  C_19
REMARK    2  A    between atoms: C_3  and  C_6
REMARK    3  A    between atoms: C_5  and  C_16
REMARK    4  A    between atoms: C_19  and  C_21
REMARK                            x       y       z     vdW  Elec       q    Type
REMARK                         _______ _______ _______ _____ _____    ______ ____
ROOT
ATOM      1  O   UNL     1      30.942 -11.604 -20.315  0.00  0.00    -0.270 OA
ATOM      2  N   UNL     1      32.574 -12.799 -21.460  0.00  0.00    -0.267 N 
ATOM      3  C   UNL     1      31.787 -11.671 -21.208  0.00  0.00    +0.250 C 
ATOM      4  C   UNL     1      32.406 -13.986 -20.632  0.00  0.00    +0.116 C 
ENDROOT
BRANCH   3   6
ATOM      5  C   UNL     1      32.013  -9.247 -21.624  0.00  0.00    +0.006 C 
ATOM      6  C   UNL     1      31.996 -10.507 -22.119  0.00  0.00    +0.058 C 
BRANCH   5  16
ATOM      7  O   UNL     1      33.683  -3.152 -26.028  0.00  0.00    -0.275 OA
ATOM      8  N   UNL     1      32.522  -4.533 -24.607  0.00  0.00    -0.270 N 
ATOM      9  N   UNL     1      31.249  -5.955 -23.209  0.00  0.00    -0.229 NA
ATOM     10  C   UNL     1      34.783  -6.238 -24.499  0.00  0.00    +0.039 C 
ATOM     11  C   UNL     1      33.491  -6.606 -23.837  0.00  0.00    +0.010 C 
ATOM     12  C   UNL     1      34.536  -5.372 -25.723  0.00  0.00    +0.090 C 
ATOM     13  C   UNL     1      32.408  -5.730 -23.873  0.00  0.00    +0.130 C 
ATOM     14  C   UNL     1      33.364  -7.774 -23.083  0.00  0.00    +0.000 C 
ATOM     15  C   UNL     1      33.573  -4.234 -25.451  0.00  0.00    +0.227 C 
ATOM     16  C   UNL     1      32.176  -8.038 -22.410  0.00  0.00    +0.019 C 
ATOM     17  C   UNL     1      31.161  -7.104 -22.502  0.00  0.00    +0.100 C 
ATOM     18  H   UNL     1      31.806  -3.865 -24.511  0.00  0.00    +0.156 HD
ENDBRANCH   5  16
ENDBRANCH   3   6
BRANCH   2  19
ATOM     19  C   UNL     1      33.558 -12.914 -22.535  0.00  0.00    +0.158 C 
BRANCH  19  21
ATOM     20  O   UNL     1      34.505 -14.927 -21.635  0.00  0.00    -0.456 OA
ATOM     21  C   UNL     1      34.008 -14.331 -22.735  0.00  0.00    +0.139 A 
ATOM     22  C   UNL     1      34.012 -15.144 -23.819  0.00  0.00    +0.013 A 
ATOM     23  C   UNL     1      34.563 -16.372 -23.370  0.00  0.00    +0.033 A 
ATOM     24  C   UNL     1      34.850 -16.187 -22.021  0.00  0.00    +0.145 A 
ATOM     25  C   UNL     1      33.544 -14.827 -25.183  0.00  0.00    +0.034 C 
ATOM     26  C   UNL     1      34.851 -17.618 -23.953  0.00  0.00    +0.003 C 
ATOM     27  C   UNL     1      35.409 -17.164 -21.200  0.00  0.00    +0.037 C 
ATOM     28  C   UNL     1      35.415 -18.621 -23.152  0.00  0.00    +0.000 C 
ATOM     29  C   UNL     1      35.688 -18.395 -21.801  0.00  0.00    +0.003 C 
ENDBRANCH  19  21
ENDBRANCH   2  19
TORSDOF 4
ENDMDL
MODEL 7
REMARK VINA RESULT:     -11.1      4.046      7.556
REMARK  Name = 10407120
REMARK  4 active torsions:
REMARK  status: ('A' for Active; 'I' for Inactive)
REMARK    1  A    between atoms: N_2  and  C_19
REMARK    2  A    between atoms: C_3  and  C_6
REMARK    3  A    between atoms: C_5  and  C_16
REMARK    4  A    between atoms: C_19  and  C_21
REMARK                            x       y       z     vdW  Elec       q    Type
REMARK                         _______ _______ _______ _____ _____    ______ ____
ROOT
ATOM      1  O   UNL     1      32.357 -21.983 -18.382  0.00  0.00    -0.270 OA
ATOM      2  N   UNL     1      33.728 -20.828 -19.862  0.00  0.00    -0.267 N 
ATOM      3  C   UNL     1      33.478 -21.738 -18.831  0.00  0.00    +0.250 C 
ATOM      4  C   UNL     1      32.615 -20.107 -20.464  0.00  0.00    +0.116 C 
ENDROOT
BRANCH   3   6
ATOM      5  C   UNL     1      34.826 -22.487 -16.902  0.00  0.00    +0.006 C 
ATOM      6  C   UNL     1      34.673 -22.414 -18.245  0.00  0.00    +0.058 C 
BRANCH   5  16
ATOM      7  O   UNL     1      40.265 -26.351 -13.052  0.00  0.00    -0.275 OA
ATOM      8  N   UNL     1      39.260 -24.695 -14.286  0.00  0.00    -0.270 N 
ATOM      9  N   UNL     1      38.297 -23.002 -15.628  0.00  0.00    -0.229 NA
ATOM     10  C   UNL     1      36.786 -26.044 -13.986  0.00  0.00    +0.039 C 
ATOM     11  C   UNL     1      36.916 -24.828 -14.851  0.00  0.00    +0.010 C 
ATOM     12  C   UNL     1      38.091 -26.822 -13.946  0.00  0.00    +0.090 C 
ATOM     13  C   UNL     1      38.137 -24.162 -14.948  0.00  0.00    +0.130 C 
ATOM     14  C   UNL     1      35.812 -24.268 -15.495  0.00  0.00    +0.000 C 
ATOM     15  C   UNL     1      39.293 -25.937 -13.683  0.00  0.00    +0.227 C 
ATOM     16  C   UNL     1      35.956 -23.089 -16.217  0.00  0.00    +0.019 C 
ATOM     17  C   UNL     1      37.207 -22.500 -16.250  0.00  0.00    +0.100 C 
ATOM     18  H   UNL     1      40.076 -24.146 -14.250  0.00  0.00    +0.156 HD
ENDBRANCH   5  16
ENDBRANCH   3   6
BRANCH   2  19
ATOM     19  C   UNL     1      35.052 -20.497 -20.387  0.00  0.00    +0.158 C 
BRANCH  19  21
ATOM     20  O   UNL     1      34.874 -18.113 -20.594  0.00  0.00    -0.456 OA
ATOM     21  C   UNL     1      35.021 -19.275 -21.257  0.00  0.00    +0.139 A 
ATOM     22  C   UNL     1      35.114 -19.106 -22.598  0.00  0.00    +0.013 A 
ATOM     23  C   UNL     1      35.017 -17.706 -22.811  0.00  0.00    +0.033 A 
ATOM     24  C   UNL     1      34.870 -17.141 -21.548  0.00  0.00    +0.145 A 
ATOM     25  C   UNL     1      35.280 -20.151 -23.628  0.00  0.00    +0.034 C 
ATOM     26  C   UNL     1      35.037 -16.855 -23.930  0.00  0.00    +0.003 C 
ATOM     27  C   UNL     1      34.741 -15.773 -21.314  0.00  0.00    +0.037 C 
ATOM     28  C   UNL     1      34.908 -15.474 -23.726  0.00  0.00    +0.000 C 
ATOM     29  C   UNL     1      34.762 -14.946 -22.441  0.00  0.00    +0.003 C 
ENDBRANCH  19  21
ENDBRANCH   2  19
TORSDOF 4
ENDMDL
MODEL 8
REMARK VINA RESULT:     -10.9      4.277      7.788
REMARK  Name = 10407120
REMARK  4 active torsions:
REMARK  status: ('A' for Active; 'I' for Inactive)
REMARK    1  A    between atoms: N_2  and  C_19
REMARK    2  A    between atoms: C_3  and  C_6
REMARK    3  A    between atoms: C_5  and  C_16
REMARK    4  A    between atoms: C_19  and  C_21
REMARK                            x       y       z     vdW  Elec       q    Type
REMARK                         _______ _______ _______ _____ _____    ______ ____
ROOT
ATOM      1  O   UNL     1      37.316 -21.742 -18.324  0.00  0.00    -0.270 OA
ATOM      2  N   UNL     1      36.022 -20.664 -19.927  0.00  0.00    -0.267 N 
ATOM      3  C   UNL     1      36.214 -21.482 -18.809  0.00  0.00    +0.250 C 
ATOM      4  C   UNL     1      37.179 -20.069 -20.583  0.00  0.00    +0.116 C 
ENDROOT
BRANCH   3   6
ATOM      5  C   UNL     1      34.973 -22.471 -16.916  0.00  0.00    +0.006 C 
ATOM      6  C   UNL     1      34.983 -22.079 -18.212  0.00  0.00    +0.058 C 
BRANCH   5  16
ATOM      7  O   UNL     1      28.496 -25.351 -13.903  0.00  0.00    -0.275 OA
ATOM      8  N   UNL     1      30.732 -24.910 -14.189  0.00  0.00    -0.270 N 
ATOM      9  N   UNL     1      33.051 -24.556 -14.489  0.00  0.00    -0.229 NA
ATOM     10  C   UNL     1      30.057 -23.108 -16.270  0.00  0.00    +0.039 C 
ATOM     11  C   UNL     1      31.483 -23.438 -15.950  0.00  0.00    +0.010 C 
ATOM     12  C   UNL     1      29.144 -24.280 -15.947  0.00  0.00    +0.090 C 
ATOM     13  C   UNL     1      31.786 -24.298 -14.895  0.00  0.00    +0.130 C 
ATOM     14  C   UNL     1      32.542 -22.824 -16.620  0.00  0.00    +0.000 C 
ATOM     15  C   UNL     1      29.406 -24.865 -14.574  0.00  0.00    +0.227 C 
ATOM     16  C   UNL     1      33.851 -23.090 -16.235  0.00  0.00    +0.019 C 
ATOM     17  C   UNL     1      34.050 -23.953 -15.172  0.00  0.00    +0.100 C 
ATOM     18  H   UNL     1      30.954 -25.401 -13.367  0.00  0.00    +0.156 HD
ENDBRANCH   5  16
ENDBRANCH   3   6
BRANCH   2  19
ATOM     19  C   UNL     1      34.729 -20.369 -20.540  0.00  0.00    +0.158 C 
BRANCH  19  21
ATOM     20  O   UNL     1      34.642 -17.971 -20.614  0.00  0.00    -0.456 OA
ATOM     21  C   UNL     1      34.763 -19.099 -21.339  0.00  0.00    +0.139 A 
ATOM     22  C   UNL     1      34.895 -18.858 -22.666  0.00  0.00    +0.013 A 
ATOM     23  C   UNL     1      34.855 -17.446 -22.801  0.00  0.00    +0.033 A 
ATOM     24  C   UNL     1      34.697 -16.947 -21.511  0.00  0.00    +0.145 A 
ATOM     25  C   UNL     1      35.049 -19.849 -23.750  0.00  0.00    +0.034 C 
ATOM     26  C   UNL     1      34.933 -16.535 -23.868  0.00  0.00    +0.003 C 
ATOM     27  C   UNL     1      34.612 -15.591 -21.202  0.00  0.00    +0.037 C 
ATOM     28  C   UNL     1      34.849 -15.164 -23.589  0.00  0.00    +0.000 C 
ATOM     29  C   UNL     1      34.691 -14.703 -22.279  0.00  0.00    +0.003 C 
ENDBRANCH  19  21
ENDBRANCH   2  19
TORSDOF 4
ENDMDL
MODEL 9
REMARK VINA RESULT:     -10.7      2.877      5.027
REMARK  Name = 10407120
REMARK  4 active torsions:
REMARK  status: ('A' for Active; 'I' for Inactive)
REMARK    1  A    between atoms: N_2  and  C_19
REMARK    2  A    between atoms: C_3  and  C_6
REMARK    3  A    between atoms: C_5  and  C_16
REMARK    4  A    between atoms: C_19  and  C_21
REMARK                            x       y       z     vdW  Elec       q    Type
REMARK                         _______ _______ _______ _____ _____    ______ ____
ROOT
ATOM      1  O   UNL     1      32.131 -11.330 -18.609  0.00  0.00    -0.270 OA
ATOM      2  N   UNL     1      31.714 -10.266 -20.633  0.00  0.00    -0.267 N 
ATOM      3  C   UNL     1      32.020 -11.372 -19.835  0.00  0.00    +0.250 C 
ATOM      4  C   UNL     1      31.508  -8.968 -20.005  0.00  0.00    +0.116 C 
ENDROOT
BRANCH   3   6
ATOM      5  C   UNL     1      33.504 -13.060 -20.859  0.00  0.00    +0.006 C 
ATOM      6  C   UNL     1      32.247 -12.660 -20.555  0.00  0.00    +0.058 C 
BRANCH   5  16
ATOM      7  O   UNL     1      35.520 -19.849 -23.889  0.00  0.00    -0.275 OA
ATOM      8  N   UNL     1      34.815 -17.667 -23.764  0.00  0.00    -0.270 N 
ATOM      9  N   UNL     1      34.004 -15.446 -23.686  0.00  0.00    -0.229 NA
ATOM     10  C   UNL     1      35.312 -17.720 -20.975  0.00  0.00    +0.039 C 
ATOM     11  C   UNL     1      34.674 -16.536 -21.635  0.00  0.00    +0.010 C 
ATOM     12  C   UNL     1      34.969 -19.002 -21.715  0.00  0.00    +0.090 C 
ATOM     13  C   UNL     1      34.478 -16.522 -23.016  0.00  0.00    +0.130 C 
ATOM     14  C   UNL     1      34.357 -15.382 -20.917  0.00  0.00    +0.000 C 
ATOM     15  C   UNL     1      35.164 -18.884 -23.213  0.00  0.00    +0.227 C 
ATOM     16  C   UNL     1      33.849 -14.271 -21.581  0.00  0.00    +0.019 C 
ATOM     17  C   UNL     1      33.696 -14.353 -22.953  0.00  0.00    +0.100 C 
ATOM     18  H   UNL     1      34.800 -17.594 -24.745  0.00  0.00    +0.156 HD
ENDBRANCH   5  16
ENDBRANCH   3   6
BRANCH   2  19
ATOM     19  C   UNL     1      31.610 -10.285 -22.091  0.00  0.00    +0.158 C 
BRANCH  19  21
ATOM     20  O   UNL     1      33.593  -9.153 -22.830  0.00  0.00    -0.456 OA
ATOM     21  C   UNL     1      32.254  -9.081 -22.715  0.00  0.00    +0.139 A 
ATOM     22  C   UNL     1      31.747  -7.920 -23.194  0.00  0.00    +0.013 A 
ATOM     23  C   UNL     1      32.867  -7.180 -23.657  0.00  0.00    +0.033 A 
ATOM     24  C   UNL     1      33.977  -7.982 -23.410  0.00  0.00    +0.145 A 
ATOM     25  C   UNL     1      30.332  -7.502 -23.230  0.00  0.00    +0.034 C 
ATOM     26  C   UNL     1      33.064  -5.925 -24.257  0.00  0.00    +0.003 C 
ATOM     27  C   UNL     1      35.287  -7.620 -23.721  0.00  0.00    +0.037 C 
ATOM     28  C   UNL     1      34.370  -5.533 -24.581  0.00  0.00    +0.000 C 
ATOM     29  C   UNL     1      35.460  -6.366 -24.316  0.00  0.00    +0.003 C 
ENDBRANCH  19  21
ENDBRANCH   2  19
TORSDOF 4
ENDMDL
