MODEL 1
REMARK VINA RESULT:     -12.0      0.000      0.000
REMARK  Name = 23729147
REMARK  5 active torsions:
REMARK  status: ('A' for Active; 'I' for Inactive)
REMARK    1  A    between atoms: O_1  and  C_6
REMARK    2  A    between atoms: O_1  and  C_18
REMARK    3  A    between atoms: C_18  and  C_20
REMARK    4  A    between atoms: N_19  and  C_26
REMARK    5  A    between atoms: C_26  and  C_28
REMARK                            x       y       z     vdW  Elec       q    Type
REMARK                         _______ _______ _______ _____ _____    ______ ____
ROOT
ATOM      1  O   UNL     1      35.008 -22.624 -17.181  0.00  0.00    -0.479 OA
ENDROOT
BRANCH   1   6
ATOM      2  N   UNL     1      36.120 -24.354 -12.793  0.00  0.00    -0.332 NA
ATOM      3  N   UNL     1      37.921 -23.720 -14.263  0.00  0.00    -0.317 NA
ATOM      4  N   UNL     1      37.507 -22.875 -16.397  0.00  0.00    -0.335 N 
ATOM      5  N   UNL     1      38.357 -24.567 -12.122  0.00  0.00    -0.283 N 
ATOM      6  C   UNL     1      34.674 -23.126 -15.946  0.00  0.00    +0.130 C 
ATOM      7  C   UNL     1      35.622 -23.492 -14.975  0.00  0.00    +0.177 C 
ATOM      8  C   UNL     1      33.316 -23.265 -15.680  0.00  0.00    +0.033 C 
ATOM      9  C   UNL     1      35.221 -24.001 -13.730  0.00  0.00    +0.137 C 
ATOM     10  C   UNL     1      36.995 -23.376 -15.177  0.00  0.00    +0.181 C 
ATOM     11  C   UNL     1      32.907 -23.769 -14.451  0.00  0.00    +0.005 C 
ATOM     12  C   UNL     1      33.856 -24.130 -13.490  0.00  0.00    +0.030 C 
ATOM     13  C   UNL     1      37.421 -24.194 -13.111  0.00  0.00    +0.197 C 
ATOM     14  H   UNL     1      38.480 -22.798 -16.528  0.00  0.00    +0.144 HD
ATOM     15  H   UNL     1      36.891 -22.602 -17.115  0.00  0.00    +0.144 HD
ATOM     16  H   UNL     1      38.047 -24.921 -11.258  0.00  0.00    +0.156 HD
ATOM     17  H   UNL     1      39.322 -24.472 -12.297  0.00  0.00    +0.156 HD
ENDBRANCH   1   6
BRANCH   1  18
ATOM     18  C   UNL     1      33.981 -22.577 -18.154  0.00  0.00    +0.205 C 
BRANCH  18  20
ATOM     19  N   UNL     1      35.464 -19.413 -20.694  0.00  0.00    +0.390 N 
ATOM     20  C   UNL     1      34.518 -21.864 -19.392  0.00  0.00    +0.040 C 
ATOM     21  C   UNL     1      35.909 -21.278 -19.131  0.00  0.00    -0.019 C 
ATOM     22  C   UNL     1      33.565 -20.752 -19.843  0.00  0.00    -0.019 C 
ATOM     23  C   UNL     1      36.411 -20.476 -20.333  0.00  0.00    -0.077 C 
ATOM     24  C   UNL     1      34.144 -19.968 -21.023  0.00  0.00    -0.077 C 
ATOM     25  H   UNL     1      35.355 -18.801 -19.885  0.00  0.00    -0.079 HD
BRANCH  19  26
ATOM     26  C   UNL     1      35.982 -18.624 -21.812  0.00  0.00    -0.048 C 
BRANCH  26  28
ATOM     27  F   UNL     1      35.276 -17.497 -24.315  0.00  0.00    -0.205 F 
ATOM     28  C   UNL     1      35.264 -17.307 -21.948  0.00  0.00    -0.016 C 
ATOM     29  C   UNL     1      34.947 -16.810 -23.213  0.00  0.00    +0.134 C 
ATOM     30  C   UNL     1      34.918 -16.585 -20.807  0.00  0.00    -0.004 C 
ATOM     31  C   UNL     1      34.284 -15.588 -23.335  0.00  0.00    +0.029 C 
ATOM     32  C   UNL     1      34.254 -15.364 -20.930  0.00  0.00    -0.000 C 
ATOM     33  C   UNL     1      33.938 -14.865 -22.193  0.00  0.00    +0.002 C 
ENDBRANCH  26  28
ENDBRANCH  19  26
ENDBRANCH  18  20
ENDBRANCH   1  18
TORSDOF 5
ENDMDL
MODEL 2
REMARK VINA RESULT:     -12.0      3.653     10.247
REMARK  Name = 23729147
REMARK  5 active torsions:
REMARK  status: ('A' for Active; 'I' for Inactive)
REMARK    1  A    between atoms: O_1  and  C_6
REMARK    2  A    between atoms: O_1  and  C_18
REMARK    3  A    between atoms: C_18  and  C_20
REMARK    4  A    between atoms: N_19  and  C_26
REMARK    5  A    between atoms: C_26  and  C_28
REMARK                            x       y       z     vdW  Elec       q    Type
REMARK                         _______ _______ _______ _____ _____    ______ ____
ROOT
ATOM      1  O   UNL     1      35.198 -17.902 -22.356  0.00  0.00    -0.479 OA
ENDROOT
BRANCH   1   6
ATOM      2  N   UNL     1      33.569 -13.762 -24.277  0.00  0.00    -0.332 NA
ATOM      3  N   UNL     1      34.063 -15.596 -25.761  0.00  0.00    -0.317 NA
ATOM      4  N   UNL     1      34.853 -17.635 -24.950  0.00  0.00    -0.335 N 
ATOM      5  N   UNL     1      33.271 -13.554 -26.594  0.00  0.00    -0.283 N 
ATOM      6  C   UNL     1      34.754 -16.605 -22.263  0.00  0.00    +0.130 C 
ATOM      7  C   UNL     1      34.377 -15.833 -23.376  0.00  0.00    +0.177 C 
ATOM      8  C   UNL     1      34.687 -16.062 -20.984  0.00  0.00    +0.033 C 
ATOM      9  C   UNL     1      33.932 -14.510 -23.219  0.00  0.00    +0.137 C 
ATOM     10  C   UNL     1      34.419 -16.316 -24.681  0.00  0.00    +0.181 C 
ATOM     11  C   UNL     1      34.249 -14.754 -20.817  0.00  0.00    +0.005 C 
ATOM     12  C   UNL     1      33.875 -13.992 -21.929  0.00  0.00    +0.030 C 
ATOM     13  C   UNL     1      33.654 -14.346 -25.490  0.00  0.00    +0.197 C 
ATOM     14  H   UNL     1      34.877 -17.966 -25.877  0.00  0.00    +0.144 HD
ATOM     15  H   UNL     1      35.129 -18.224 -24.211  0.00  0.00    +0.144 HD
ATOM     16  H   UNL     1      32.963 -12.630 -26.454  0.00  0.00    +0.156 HD
ATOM     17  H   UNL     1      33.311 -13.927 -27.504  0.00  0.00    +0.156 HD
ENDBRANCH   1   6
BRANCH   1  18
ATOM     18  C   UNL     1      35.912 -18.417 -21.247  0.00  0.00    +0.205 C 
BRANCH  18  20
ATOM     19  N   UNL     1      34.333 -21.753 -19.003  0.00  0.00    +0.390 N 
ATOM     20  C   UNL     1      35.383 -19.814 -20.935  0.00  0.00    +0.040 C 
ATOM     21  C   UNL     1      33.946 -19.755 -20.408  0.00  0.00    -0.019 C 
ATOM     22  C   UNL     1      36.279 -20.527 -19.917  0.00  0.00    -0.019 C 
ATOM     23  C   UNL     1      33.444 -21.141 -20.000  0.00  0.00    -0.077 C 
ATOM     24  C   UNL     1      35.700 -21.888 -19.524  0.00  0.00    -0.077 C 
ATOM     25  H   UNL     1      34.366 -21.138 -18.191  0.00  0.00    -0.079 HD
BRANCH  19  26
ATOM     26  C   UNL     1      33.813 -23.055 -18.585  0.00  0.00    -0.048 C 
BRANCH  26  28
ATOM     27  F   UNL     1      35.636 -23.177 -16.417  0.00  0.00    -0.205 F 
ATOM     28  C   UNL     1      33.378 -23.048 -17.143  0.00  0.00    -0.016 C 
ATOM     29  C   UNL     1      34.330 -23.111 -16.125  0.00  0.00    +0.134 C 
ATOM     30  C   UNL     1      32.022 -22.979 -16.828  0.00  0.00    -0.004 C 
ATOM     31  C   UNL     1      33.922 -23.105 -14.790  0.00  0.00    +0.029 C 
ATOM     32  C   UNL     1      31.615 -22.973 -15.494  0.00  0.00    -0.000 C 
ATOM     33  C   UNL     1      32.565 -23.037 -14.475  0.00  0.00    +0.002 C 
ENDBRANCH  26  28
ENDBRANCH  19  26
ENDBRANCH  18  20
ENDBRANCH   1  18
TORSDOF 5
ENDMDL
MODEL 3
REMARK VINA RESULT:     -11.9      1.067      1.289
REMARK  Name = 23729147
REMARK  5 active torsions:
REMARK  status: ('A' for Active; 'I' for Inactive)
REMARK    1  A    between atoms: O_1  and  C_6
REMARK    2  A    between atoms: O_1  and  C_18
REMARK    3  A    between atoms: C_18  and  C_20
REMARK    4  A    between atoms: N_19  and  C_26
REMARK    5  A    between atoms: C_26  and  C_28
REMARK                            x       y       z     vdW  Elec       q    Type
REMARK                         _______ _______ _______ _____ _____    ______ ____
ROOT
ATOM      1  O   UNL     1      33.915 -22.949 -17.013  0.00  0.00    -0.479 OA
ENDROOT
BRANCH   1   6
ATOM      2  N   UNL     1      34.144 -24.357 -12.382  0.00  0.00    -0.332 NA
ATOM      3  N   UNL     1      36.192 -24.244 -13.645  0.00  0.00    -0.317 NA
ATOM      4  N   UNL     1      36.205 -23.581 -15.881  0.00  0.00    -0.335 N 
ATOM      5  N   UNL     1      36.199 -24.914 -11.400  0.00  0.00    -0.283 N 
ATOM      6  C   UNL     1      33.348 -23.237 -15.795  0.00  0.00    +0.130 C 
ATOM      7  C   UNL     1      34.085 -23.665 -14.678  0.00  0.00    +0.177 C 
ATOM      8  C   UNL     1      31.968 -23.086 -15.703  0.00  0.00    +0.033 C 
ATOM      9  C   UNL     1      33.448 -23.947 -13.458  0.00  0.00    +0.137 C 
ATOM     10  C   UNL     1      35.466 -23.836 -14.703  0.00  0.00    +0.181 C 
ATOM     11  C   UNL     1      31.327 -23.362 -14.501  0.00  0.00    +0.005 C 
ATOM     12  C   UNL     1      32.067 -23.787 -13.394  0.00  0.00    +0.030 C 
ATOM     13  C   UNL     1      35.478 -24.483 -12.534  0.00  0.00    +0.197 C 
ATOM     14  H   UNL     1      37.182 -23.705 -15.887  0.00  0.00    +0.144 HD
ATOM     15  H   UNL     1      35.744 -23.278 -16.697  0.00  0.00    +0.144 HD
ATOM     16  H   UNL     1      35.727 -25.104 -10.558  0.00  0.00    +0.156 HD
ATOM     17  H   UNL     1      37.177 -25.023 -11.452  0.00  0.00    +0.156 HD
ENDBRANCH   1   6
BRANCH   1  18
ATOM     18  C   UNL     1      33.034 -22.614 -18.069  0.00  0.00    +0.205 C 
BRANCH  18  20
ATOM     19  N   UNL     1      35.347 -19.740 -20.316  0.00  0.00    +0.390 N 
ATOM     20  C   UNL     1      33.849 -22.002 -19.205  0.00  0.00    +0.040 C 
ATOM     21  C   UNL     1      35.264 -21.643 -18.738  0.00  0.00    -0.019 C 
ATOM     22  C   UNL     1      33.159 -20.756 -19.769  0.00  0.00    -0.019 C 
ATOM     23  C   UNL     1      36.054 -20.938 -19.842  0.00  0.00    -0.077 C 
ATOM     24  C   UNL     1      34.018 -20.080 -20.840  0.00  0.00    -0.077 C 
ATOM     25  H   UNL     1      35.221 -19.114 -19.520  0.00  0.00    -0.079 HD
BRANCH  19  26
ATOM     26  C   UNL     1      36.138 -19.049 -21.334  0.00  0.00    -0.048 C 
BRANCH  26  28
ATOM     27  F   UNL     1      35.591 -18.479 -24.057  0.00  0.00    -0.205 F 
ATOM     28  C   UNL     1      35.475 -17.777 -21.791  0.00  0.00    -0.016 C 
ATOM     29  C   UNL     1      35.236 -17.560 -23.149  0.00  0.00    +0.134 C 
ATOM     30  C   UNL     1      35.102 -16.814 -20.855  0.00  0.00    -0.004 C 
ATOM     31  C   UNL     1      34.622 -16.379 -23.569  0.00  0.00    +0.029 C 
ATOM     32  C   UNL     1      34.488 -15.634 -21.274  0.00  0.00    -0.000 C 
ATOM     33  C   UNL     1      34.249 -15.416 -22.631  0.00  0.00    +0.002 C 
ENDBRANCH  26  28
ENDBRANCH  19  26
ENDBRANCH  18  20
ENDBRANCH   1  18
TORSDOF 5
ENDMDL
MODEL 4
REMARK VINA RESULT:     -11.8      2.315      3.446
REMARK  Name = 23729147
REMARK  5 active torsions:
REMARK  status: ('A' for Active; 'I' for Inactive)
REMARK    1  A    between atoms: O_1  and  C_6
REMARK    2  A    between atoms: O_1  and  C_18
REMARK    3  A    between atoms: C_18  and  C_20
REMARK    4  A    between atoms: N_19  and  C_26
REMARK    5  A    between atoms: C_26  and  C_28
REMARK                            x       y       z     vdW  Elec       q    Type
REMARK                         _______ _______ _______ _____ _____    ______ ____
ROOT
ATOM      1  O   UNL     1      35.661 -21.983 -18.797  0.00  0.00    -0.479 OA
ENDROOT
BRANCH   1   6
ATOM      2  N   UNL     1      33.049 -23.464 -14.993  0.00  0.00    -0.332 NA
ATOM      3  N   UNL     1      31.922 -23.138 -17.098  0.00  0.00    -0.317 NA
ATOM      4  N   UNL     1      33.075 -22.427 -18.996  0.00  0.00    -0.335 N 
ATOM      5  N   UNL     1      30.746 -23.852 -15.201  0.00  0.00    -0.283 N 
ATOM      6  C   UNL     1      35.522 -22.350 -17.480  0.00  0.00    +0.130 C 
ATOM      7  C   UNL     1      34.297 -22.732 -16.907  0.00  0.00    +0.177 C 
ATOM      8  C   UNL     1      36.677 -22.329 -16.706  0.00  0.00    +0.033 C 
ATOM      9  C   UNL     1      34.216 -23.096 -15.552  0.00  0.00    +0.137 C 
ATOM     10  C   UNL     1      33.106 -22.775 -17.626  0.00  0.00    +0.181 C 
ATOM     11  C   UNL     1      36.609 -22.687 -15.364  0.00  0.00    +0.005 C 
ATOM     12  C   UNL     1      35.387 -23.066 -14.801  0.00  0.00    +0.030 C 
ATOM     13  C   UNL     1      31.966 -23.465 -15.796  0.00  0.00    +0.197 C 
ATOM     14  H   UNL     1      32.227 -22.462 -19.494  0.00  0.00    +0.144 HD
ATOM     15  H   UNL     1      33.903 -22.152 -19.453  0.00  0.00    +0.144 HD
ATOM     16  H   UNL     1      30.719 -24.102 -14.250  0.00  0.00    +0.156 HD
ATOM     17  H   UNL     1      29.921 -23.872 -15.739  0.00  0.00    +0.156 HD
ENDBRANCH   1   6
BRANCH   1  18
ATOM     18  C   UNL     1      36.641 -21.004 -19.091  0.00  0.00    +0.205 C 
BRANCH  18  20
ATOM     19  N   UNL     1      35.424 -18.224 -22.165  0.00  0.00    +0.390 N 
ATOM     20  C   UNL     1      36.356 -20.433 -20.477  0.00  0.00    +0.040 C 
ATOM     21  C   UNL     1      37.206 -19.188 -20.746  0.00  0.00    -0.019 C 
ATOM     22  C   UNL     1      34.871 -20.090 -20.636  0.00  0.00    -0.019 C 
ATOM     23  C   UNL     1      36.854 -18.552 -22.092  0.00  0.00    -0.077 C 
ATOM     24  C   UNL     1      34.595 -19.424 -21.987  0.00  0.00    -0.077 C 
ATOM     25  H   UNL     1      35.210 -17.579 -21.405  0.00  0.00    -0.079 HD
BRANCH  19  26
ATOM     26  C   UNL     1      35.113 -17.572 -23.437  0.00  0.00    -0.048 C 
BRANCH  26  28
ATOM     27  F   UNL     1      34.175 -15.940 -25.557  0.00  0.00    -0.205 F 
ATOM     28  C   UNL     1      34.648 -16.153 -23.239  0.00  0.00    -0.016 C 
ATOM     29  C   UNL     1      34.199 -15.405 -24.328  0.00  0.00    +0.134 C 
ATOM     30  C   UNL     1      34.670 -15.587 -21.966  0.00  0.00    -0.004 C 
ATOM     31  C   UNL     1      33.770 -14.090 -24.141  0.00  0.00    +0.029 C 
ATOM     32  C   UNL     1      34.241 -14.273 -21.779  0.00  0.00    -0.000 C 
ATOM     33  C   UNL     1      33.792 -13.524 -22.867  0.00  0.00    +0.002 C 
ENDBRANCH  26  28
ENDBRANCH  19  26
ENDBRANCH  18  20
ENDBRANCH   1  18
TORSDOF 5
ENDMDL
MODEL 5
REMARK VINA RESULT:     -11.6      4.971     10.733
REMARK  Name = 23729147
REMARK  5 active torsions:
REMARK  status: ('A' for Active; 'I' for Inactive)
REMARK    1  A    between atoms: O_1  and  C_6
REMARK    2  A    between atoms: O_1  and  C_18
REMARK    3  A    between atoms: C_18  and  C_20
REMARK    4  A    between atoms: N_19  and  C_26
REMARK    5  A    between atoms: C_26  and  C_28
REMARK                            x       y       z     vdW  Elec       q    Type
REMARK                         _______ _______ _______ _____ _____    ______ ____
ROOT
ATOM      1  O   UNL     1      33.542 -14.661 -22.914  0.00  0.00    -0.479 OA
ENDROOT
BRANCH   1   6
ATOM      2  N   UNL     1      32.048 -10.384 -21.191  0.00  0.00    -0.332 NA
ATOM      3  N   UNL     1      31.533 -12.371 -19.927  0.00  0.00    -0.317 NA
ATOM      4  N   UNL     1      32.200 -14.483 -20.658  0.00  0.00    -0.335 N 
ATOM      5  N   UNL     1      30.854 -10.257 -19.177  0.00  0.00    -0.283 N 
ATOM      6  C   UNL     1      33.425 -13.293 -22.977  0.00  0.00    +0.130 C 
ATOM      7  C   UNL     1      32.766 -12.526 -22.001  0.00  0.00    +0.177 C 
ATOM      8  C   UNL     1      34.002 -12.671 -24.079  0.00  0.00    +0.033 C 
ATOM      9  C   UNL     1      32.677 -11.129 -22.119  0.00  0.00    +0.137 C 
ATOM     10  C   UNL     1      32.169 -13.085 -20.874  0.00  0.00    +0.181 C 
ATOM     11  C   UNL     1      33.919 -11.289 -24.207  0.00  0.00    +0.005 C 
ATOM     12  C   UNL     1      33.263 -10.532 -23.232  0.00  0.00    +0.030 C 
ATOM     13  C   UNL     1      31.511 -11.046 -20.146  0.00  0.00    +0.197 C 
ATOM     14  H   UNL     1      31.775 -14.866 -19.858  0.00  0.00    +0.144 HD
ATOM     15  H   UNL     1      32.648 -15.072 -21.308  0.00  0.00    +0.144 HD
ATOM     16  H   UNL     1      30.807  -9.281 -19.286  0.00  0.00    +0.156 HD
ATOM     17  H   UNL     1      30.443 -10.685 -18.391  0.00  0.00    +0.156 HD
ENDBRANCH   1   6
BRANCH   1  18
ATOM     18  C   UNL     1      34.355 -15.280 -23.894  0.00  0.00    +0.205 C 
BRANCH  18  20
ATOM     19  N   UNL     1      35.335 -18.838 -21.648  0.00  0.00    +0.390 N 
ATOM     20  C   UNL     1      35.188 -16.365 -23.216  0.00  0.00    +0.040 C 
ATOM     21  C   UNL     1      34.898 -17.742 -23.822  0.00  0.00    -0.019 C 
ATOM     22  C   UNL     1      34.926 -16.399 -21.707  0.00  0.00    -0.019 C 
ATOM     23  C   UNL     1      35.654 -18.848 -23.082  0.00  0.00    -0.077 C 
ATOM     24  C   UNL     1      35.681 -17.549 -21.036  0.00  0.00    -0.077 C 
ATOM     25  H   UNL     1      34.329 -18.973 -21.548  0.00  0.00    -0.079 HD
BRANCH  19  26
ATOM     26  C   UNL     1      36.025 -19.931 -20.964  0.00  0.00    -0.048 C 
BRANCH  26  28
ATOM     27  F   UNL     1      36.926 -21.843 -19.074  0.00  0.00    -0.205 F 
ATOM     28  C   UNL     1      35.093 -20.715 -20.078  0.00  0.00    -0.016 C 
ATOM     29  C   UNL     1      35.605 -21.642 -19.169  0.00  0.00    +0.134 C 
ATOM     30  C   UNL     1      33.717 -20.513 -20.168  0.00  0.00    -0.004 C 
ATOM     31  C   UNL     1      34.738 -22.367 -18.350  0.00  0.00    +0.029 C 
ATOM     32  C   UNL     1      32.850 -21.237 -19.349  0.00  0.00    -0.000 C 
ATOM     33  C   UNL     1      33.361 -22.165 -18.441  0.00  0.00    +0.002 C 
ENDBRANCH  26  28
ENDBRANCH  19  26
ENDBRANCH  18  20
ENDBRANCH   1  18
TORSDOF 5
ENDMDL
MODEL 6
REMARK VINA RESULT:     -11.6      5.575     11.675
REMARK  Name = 23729147
REMARK  5 active torsions:
REMARK  status: ('A' for Active; 'I' for Inactive)
REMARK    1  A    between atoms: O_1  and  C_6
REMARK    2  A    between atoms: O_1  and  C_18
REMARK    3  A    between atoms: C_18  and  C_20
REMARK    4  A    between atoms: N_19  and  C_26
REMARK    5  A    between atoms: C_26  and  C_28
REMARK                            x       y       z     vdW  Elec       q    Type
REMARK                         _______ _______ _______ _____ _____    ______ ____
ROOT
ATOM      1  O   UNL     1      33.955 -12.915 -22.949  0.00  0.00    -0.479 OA
ENDROOT
BRANCH   1   6
ATOM      2  N   UNL     1      31.762  -8.763 -21.751  0.00  0.00    -0.332 NA
ATOM      3  N   UNL     1      33.507  -8.697 -23.411  0.00  0.00    -0.317 NA
ATOM      4  N   UNL     1      34.633 -10.632 -24.067  0.00  0.00    -0.335 N 
ATOM      5  N   UNL     1      32.388  -6.743 -22.765  0.00  0.00    -0.283 N 
ATOM      6  C   UNL     1      33.037 -12.181 -22.239  0.00  0.00    +0.130 C 
ATOM      7  C   UNL     1      32.879 -10.791 -22.379  0.00  0.00    +0.177 C 
ATOM      8  C   UNL     1      32.240 -12.885 -21.341  0.00  0.00    +0.033 C 
ATOM      9  C   UNL     1      31.922 -10.093 -21.624  0.00  0.00    +0.137 C 
ATOM     10  C   UNL     1      33.642 -10.028 -23.259  0.00  0.00    +0.181 C 
ATOM     11  C   UNL     1      31.292 -12.204 -20.587  0.00  0.00    +0.005 C 
ATOM     12  C   UNL     1      31.139 -10.822 -20.734  0.00  0.00    +0.030 C 
ATOM     13  C   UNL     1      32.563  -8.138 -22.637  0.00  0.00    +0.197 C 
ATOM     14  H   UNL     1      35.166 -10.082 -24.686  0.00  0.00    +0.144 HD
ATOM     15  H   UNL     1      34.790 -11.603 -24.013  0.00  0.00    +0.144 HD
ATOM     16  H   UNL     1      31.710  -6.280 -22.222  0.00  0.00    +0.156 HD
ATOM     17  H   UNL     1      32.944  -6.233 -23.398  0.00  0.00    +0.156 HD
ENDBRANCH   1   6
BRANCH   1  18
ATOM     18  C   UNL     1      33.542 -14.189 -23.408  0.00  0.00    +0.205 C 
BRANCH  18  20
ATOM     19  N   UNL     1      35.053 -17.944 -21.899  0.00  0.00    +0.390 N 
ATOM     20  C   UNL     1      34.524 -15.235 -22.888  0.00  0.00    +0.040 C 
ATOM     21  C   UNL     1      34.575 -16.453 -23.815  0.00  0.00    -0.019 C 
ATOM     22  C   UNL     1      34.154 -15.679 -21.469  0.00  0.00    -0.019 C 
ATOM     23  C   UNL     1      35.481 -17.548 -23.248  0.00  0.00    -0.077 C 
ATOM     24  C   UNL     1      35.074 -16.800 -20.979  0.00  0.00    -0.077 C 
ATOM     25  H   UNL     1      34.092 -18.280 -21.961  0.00  0.00    -0.079 HD
BRANCH  19  26
ATOM     26  C   UNL     1      35.897 -19.025 -21.392  0.00  0.00    -0.048 C 
BRANCH  26  28
ATOM     27  F   UNL     1      37.103 -21.017 -19.774  0.00  0.00    -0.205 F 
ATOM     28  C   UNL     1      35.106 -20.025 -20.591  0.00  0.00    -0.016 C 
ATOM     29  C   UNL     1      35.764 -20.980 -19.816  0.00  0.00    +0.134 C 
ATOM     30  C   UNL     1      33.712 -19.996 -20.628  0.00  0.00    -0.004 C 
ATOM     31  C   UNL     1      35.027 -21.906 -19.076  0.00  0.00    +0.029 C 
ATOM     32  C   UNL     1      32.976 -20.922 -19.888  0.00  0.00    -0.000 C 
ATOM     33  C   UNL     1      33.633 -21.877 -19.113  0.00  0.00    +0.002 C 
ENDBRANCH  26  28
ENDBRANCH  19  26
ENDBRANCH  18  20
ENDBRANCH   1  18
TORSDOF 5
ENDMDL
MODEL 7
REMARK VINA RESULT:     -11.2      2.902      4.759
REMARK  Name = 23729147
REMARK  5 active torsions:
REMARK  status: ('A' for Active; 'I' for Inactive)
REMARK    1  A    between atoms: O_1  and  C_6
REMARK    2  A    between atoms: O_1  and  C_18
REMARK    3  A    between atoms: C_18  and  C_20
REMARK    4  A    between atoms: N_19  and  C_26
REMARK    5  A    between atoms: C_26  and  C_28
REMARK                            x       y       z     vdW  Elec       q    Type
REMARK                         _______ _______ _______ _____ _____    ______ ____
ROOT
ATOM      1  O   UNL     1      34.673 -25.074 -13.039  0.00  0.00    -0.479 OA
ENDROOT
BRANCH   1   6
ATOM      2  N   UNL     1      39.515 -25.140 -12.862  0.00  0.00    -0.332 NA
ATOM      3  N   UNL     1      38.402 -26.711 -14.311  0.00  0.00    -0.317 NA
ATOM      4  N   UNL     1      36.076 -26.772 -14.478  0.00  0.00    -0.335 N 
ATOM      5  N   UNL     1      40.739 -26.665 -14.157  0.00  0.00    -0.283 N 
ATOM      6  C   UNL     1      35.884 -24.619 -12.576  0.00  0.00    +0.130 C 
ATOM      7  C   UNL     1      37.119 -25.148 -12.986  0.00  0.00    +0.177 C 
ATOM      8  C   UNL     1      35.843 -23.577 -11.654  0.00  0.00    +0.033 C 
ATOM      9  C   UNL     1      38.327 -24.641 -12.476  0.00  0.00    +0.137 C 
ATOM     10  C   UNL     1      37.230 -26.188 -13.905  0.00  0.00    +0.181 C 
ATOM     11  C   UNL     1      37.032 -23.069 -11.143  0.00  0.00    +0.005 C 
ATOM     12  C   UNL     1      38.257 -23.600 -11.556  0.00  0.00    +0.030 C 
ATOM     13  C   UNL     1      39.488 -26.147 -13.758  0.00  0.00    +0.197 C 
ATOM     14  H   UNL     1      36.167 -27.506 -15.127  0.00  0.00    +0.144 HD
ATOM     15  H   UNL     1      35.182 -26.442 -14.230  0.00  0.00    +0.144 HD
ATOM     16  H   UNL     1      41.569 -26.290 -13.783  0.00  0.00    +0.156 HD
ATOM     17  H   UNL     1      40.782 -27.401 -14.810  0.00  0.00    +0.156 HD
ENDBRANCH   1   6
BRANCH   1  18
ATOM     18  C   UNL     1      33.656 -24.109 -13.235  0.00  0.00    +0.205 C 
BRANCH  18  20
ATOM     19  N   UNL     1      33.306 -22.586 -17.262  0.00  0.00    +0.390 N 
ATOM     20  C   UNL     1      33.323 -24.053 -14.724  0.00  0.00    +0.040 C 
ATOM     21  C   UNL     1      34.587 -23.848 -15.565  0.00  0.00    -0.019 C 
ATOM     22  C   UNL     1      32.318 -22.935 -15.021  0.00  0.00    -0.019 C 
ATOM     23  C   UNL     1      34.251 -23.691 -17.049  0.00  0.00    -0.077 C 
ATOM     24  C   UNL     1      32.056 -22.807 -16.524  0.00  0.00    -0.077 C 
ATOM     25  H   UNL     1      33.735 -21.732 -16.907  0.00  0.00    -0.079 HD
BRANCH  19  26
ATOM     26  C   UNL     1      33.034 -22.415 -18.689  0.00  0.00    -0.048 C 
BRANCH  26  28
ATOM     27  F   UNL     1      32.342 -20.317 -20.467  0.00  0.00    -0.205 F 
ATOM     28  C   UNL     1      34.054 -21.528 -19.352  0.00  0.00    -0.016 C 
ATOM     29  C   UNL     1      33.644 -20.514 -20.218  0.00  0.00    +0.134 C 
ATOM     30  C   UNL     1      35.411 -21.724 -19.101  0.00  0.00    -0.004 C 
ATOM     31  C   UNL     1      34.593 -19.695 -20.831  0.00  0.00    +0.029 C 
ATOM     32  C   UNL     1      36.360 -20.905 -19.713  0.00  0.00    -0.000 C 
ATOM     33  C   UNL     1      35.951 -19.891 -20.579  0.00  0.00    +0.002 C 
ENDBRANCH  26  28
ENDBRANCH  19  26
ENDBRANCH  18  20
ENDBRANCH   1  18
TORSDOF 5
ENDMDL
MODEL 8
REMARK VINA RESULT:     -11.1      2.120      3.021
REMARK  Name = 23729147
REMARK  5 active torsions:
REMARK  status: ('A' for Active; 'I' for Inactive)
REMARK    1  A    between atoms: O_1  and  C_6
REMARK    2  A    between atoms: O_1  and  C_18
REMARK    3  A    between atoms: C_18  and  C_20
REMARK    4  A    between atoms: N_19  and  C_26
REMARK    5  A    between atoms: C_26  and  C_28
REMARK                            x       y       z     vdW  Elec       q    Type
REMARK                         _______ _______ _______ _____ _____    ______ ____
ROOT
ATOM      1  O   UNL     1      33.849 -22.202 -17.458  0.00  0.00    -0.479 OA
ENDROOT
BRANCH   1   6
ATOM      2  N   UNL     1      32.707 -24.723 -13.480  0.00  0.00    -0.332 NA
ATOM      3  N   UNL     1      30.915 -23.858 -14.840  0.00  0.00    -0.317 NA
ATOM      4  N   UNL     1      31.344 -22.631 -16.776  0.00  0.00    -0.335 N 
ATOM      5  N   UNL     1      30.465 -25.089 -12.897  0.00  0.00    -0.283 N 
ATOM      6  C   UNL     1      34.174 -22.919 -16.331  0.00  0.00    +0.130 C 
ATOM      7  C   UNL     1      33.219 -23.469 -15.459  0.00  0.00    +0.177 C 
ATOM      8  C   UNL     1      35.531 -23.086 -16.073  0.00  0.00    +0.033 C 
ATOM      9  C   UNL     1      33.612 -24.192 -14.321  0.00  0.00    +0.137 C 
ATOM     10  C   UNL     1      31.848 -23.340 -15.660  0.00  0.00    +0.181 C 
ATOM     11  C   UNL     1      35.932 -23.798 -14.949  0.00  0.00    +0.005 C 
ATOM     12  C   UNL     1      34.976 -24.344 -14.087  0.00  0.00    +0.030 C 
ATOM     13  C   UNL     1      31.408 -24.528 -13.785  0.00  0.00    +0.197 C 
ATOM     14  H   UNL     1      30.372 -22.546 -16.907  0.00  0.00    +0.144 HD
ATOM     15  H   UNL     1      31.965 -22.223 -17.422  0.00  0.00    +0.144 HD
ATOM     16  H   UNL     1      30.769 -25.591 -12.108  0.00  0.00    +0.156 HD
ATOM     17  H   UNL     1      29.501 -24.980 -13.070  0.00  0.00    +0.156 HD
ENDBRANCH   1   6
BRANCH   1  18
ATOM     18  C   UNL     1      33.891 -22.893 -18.692  0.00  0.00    +0.205 C 
BRANCH  18  20
ATOM     19  N   UNL     1      35.528 -19.341 -20.526  0.00  0.00    +0.390 N 
ATOM     20  C   UNL     1      34.537 -21.984 -19.735  0.00  0.00    +0.040 C 
ATOM     21  C   UNL     1      35.865 -21.416 -19.223  0.00  0.00    -0.019 C 
ATOM     22  C   UNL     1      33.599 -20.837 -20.123  0.00  0.00    -0.019 C 
ATOM     23  C   UNL     1      36.470 -20.426 -20.221  0.00  0.00    -0.077 C 
ATOM     24  C   UNL     1      34.278 -19.866 -21.092  0.00  0.00    -0.077 C 
ATOM     25  H   UNL     1      35.302 -18.865 -19.653  0.00  0.00    -0.079 HD
BRANCH  19  26
ATOM     26  C   UNL     1      36.138 -18.377 -21.442  0.00  0.00    -0.048 C 
BRANCH  26  28
ATOM     27  F   UNL     1      35.492 -17.299 -23.983  0.00  0.00    -0.205 F 
ATOM     28  C   UNL     1      35.279 -17.153 -21.622  0.00  0.00    -0.016 C 
ATOM     29  C   UNL     1      35.000 -16.676 -22.903  0.00  0.00    +0.134 C 
ATOM     30  C   UNL     1      34.762 -16.498 -20.506  0.00  0.00    -0.004 C 
ATOM     31  C   UNL     1      34.204 -15.541 -23.066  0.00  0.00    +0.029 C 
ATOM     32  C   UNL     1      33.966 -15.364 -20.668  0.00  0.00    -0.000 C 
ATOM     33  C   UNL     1      33.688 -14.885 -21.949  0.00  0.00    +0.002 C 
ENDBRANCH  26  28
ENDBRANCH  19  26
ENDBRANCH  18  20
ENDBRANCH   1  18
TORSDOF 5
ENDMDL
MODEL 9
REMARK VINA RESULT:     -11.0      7.744     11.541
REMARK  Name = 23729147
REMARK  5 active torsions:
REMARK  status: ('A' for Active; 'I' for Inactive)
REMARK    1  A    between atoms: O_1  and  C_6
REMARK    2  A    between atoms: O_1  and  C_18
REMARK    3  A    between atoms: C_18  and  C_20
REMARK    4  A    between atoms: N_19  and  C_26
REMARK    5  A    between atoms: C_26  and  C_28
REMARK                            x       y       z     vdW  Elec       q    Type
REMARK                         _______ _______ _______ _____ _____    ______ ____
ROOT
ATOM      1  O   UNL     1      33.278 -13.072 -21.759  0.00  0.00    -0.479 OA
ENDROOT
BRANCH   1   6
ATOM      2  N   UNL     1      35.032 -17.165 -23.671  0.00  0.00    -0.332 NA
ATOM      3  N   UNL     1      35.164 -16.869 -21.283  0.00  0.00    -0.317 NA
ATOM      4  N   UNL     1      34.353 -14.941 -20.251  0.00  0.00    -0.335 N 
ATOM      5  N   UNL     1      35.984 -18.813 -22.302  0.00  0.00    -0.283 N 
ATOM      6  C   UNL     1      33.557 -13.904 -22.817  0.00  0.00    +0.130 C 
ATOM      7  C   UNL     1      34.178 -15.157 -22.675  0.00  0.00    +0.177 C 
ATOM      8  C   UNL     1      33.190 -13.447 -24.079  0.00  0.00    +0.033 C 
ATOM      9  C   UNL     1      34.438 -15.964 -23.795  0.00  0.00    +0.137 C 
ATOM     10  C   UNL     1      34.568 -15.673 -21.442  0.00  0.00    +0.181 C 
ATOM     11  C   UNL     1      33.443 -14.237 -25.194  0.00  0.00    +0.005 C 
ATOM     12  C   UNL     1      34.061 -15.482 -25.045  0.00  0.00    +0.030 C 
ATOM     13  C   UNL     1      35.362 -17.552 -22.422  0.00  0.00    +0.197 C 
ATOM     14  H   UNL     1      34.634 -15.316 -19.386  0.00  0.00    +0.144 HD
ATOM     15  H   UNL     1      33.922 -14.057 -20.287  0.00  0.00    +0.144 HD
ATOM     16  H   UNL     1      36.154 -19.358 -23.103  0.00  0.00    +0.156 HD
ATOM     17  H   UNL     1      36.247 -19.149 -21.414  0.00  0.00    +0.156 HD
ENDBRANCH   1   6
BRANCH   1  18
ATOM     18  C   UNL     1      31.944 -13.057 -21.287  0.00  0.00    +0.205 C 
BRANCH  18  20
ATOM     19  N   UNL     1      32.318  -8.821 -20.527  0.00  0.00    +0.390 N 
ATOM     20  C   UNL     1      31.550 -11.613 -20.990  0.00  0.00    +0.040 C 
ATOM     21  C   UNL     1      31.982 -10.679 -22.125  0.00  0.00    -0.019 C 
ATOM     22  C   UNL     1      32.162 -11.137 -19.668  0.00  0.00    -0.019 C 
ATOM     23  C   UNL     1      31.680  -9.217 -21.790  0.00  0.00    -0.077 C 
ATOM     24  C   UNL     1      31.854  -9.659 -19.413  0.00  0.00    -0.077 C 
ATOM     25  H   UNL     1      33.324  -8.959 -20.626  0.00  0.00    -0.079 HD
BRANCH  19  26
ATOM     26  C   UNL     1      32.063  -7.409 -20.246  0.00  0.00    -0.048 C 
BRANCH  26  28
ATOM     27  F   UNL     1      30.069  -5.537 -20.993  0.00  0.00    -0.205 F 
ATOM     28  C   UNL     1      32.151  -6.565 -21.491  0.00  0.00    -0.016 C 
ATOM     29  C   UNL     1      31.132  -5.663 -21.799  0.00  0.00    +0.134 C 
ATOM     30  C   UNL     1      33.252  -6.689 -22.336  0.00  0.00    -0.004 C 
ATOM     31  C   UNL     1      31.217  -4.884 -22.954  0.00  0.00    +0.029 C 
ATOM     32  C   UNL     1      33.337  -5.910 -23.490  0.00  0.00    -0.000 C 
ATOM     33  C   UNL     1      32.319  -5.008 -23.799  0.00  0.00    +0.002 C 
ENDBRANCH  26  28
ENDBRANCH  19  26
ENDBRANCH  18  20
ENDBRANCH   1  18
TORSDOF 5
ENDMDL
