MODEL 1
REMARK VINA RESULT:     -12.6      0.000      0.000
REMARK  Name = 11282283
REMARK  4 active torsions:
REMARK  status: ('A' for Active; 'I' for Inactive)
REMARK    1  A    between atoms: N_3  and  C_21
REMARK    2  A    between atoms: C_21  and  N_22
REMARK    3  A    between atoms: N_22  and  C_24
REMARK    4  A    between atoms: C_24  and  C_27
REMARK                            x       y       z     vdW  Elec       q    Type
REMARK                         _______ _______ _______ _____ _____    ______ ____
ROOT
ATOM      1  O   UNL     1      34.169 -10.663 -23.234  0.00  0.00    -0.466 OA
ATOM      2  N   UNL     1      33.109 -13.212 -22.218  0.00  0.00    -0.290 N 
ATOM      3  N   UNL     1      34.384 -15.758 -22.643  0.00  0.00    -0.288 N 
ATOM      4  N   UNL     1      31.334 -11.889 -21.318  0.00  0.00    -0.230 NA
ATOM      5  N   UNL     1      31.256  -9.466 -21.612  0.00  0.00    -0.245 NA
ATOM      6  C   UNL     1      32.972 -14.293 -21.236  0.00  0.00    +0.113 C 
ATOM      7  C   UNL     1      33.911 -13.459 -23.422  0.00  0.00    +0.113 C 
ATOM      8  C   UNL     1      34.172 -15.237 -21.301  0.00  0.00    +0.114 C 
ATOM      9  C   UNL     1      33.930 -14.947 -23.763  0.00  0.00    +0.114 C 
ATOM     10  C   UNL     1      32.489 -11.981 -22.014  0.00  0.00    +0.152 C 
ATOM     11  C   UNL     1      33.030 -10.814 -22.511  0.00  0.00    +0.258 C 
ATOM     12  C   UNL     1      32.414  -9.588 -22.307  0.00  0.00    +0.106 C 
ATOM     13  C   UNL     1      33.229  -8.618 -22.946  0.00  0.00    +0.051 C 
ATOM     14  C   UNL     1      34.293  -9.329 -23.499  0.00  0.00    +0.141 C 
ATOM     15  C   UNL     1      30.797 -10.655 -21.162  0.00  0.00    +0.251 C 
ATOM     16  C   UNL     1      33.191  -7.224 -23.120  0.00  0.00    +0.004 C 
ATOM     17  C   UNL     1      35.331  -8.741 -24.220  0.00  0.00    +0.037 C 
ATOM     18  C   UNL     1      34.221  -6.606 -23.841  0.00  0.00    +0.000 C 
ATOM     19  C   UNL     1      35.271  -7.354 -24.381  0.00  0.00    +0.003 C 
ENDROOT
BRANCH   3  21
ATOM     20  S   UNL     1      34.963 -17.697 -24.343  0.00  0.00    -0.019 S 
ATOM     21  C   UNL     1      34.983 -16.959 -22.842  0.00  0.00    +0.135 C 
BRANCH  21  22
ATOM     22  N   UNL     1      35.608 -17.545 -21.770  0.00  0.00    -0.312 N 
ATOM     23  H   UNL     1      35.726 -16.992 -20.965  0.00  0.00    +0.149 HD
BRANCH  22  24
ATOM     24  C   UNL     1      36.109 -18.905 -21.714  0.00  0.00    +0.116 C 
BRANCH  24  27
ATOM     25  O   UNL     1      35.353 -22.392 -18.301  0.00  0.00    -0.435 OA
ATOM     26  O   UNL     1      32.958 -22.263 -18.532  0.00  0.00    -0.435 OA
ATOM     27  C   UNL     1      35.234 -19.791 -20.876  0.00  0.00    +0.001 C 
ATOM     28  C   UNL     1      35.818 -20.676 -19.975  0.00  0.00    +0.038 C 
ATOM     29  C   UNL     1      33.841 -19.710 -21.015  0.00  0.00    +0.001 C 
ATOM     30  C   UNL     1      34.973 -21.470 -19.227  0.00  0.00    +0.176 C 
ATOM     31  C   UNL     1      33.605 -21.396 -19.359  0.00  0.00    +0.176 C 
ATOM     32  C   UNL     1      33.008 -20.524 -20.246  0.00  0.00    +0.040 C 
ATOM     33  C   UNL     1      34.072 -22.889 -17.865  0.00  0.00    +0.429 C 
ENDBRANCH  24  27
ENDBRANCH  22  24
ENDBRANCH  21  22
ENDBRANCH   3  21
TORSDOF 4
ENDMDL
MODEL 2
REMARK VINA RESULT:     -12.2      3.561     11.055
REMARK  Name = 11282283
REMARK  4 active torsions:
REMARK  status: ('A' for Active; 'I' for Inactive)
REMARK    1  A    between atoms: N_3  and  C_21
REMARK    2  A    between atoms: C_21  and  N_22
REMARK    3  A    between atoms: N_22  and  C_24
REMARK    4  A    between atoms: C_24  and  C_27
REMARK                            x       y       z     vdW  Elec       q    Type
REMARK                         _______ _______ _______ _____ _____    ______ ____
ROOT
ATOM      1  O   UNL     1      34.263 -15.215 -22.273  0.00  0.00    -0.466 OA
ATOM      2  N   UNL     1      33.155 -12.731 -23.396  0.00  0.00    -0.290 N 
ATOM      3  N   UNL     1      32.373 -10.465 -21.802  0.00  0.00    -0.288 N 
ATOM      4  N   UNL     1      33.403 -13.810 -25.514  0.00  0.00    -0.230 NA
ATOM      5  N   UNL     1      34.307 -16.070 -25.710  0.00  0.00    -0.245 NA
ATOM      6  C   UNL     1      33.236 -11.370 -23.936  0.00  0.00    +0.113 C 
ATOM      7  C   UNL     1      32.668 -12.910 -22.024  0.00  0.00    +0.113 C 
ATOM      8  C   UNL     1      33.415 -10.352 -22.812  0.00  0.00    +0.114 C 
ATOM      9  C   UNL     1      31.742 -11.763 -21.625  0.00  0.00    +0.114 C 
ATOM     10  C   UNL     1      33.531 -13.828 -24.168  0.00  0.00    +0.152 C 
ATOM     11  C   UNL     1      34.047 -14.969 -23.591  0.00  0.00    +0.258 C 
ATOM     12  C   UNL     1      34.423 -16.062 -24.360  0.00  0.00    +0.106 C 
ATOM     13  C   UNL     1      34.903 -17.043 -23.455  0.00  0.00    +0.051 C 
ATOM     14  C   UNL     1      34.784 -16.474 -22.187  0.00  0.00    +0.141 C 
ATOM     15  C   UNL     1      33.793 -14.916 -26.192  0.00  0.00    +0.251 C 
ATOM     16  C   UNL     1      35.423 -18.345 -23.560  0.00  0.00    +0.004 C 
ATOM     17  C   UNL     1      35.151 -17.119 -21.007  0.00  0.00    +0.037 C 
ATOM     18  C   UNL     1      35.800 -19.016 -22.389  0.00  0.00    +0.000 C 
ATOM     19  C   UNL     1      35.665 -18.412 -21.137  0.00  0.00    +0.003 C 
ENDROOT
BRANCH   3  21
ATOM     20  S   UNL     1      31.872  -9.509 -19.389  0.00  0.00    -0.019 S 
ATOM     21  C   UNL     1      32.004  -9.395 -21.053  0.00  0.00    +0.135 C 
BRANCH  21  22
ATOM     22  N   UNL     1      31.745  -8.217 -21.707  0.00  0.00    -0.312 N 
ATOM     23  H   UNL     1      31.023  -8.227 -22.375  0.00  0.00    +0.149 HD
BRANCH  22  24
ATOM     24  C   UNL     1      32.437  -6.959 -21.504  0.00  0.00    +0.116 C 
BRANCH  24  27
ATOM     25  O   UNL     1      33.102  -4.546 -25.759  0.00  0.00    -0.435 OA
ATOM     26  O   UNL     1      35.338  -5.401 -26.030  0.00  0.00    -0.435 OA
ATOM     27  C   UNL     1      33.243  -6.561 -22.706  0.00  0.00    +0.001 C 
ATOM     28  C   UNL     1      32.688  -5.703 -23.650  0.00  0.00    +0.038 C 
ATOM     29  C   UNL     1      34.544  -7.063 -22.856  0.00  0.00    +0.001 C 
ATOM     30  C   UNL     1      33.468  -5.366 -24.737  0.00  0.00    +0.176 C 
ATOM     31  C   UNL     1      34.745  -5.854 -24.891  0.00  0.00    +0.176 C 
ATOM     32  C   UNL     1      35.312  -6.707 -23.966  0.00  0.00    +0.040 C 
ATOM     33  C   UNL     1      34.291  -4.572 -26.574  0.00  0.00    +0.429 C 
ENDBRANCH  24  27
ENDBRANCH  22  24
ENDBRANCH  21  22
ENDBRANCH   3  21
TORSDOF 4
ENDMDL
MODEL 3
REMARK VINA RESULT:     -11.9      1.532      2.184
REMARK  Name = 11282283
REMARK  4 active torsions:
REMARK  status: ('A' for Active; 'I' for Inactive)
REMARK    1  A    between atoms: N_3  and  C_21
REMARK    2  A    between atoms: C_21  and  N_22
REMARK    3  A    between atoms: N_22  and  C_24
REMARK    4  A    between atoms: C_24  and  C_27
REMARK                            x       y       z     vdW  Elec       q    Type
REMARK                         _______ _______ _______ _____ _____    ______ ____
ROOT
ATOM      1  O   UNL     1      33.031  -9.825 -22.317  0.00  0.00    -0.466 OA
ATOM      2  N   UNL     1      32.870 -12.669 -21.580  0.00  0.00    -0.290 N 
ATOM      3  N   UNL     1      34.045 -14.792 -23.130  0.00  0.00    -0.288 N 
ATOM      4  N   UNL     1      31.620 -11.907 -19.691  0.00  0.00    -0.230 NA
ATOM      5  N   UNL     1      31.153  -9.538 -19.327  0.00  0.00    -0.245 NA
ATOM      6  C   UNL     1      33.340 -13.899 -20.934  0.00  0.00    +0.113 C 
ATOM      7  C   UNL     1      33.013 -12.546 -23.035  0.00  0.00    +0.113 C 
ATOM      8  C   UNL     1      34.452 -14.549 -21.754  0.00  0.00    +0.114 C 
ATOM      9  C   UNL     1      33.024 -13.923 -23.696  0.00  0.00    +0.114 C 
ATOM     10  C   UNL     1      32.298 -11.643 -20.830  0.00  0.00    +0.152 C 
ATOM     11  C   UNL     1      32.405 -10.324 -21.220  0.00  0.00    +0.258 C 
ATOM     12  C   UNL     1      31.837  -9.302 -20.473  0.00  0.00    +0.106 C 
ATOM     13  C   UNL     1      32.135  -8.094 -21.155  0.00  0.00    +0.051 C 
ATOM     14  C   UNL     1      32.869  -8.470 -22.279  0.00  0.00    +0.141 C 
ATOM     15  C   UNL     1      31.097 -10.853 -19.019  0.00  0.00    +0.251 C 
ATOM     16  C   UNL     1      31.869  -6.729 -20.952  0.00  0.00    +0.004 C 
ATOM     17  C   UNL     1      33.361  -7.570 -23.224  0.00  0.00    +0.037 C 
ATOM     18  C   UNL     1      32.351  -5.802 -21.886  0.00  0.00    +0.000 C 
ATOM     19  C   UNL     1      33.083  -6.218 -23.001  0.00  0.00    +0.003 C 
ENDROOT
BRANCH   3  21
ATOM     20  S   UNL     1      34.489 -15.810 -25.528  0.00  0.00    -0.019 S 
ATOM     21  C   UNL     1      34.598 -15.793 -23.859  0.00  0.00    +0.135 C 
BRANCH  21  22
ATOM     22  N   UNL     1      35.252 -16.790 -23.180  0.00  0.00    -0.312 N 
ATOM     23  H   UNL     1      35.968 -16.515 -22.563  0.00  0.00    +0.149 HD
BRANCH  22  24
ATOM     24  C   UNL     1      34.984 -18.211 -23.285  0.00  0.00    +0.116 C 
BRANCH  24  27
ATOM     25  O   UNL     1      34.479 -21.464 -19.605  0.00  0.00    -0.435 OA
ATOM     26  O   UNL     1      36.723 -21.090 -18.811  0.00  0.00    -0.435 OA
ATOM     27  C   UNL     1      35.483 -18.967 -22.087  0.00  0.00    +0.001 C 
ATOM     28  C   UNL     1      34.642 -19.874 -21.451  0.00  0.00    +0.038 C 
ATOM     29  C   UNL     1      36.789 -18.744 -21.631  0.00  0.00    +0.001 C 
ATOM     30  C   UNL     1      35.145 -20.545 -20.355  0.00  0.00    +0.176 C 
ATOM     31  C   UNL     1      36.427 -20.331 -19.902  0.00  0.00    +0.176 C 
ATOM     32  C   UNL     1      37.275 -19.435 -20.520  0.00  0.00    +0.040 C 
ATOM     33  C   UNL     1      35.484 -21.806 -18.630  0.00  0.00    +0.429 C 
ENDBRANCH  24  27
ENDBRANCH  22  24
ENDBRANCH  21  22
ENDBRANCH   3  21
TORSDOF 4
ENDMDL
MODEL 4
REMARK VINA RESULT:     -11.8      3.627     11.630
REMARK  Name = 11282283
REMARK  4 active torsions:
REMARK  status: ('A' for Active; 'I' for Inactive)
REMARK    1  A    between atoms: N_3  and  C_21
REMARK    2  A    between atoms: C_21  and  N_22
REMARK    3  A    between atoms: N_22  and  C_24
REMARK    4  A    between atoms: C_24  and  C_27
REMARK                            x       y       z     vdW  Elec       q    Type
REMARK                         _______ _______ _______ _____ _____    ______ ____
ROOT
ATOM      1  O   UNL     1      34.269 -15.169 -22.326  0.00  0.00    -0.466 OA
ATOM      2  N   UNL     1      33.206 -12.671 -23.459  0.00  0.00    -0.290 N 
ATOM      3  N   UNL     1      32.452 -10.389 -21.874  0.00  0.00    -0.288 N 
ATOM      4  N   UNL     1      33.447 -13.758 -25.574  0.00  0.00    -0.230 NA
ATOM      5  N   UNL     1      34.315 -16.033 -25.761  0.00  0.00    -0.245 NA
ATOM      6  C   UNL     1      33.310 -11.313 -24.002  0.00  0.00    +0.113 C 
ATOM      7  C   UNL     1      32.709 -12.840 -22.089  0.00  0.00    +0.113 C 
ATOM      8  C   UNL     1      33.500 -10.295 -22.879  0.00  0.00    +0.114 C 
ATOM      9  C   UNL     1      31.799 -11.677 -21.697  0.00  0.00    +0.114 C 
ATOM     10  C   UNL     1      33.567 -13.776 -24.228  0.00  0.00    +0.152 C 
ATOM     11  C   UNL     1      34.063 -14.924 -23.645  0.00  0.00    +0.258 C 
ATOM     12  C   UNL     1      34.425 -16.024 -24.410  0.00  0.00    +0.106 C 
ATOM     13  C   UNL     1      34.885 -17.011 -23.501  0.00  0.00    +0.051 C 
ATOM     14  C   UNL     1      34.769 -16.437 -22.235  0.00  0.00    +0.141 C 
ATOM     15  C   UNL     1      33.822 -14.872 -26.248  0.00  0.00    +0.251 C 
ATOM     16  C   UNL     1      35.385 -18.320 -23.601  0.00  0.00    +0.004 C 
ATOM     17  C   UNL     1      35.121 -17.085 -21.052  0.00  0.00    +0.037 C 
ATOM     18  C   UNL     1      35.746 -18.995 -22.427  0.00  0.00    +0.000 C 
ATOM     19  C   UNL     1      35.615 -18.386 -21.177  0.00  0.00    +0.003 C 
ENDROOT
BRANCH   3  21
ATOM     20  S   UNL     1      31.902  -9.434 -19.472  0.00  0.00    -0.019 S 
ATOM     21  C   UNL     1      32.096  -9.313 -21.129  0.00  0.00    +0.135 C 
BRANCH  21  22
ATOM     22  N   UNL     1      31.904  -8.121 -21.781  0.00  0.00    -0.312 N 
ATOM     23  H   UNL     1      31.197  -8.095 -22.465  0.00  0.00    +0.149 HD
BRANCH  22  24
ATOM     24  C   UNL     1      32.646  -6.896 -21.555  0.00  0.00    +0.116 C 
BRANCH  24  27
ATOM     25  O   UNL     1      30.373  -3.042 -23.643  0.00  0.00    -0.435 OA
ATOM     26  O   UNL     1      31.769  -3.134 -25.605  0.00  0.00    -0.435 OA
ATOM     27  C   UNL     1      32.438  -5.902 -22.661  0.00  0.00    +0.001 C 
ATOM     28  C   UNL     1      31.441  -4.939 -22.537  0.00  0.00    +0.038 C 
ATOM     29  C   UNL     1      33.254  -5.961 -23.799  0.00  0.00    +0.001 C 
ATOM     30  C   UNL     1      31.288  -4.047 -23.579  0.00  0.00    +0.176 C 
ATOM     31  C   UNL     1      32.086  -4.099 -24.700  0.00  0.00    +0.176 C 
ATOM     32  C   UNL     1      33.079  -5.047 -24.840  0.00  0.00    +0.040 C 
ATOM     33  C   UNL     1      30.684  -2.467 -24.929  0.00  0.00    +0.429 C 
ENDBRANCH  24  27
ENDBRANCH  22  24
ENDBRANCH  21  22
ENDBRANCH   3  21
TORSDOF 4
ENDMDL
MODEL 5
REMARK VINA RESULT:     -10.9      4.049      6.765
REMARK  Name = 11282283
REMARK  4 active torsions:
REMARK  status: ('A' for Active; 'I' for Inactive)
REMARK    1  A    between atoms: N_3  and  C_21
REMARK    2  A    between atoms: C_21  and  N_22
REMARK    3  A    between atoms: N_22  and  C_24
REMARK    4  A    between atoms: C_24  and  C_27
REMARK                            x       y       z     vdW  Elec       q    Type
REMARK                         _______ _______ _______ _____ _____    ______ ____
ROOT
ATOM      1  O   UNL     1      33.619  -5.785 -24.632  0.00  0.00    -0.466 OA
ATOM      2  N   UNL     1      31.672  -6.556 -22.565  0.00  0.00    -0.290 N 
ATOM      3  N   UNL     1      31.779  -9.040 -21.115  0.00  0.00    -0.288 N 
ATOM      4  N   UNL     1      30.640  -4.451 -23.030  0.00  0.00    -0.230 NA
ATOM      5  N   UNL     1      31.536  -2.920 -24.708  0.00  0.00    -0.245 NA
ATOM      6  C   UNL     1      31.163  -6.646 -21.192  0.00  0.00    +0.113 C 
ATOM      7  C   UNL     1      32.238  -7.761 -23.181  0.00  0.00    +0.113 C 
ATOM      8  C   UNL     1      31.871  -7.762 -20.426  0.00  0.00    +0.114 C 
ATOM      9  C   UNL     1      31.633  -9.019 -22.562  0.00  0.00    +0.114 C 
ATOM     10  C   UNL     1      31.618  -5.354 -23.268  0.00  0.00    +0.152 C 
ATOM     11  C   UNL     1      32.558  -5.040 -24.227  0.00  0.00    +0.258 C 
ATOM     12  C   UNL     1      32.505  -3.843 -24.927  0.00  0.00    +0.106 C 
ATOM     13  C   UNL     1      33.607  -3.851 -25.820  0.00  0.00    +0.051 C 
ATOM     14  C   UNL     1      34.259  -5.064 -25.600  0.00  0.00    +0.141 C 
ATOM     15  C   UNL     1      30.659  -3.306 -23.755  0.00  0.00    +0.251 C 
ATOM     16  C   UNL     1      34.128  -2.975 -26.788  0.00  0.00    +0.004 C 
ATOM     17  C   UNL     1      35.404  -5.468 -26.284  0.00  0.00    +0.037 C 
ATOM     18  C   UNL     1      35.279  -3.356 -27.491  0.00  0.00    +0.000 C 
ATOM     19  C   UNL     1      35.904  -4.580 -27.241  0.00  0.00    +0.003 C 
ENDROOT
BRANCH   3  21
ATOM     20  S   UNL     1      31.693 -10.244 -18.763  0.00  0.00    -0.019 S 
ATOM     21  C   UNL     1      31.827 -10.211 -20.430  0.00  0.00    +0.135 C 
BRANCH  21  22
ATOM     22  N   UNL     1      31.988 -11.366 -21.153  0.00  0.00    -0.312 N 
ATOM     23  H   UNL     1      32.144 -11.269 -22.120  0.00  0.00    +0.149 HD
BRANCH  22  24
ATOM     24  C   UNL     1      31.950 -12.715 -20.624  0.00  0.00    +0.116 C 
BRANCH  24  27
ATOM     25  O   UNL     1      34.951 -16.603 -21.127  0.00  0.00    -0.435 OA
ATOM     26  O   UNL     1      35.141 -16.295 -23.509  0.00  0.00    -0.435 OA
ATOM     27  C   UNL     1      32.798 -13.657 -21.428  0.00  0.00    +0.001 C 
ATOM     28  C   UNL     1      33.463 -14.697 -20.787  0.00  0.00    +0.038 C 
ATOM     29  C   UNL     1      32.903 -13.472 -22.814  0.00  0.00    +0.001 C 
ATOM     30  C   UNL     1      34.229 -15.538 -21.569  0.00  0.00    +0.176 C 
ATOM     31  C   UNL     1      34.338 -15.362 -22.930  0.00  0.00    +0.176 C 
ATOM     32  C   UNL     1      33.685 -14.336 -23.583  0.00  0.00    +0.040 C 
ATOM     33  C   UNL     1      35.525 -17.079 -22.362  0.00  0.00    +0.429 C 
ENDBRANCH  24  27
ENDBRANCH  22  24
ENDBRANCH  21  22
ENDBRANCH   3  21
TORSDOF 4
ENDMDL
MODEL 6
REMARK VINA RESULT:     -10.4      3.149      5.131
REMARK  Name = 11282283
REMARK  4 active torsions:
REMARK  status: ('A' for Active; 'I' for Inactive)
REMARK    1  A    between atoms: N_3  and  C_21
REMARK    2  A    between atoms: C_21  and  N_22
REMARK    3  A    between atoms: N_22  and  C_24
REMARK    4  A    between atoms: C_24  and  C_27
REMARK                            x       y       z     vdW  Elec       q    Type
REMARK                         _______ _______ _______ _____ _____    ______ ____
ROOT
ATOM      1  O   UNL     1      33.543 -15.069 -21.456  0.00  0.00    -0.466 OA
ATOM      2  N   UNL     1      34.810 -17.525 -22.466  0.00  0.00    -0.290 N 
ATOM      3  N   UNL     1      35.403 -19.811 -20.821  0.00  0.00    -0.288 N 
ATOM      4  N   UNL     1      34.826 -16.413 -24.581  0.00  0.00    -0.230 NA
ATOM      5  N   UNL     1      33.933 -14.156 -24.857  0.00  0.00    -0.245 NA
ATOM      6  C   UNL     1      34.813 -18.877 -23.034  0.00  0.00    +0.113 C 
ATOM      7  C   UNL     1      35.116 -17.364 -21.040  0.00  0.00    +0.113 C 
ATOM      8  C   UNL     1      34.501 -19.915 -21.958  0.00  0.00    +0.114 C 
ATOM      9  C   UNL     1      35.994 -18.511 -20.544  0.00  0.00    +0.114 C 
ATOM     10  C   UNL     1      34.526 -16.417 -23.263  0.00  0.00    +0.152 C 
ATOM     11  C   UNL     1      33.929 -15.290 -22.739  0.00  0.00    +0.258 C 
ATOM     12  C   UNL     1      33.644 -14.188 -23.533  0.00  0.00    +0.106 C 
ATOM     13  C   UNL     1      33.042 -13.226 -22.682  0.00  0.00    +0.051 C 
ATOM     14  C   UNL     1      33.003 -13.815 -21.419  0.00  0.00    +0.141 C 
ATOM     15  C   UNL     1      34.515 -15.298 -25.287  0.00  0.00    +0.251 C 
ATOM     16  C   UNL     1      32.528 -11.927 -22.833  0.00  0.00    +0.004 C 
ATOM     17  C   UNL     1      32.481 -13.193 -20.286  0.00  0.00    +0.037 C 
ATOM     18  C   UNL     1      31.996 -11.278 -21.710  0.00  0.00    +0.000 C 
ATOM     19  C   UNL     1      31.975 -11.902 -20.460  0.00  0.00    +0.003 C 
ENDROOT
BRANCH   3  21
ATOM     20  S   UNL     1      37.179 -21.067 -19.318  0.00  0.00    -0.019 S 
ATOM     21  C   UNL     1      35.683 -20.890 -20.047  0.00  0.00    +0.135 C 
BRANCH  21  22
ATOM     22  N   UNL     1      34.697 -21.829 -19.881  0.00  0.00    -0.312 N 
ATOM     23  H   UNL     1      34.836 -22.704 -20.310  0.00  0.00    +0.149 HD
BRANCH  22  24
ATOM     24  C   UNL     1      33.469 -21.653 -19.131  0.00  0.00    +0.116 C 
BRANCH  24  27
ATOM     25  O   UNL     1      35.802 -23.851 -15.376  0.00  0.00    -0.435 OA
ATOM     26  O   UNL     1      33.740 -24.350 -14.235  0.00  0.00    -0.435 OA
ATOM     27  C   UNL     1      33.505 -22.375 -17.816  0.00  0.00    +0.001 C 
ATOM     28  C   UNL     1      34.731 -22.747 -17.272  0.00  0.00    +0.038 C 
ATOM     29  C   UNL     1      32.301 -22.662 -17.158  0.00  0.00    +0.001 C 
ATOM     30  C   UNL     1      34.713 -23.408 -16.061  0.00  0.00    +0.176 C 
ATOM     31  C   UNL     1      33.535 -23.693 -15.409  0.00  0.00    +0.176 C 
ATOM     32  C   UNL     1      32.310 -23.332 -15.933  0.00  0.00    +0.040 C 
ATOM     33  C   UNL     1      35.178 -24.446 -14.220  0.00  0.00    +0.429 C 
ENDBRANCH  24  27
ENDBRANCH  22  24
ENDBRANCH  21  22
ENDBRANCH   3  21
TORSDOF 4
ENDMDL
MODEL 7
REMARK VINA RESULT:     -10.1      8.151     13.815
REMARK  Name = 11282283
REMARK  4 active torsions:
REMARK  status: ('A' for Active; 'I' for Inactive)
REMARK    1  A    between atoms: N_3  and  C_21
REMARK    2  A    between atoms: C_21  and  N_22
REMARK    3  A    between atoms: N_22  and  C_24
REMARK    4  A    between atoms: C_24  and  C_27
REMARK                            x       y       z     vdW  Elec       q    Type
REMARK                         _______ _______ _______ _____ _____    ______ ____
ROOT
ATOM      1  O   UNL     1      37.110 -24.753 -14.309  0.00  0.00    -0.466 OA
ATOM      2  N   UNL     1      34.381 -23.919 -13.592  0.00  0.00    -0.290 N 
ATOM      3  N   UNL     1      32.383 -23.157 -15.519  0.00  0.00    -0.288 N 
ATOM      4  N   UNL     1      35.076 -24.277 -11.333  0.00  0.00    -0.230 NA
ATOM      5  N   UNL     1      37.330 -25.038 -10.784  0.00  0.00    -0.245 NA
ATOM      6  C   UNL     1      32.956 -24.139 -13.323  0.00  0.00    +0.113 C 
ATOM      7  C   UNL     1      34.765 -23.302 -14.866  0.00  0.00    +0.113 C 
ATOM      8  C   UNL     1      32.177 -24.289 -14.628  0.00  0.00    +0.114 C 
ATOM      9  C   UNL     1      33.636 -22.425 -15.404  0.00  0.00    +0.114 C 
ATOM     10  C   UNL     1      35.348 -24.285 -12.657  0.00  0.00    +0.152 C 
ATOM     11  C   UNL     1      36.614 -24.670 -13.048  0.00  0.00    +0.258 C 
ATOM     12  C   UNL     1      37.576 -25.036 -12.118  0.00  0.00    +0.106 C 
ATOM     13  C   UNL     1      38.742 -25.367 -12.856  0.00  0.00    +0.051 C 
ATOM     14  C   UNL     1      38.403 -25.177 -14.195  0.00  0.00    +0.141 C 
ATOM     15  C   UNL     1      36.069 -24.649 -10.491  0.00  0.00    +0.251 C 
ATOM     16  C   UNL     1      40.041 -25.804 -12.547  0.00  0.00    +0.004 C 
ATOM     17  C   UNL     1      39.279 -25.395 -15.257  0.00  0.00    +0.037 C 
ATOM     18  C   UNL     1      40.943 -26.031 -13.596  0.00  0.00    +0.000 C 
ATOM     19  C   UNL     1      40.566 -25.829 -14.926  0.00  0.00    +0.003 C 
ENDROOT
BRANCH   3  21
ATOM     20  S   UNL     1      29.814 -22.808 -16.034  0.00  0.00    -0.019 S 
ATOM     21  C   UNL     1      31.440 -22.798 -16.426  0.00  0.00    +0.135 C 
BRANCH  21  22
ATOM     22  N   UNL     1      31.867 -22.423 -17.675  0.00  0.00    -0.312 N 
ATOM     23  H   UNL     1      31.296 -21.795 -18.173  0.00  0.00    +0.149 HD
BRANCH  22  24
ATOM     24  C   UNL     1      33.083 -22.867 -18.329  0.00  0.00    +0.116 C 
BRANCH  24  27
ATOM     25  O   UNL     1      36.927 -20.271 -20.021  0.00  0.00    -0.435 OA
ATOM     26  O   UNL     1      35.523 -18.847 -21.365  0.00  0.00    -0.435 OA
ATOM     27  C   UNL     1      33.705 -21.779 -19.156  0.00  0.00    +0.001 C 
ATOM     28  C   UNL     1      35.085 -21.607 -19.135  0.00  0.00    +0.038 C 
ATOM     29  C   UNL     1      32.881 -20.954 -19.935  0.00  0.00    +0.001 C 
ATOM     30  C   UNL     1      35.610 -20.594 -19.912  0.00  0.00    +0.176 C 
ATOM     31  C   UNL     1      34.808 -19.780 -20.679  0.00  0.00    +0.176 C 
ATOM     32  C   UNL     1      33.437 -19.936 -20.712  0.00  0.00    +0.040 C 
ATOM     33  C   UNL     1      36.865 -19.165 -20.944  0.00  0.00    +0.429 C 
ENDBRANCH  24  27
ENDBRANCH  22  24
ENDBRANCH  21  22
ENDBRANCH   3  21
TORSDOF 4
ENDMDL
MODEL 8
REMARK VINA RESULT:     -10.0      2.228      3.601
REMARK  Name = 11282283
REMARK  4 active torsions:
REMARK  status: ('A' for Active; 'I' for Inactive)
REMARK    1  A    between atoms: N_3  and  C_21
REMARK    2  A    between atoms: C_21  and  N_22
REMARK    3  A    between atoms: N_22  and  C_24
REMARK    4  A    between atoms: C_24  and  C_27
REMARK                            x       y       z     vdW  Elec       q    Type
REMARK                         _______ _______ _______ _____ _____    ______ ____
ROOT
ATOM      1  O   UNL     1      32.880 -13.375 -21.560  0.00  0.00    -0.466 OA
ATOM      2  N   UNL     1      34.414 -14.973 -23.496  0.00  0.00    -0.290 N 
ATOM      3  N   UNL     1      34.914 -17.793 -23.202  0.00  0.00    -0.288 N 
ATOM      4  N   UNL     1      34.648 -12.925 -24.705  0.00  0.00    -0.230 NA
ATOM      5  N   UNL     1      33.669 -10.837 -23.903  0.00  0.00    -0.245 NA
ATOM      6  C   UNL     1      34.573 -15.834 -24.673  0.00  0.00    +0.113 C 
ATOM      7  C   UNL     1      34.515 -15.583 -22.166  0.00  0.00    +0.113 C 
ATOM      8  C   UNL     1      34.180 -17.274 -24.346  0.00  0.00    +0.114 C 
ATOM      9  C   UNL     1      35.385 -16.838 -22.211  0.00  0.00    +0.114 C 
ATOM     10  C   UNL     1      34.175 -13.608 -23.639  0.00  0.00    +0.152 C 
ATOM     11  C   UNL     1      33.447 -12.905 -22.701  0.00  0.00    +0.258 C 
ATOM     12  C   UNL     1      33.207 -11.546 -22.844  0.00  0.00    +0.106 C 
ATOM     13  C   UNL     1      32.441 -11.154 -21.716  0.00  0.00    +0.051 C 
ATOM     14  C   UNL     1      32.267 -12.313 -20.960  0.00  0.00    +0.141 C 
ATOM     15  C   UNL     1      34.370 -11.601 -24.771  0.00  0.00    +0.251 C 
ATOM     16  C   UNL     1      31.876  -9.955 -21.248  0.00  0.00    +0.004 C 
ATOM     17  C   UNL     1      31.562 -12.359 -19.758  0.00  0.00    +0.037 C 
ATOM     18  C   UNL     1      31.161  -9.973 -20.042  0.00  0.00    +0.000 C 
ATOM     19  C   UNL     1      31.009 -11.155 -19.312  0.00  0.00    +0.003 C 
ENDROOT
BRANCH   3  21
ATOM     20  S   UNL     1      35.406 -20.098 -24.401  0.00  0.00    -0.019 S 
ATOM     21  C   UNL     1      35.151 -19.122 -23.065  0.00  0.00    +0.135 C 
BRANCH  21  22
ATOM     22  N   UNL     1      35.177 -19.637 -21.794  0.00  0.00    -0.312 N 
ATOM     23  H   UNL     1      36.053 -19.681 -21.347  0.00  0.00    +0.149 HD
BRANCH  22  24
ATOM     24  C   UNL     1      34.033 -20.122 -21.047  0.00  0.00    +0.116 C 
BRANCH  24  27
ATOM     25  O   UNL     1      33.102 -22.984 -17.133  0.00  0.00    -0.435 OA
ATOM     26  O   UNL     1      35.437 -23.175 -16.572  0.00  0.00    -0.435 OA
ATOM     27  C   UNL     1      34.444 -20.934 -19.853  0.00  0.00    +0.001 C 
ATOM     28  C   UNL     1      33.471 -21.565 -19.086  0.00  0.00    +0.038 C 
ATOM     29  C   UNL     1      35.805 -21.040 -19.533  0.00  0.00    +0.001 C 
ATOM     30  C   UNL     1      33.898 -22.300 -17.999  0.00  0.00    +0.176 C 
ATOM     31  C   UNL     1      35.232 -22.410 -17.678  0.00  0.00    +0.176 C 
ATOM     32  C   UNL     1      36.212 -21.790 -18.427  0.00  0.00    +0.040 C 
ATOM     33  C   UNL     1      34.083 -23.537 -16.233  0.00  0.00    +0.429 C 
ENDBRANCH  24  27
ENDBRANCH  22  24
ENDBRANCH  21  22
ENDBRANCH   3  21
TORSDOF 4
ENDMDL
MODEL 9
REMARK VINA RESULT:     -10.0      3.553      5.781
REMARK  Name = 11282283
REMARK  4 active torsions:
REMARK  status: ('A' for Active; 'I' for Inactive)
REMARK    1  A    between atoms: N_3  and  C_21
REMARK    2  A    between atoms: C_21  and  N_22
REMARK    3  A    between atoms: N_22  and  C_24
REMARK    4  A    between atoms: C_24  and  C_27
REMARK                            x       y       z     vdW  Elec       q    Type
REMARK                         _______ _______ _______ _____ _____    ______ ____
ROOT
ATOM      1  O   UNL     1      33.760 -15.461 -21.368  0.00  0.00    -0.466 OA
ATOM      2  N   UNL     1      35.003 -17.977 -22.252  0.00  0.00    -0.290 N 
ATOM      3  N   UNL     1      35.542 -20.196 -20.500  0.00  0.00    -0.288 N 
ATOM      4  N   UNL     1      35.061 -16.960 -24.414  0.00  0.00    -0.230 NA
ATOM      5  N   UNL     1      34.205 -14.705 -24.801  0.00  0.00    -0.245 NA
ATOM      6  C   UNL     1      34.993 -19.353 -22.759  0.00  0.00    +0.113 C 
ATOM      7  C   UNL     1      35.293 -17.758 -20.831  0.00  0.00    +0.113 C 
ATOM      8  C   UNL     1      34.652 -20.338 -21.643  0.00  0.00    +0.114 C 
ATOM      9  C   UNL     1      36.148 -18.893 -20.273  0.00  0.00    +0.114 C 
ATOM     10  C   UNL     1      34.745 -16.902 -23.101  0.00  0.00    +0.152 C 
ATOM     11  C   UNL     1      34.158 -15.744 -22.635  0.00  0.00    +0.258 C 
ATOM     12  C   UNL     1      33.900 -14.674 -23.480  0.00  0.00    +0.106 C 
ATOM     13  C   UNL     1      33.302 -13.667 -22.681  0.00  0.00    +0.051 C 
ATOM     14  C   UNL     1      33.238 -14.199 -21.393  0.00  0.00    +0.141 C 
ATOM     15  C   UNL     1      34.776 -15.874 -25.172  0.00  0.00    +0.251 C 
ATOM     16  C   UNL     1      32.808 -12.369 -22.895  0.00  0.00    +0.004 C 
ATOM     17  C   UNL     1      32.711 -13.520 -20.296  0.00  0.00    +0.037 C 
ATOM     18  C   UNL     1      32.273 -11.663 -21.809  0.00  0.00    +0.000 C 
ATOM     19  C   UNL     1      32.227 -12.230 -20.534  0.00  0.00    +0.003 C 
ENDROOT
BRANCH   3  21
ATOM     20  S   UNL     1      34.701 -22.497 -19.505  0.00  0.00    -0.019 S 
ATOM     21  C   UNL     1      35.796 -21.243 -19.676  0.00  0.00    +0.135 C 
BRANCH  21  22
ATOM     22  N   UNL     1      36.984 -21.240 -18.989  0.00  0.00    -0.312 N 
ATOM     23  H   UNL     1      37.783 -21.544 -19.477  0.00  0.00    +0.149 HD
BRANCH  22  24
ATOM     24  C   UNL     1      37.172 -20.829 -17.611  0.00  0.00    +0.116 C 
BRANCH  24  27
ATOM     25  O   UNL     1      39.071 -24.291 -14.647  0.00  0.00    -0.435 OA
ATOM     26  O   UNL     1      36.896 -25.145 -14.058  0.00  0.00    -0.435 OA
ATOM     27  C   UNL     1      37.062 -21.986 -16.660  0.00  0.00    +0.001 C 
ATOM     28  C   UNL     1      38.218 -22.550 -16.131  0.00  0.00    +0.038 C 
ATOM     29  C   UNL     1      35.793 -22.477 -16.323  0.00  0.00    +0.001 C 
ATOM     30  C   UNL     1      38.066 -23.610 -15.262  0.00  0.00    +0.176 C 
ATOM     31  C   UNL     1      36.823 -24.098 -14.925  0.00  0.00    +0.176 C 
ATOM     32  C   UNL     1      35.665 -23.552 -15.440  0.00  0.00    +0.040 C 
ATOM     33  C   UNL     1      38.323 -25.260 -13.885  0.00  0.00    +0.429 C 
ENDBRANCH  24  27
ENDBRANCH  22  24
ENDBRANCH  21  22
ENDBRANCH   3  21
TORSDOF 4
ENDMDL
