MODEL 1
REMARK VINA RESULT:     -11.0      0.000      0.000
REMARK  Name = 66645351
REMARK  11 active torsions:
REMARK  status: ('A' for Active; 'I' for Inactive)
REMARK    1  A    between atoms: C_2  and  C_4
REMARK    2  A    between atoms: C_2  and  C_18
REMARK    3  A    between atoms: C_3  and  C_5
REMARK    4  A    between atoms: C_6  and  O_11
REMARK    5  A    between atoms: C_8  and  O_13
REMARK    6  A    between atoms: O_13  and  S_14
REMARK    7  A    between atoms: C_18  and  C_20
REMARK    8  A    between atoms: C_20  and  C_22
REMARK    9  A    between atoms: C_21  and  C_23
REMARK   10  A    between atoms: C_25  and  O_29
REMARK   11  A    between atoms: C_27  and  O_31
REMARK                            x       y       z     vdW  Elec       q    Type
REMARK                         _______ _______ _______ _____ _____    ______ ____
ROOT
ATOM      1  O   UNL     1      32.712 -20.938 -19.364  0.00  0.00    -0.291 OA
ATOM      2  C   UNL     1      33.731 -21.601 -19.188  0.00  0.00    +0.181 C 
ENDROOT
BRANCH   2   4
ATOM      3  C   UNL     1      35.106 -22.418 -17.320  0.00  0.00    +0.003 C 
ATOM      4  C   UNL     1      33.929 -22.425 -17.958  0.00  0.00    +0.038 C 
BRANCH   3   5
ATOM      5  C   UNL     1      35.400 -23.188 -16.097  0.00  0.00    +0.003 C 
ATOM      6  C   UNL     1      36.986 -23.981 -14.455  0.00  0.00    +0.175 C 
ATOM      7  C   UNL     1      36.706 -23.253 -15.612  0.00  0.00    +0.040 C 
ATOM      8  C   UNL     1      35.958 -24.644 -13.783  0.00  0.00    +0.209 C 
ATOM      9  C   UNL     1      34.372 -23.850 -15.425  0.00  0.00    +0.003 C 
ATOM     10  C   UNL     1      34.651 -24.578 -14.269  0.00  0.00    +0.043 C 
BRANCH   6  11
ATOM     11  O   UNL     1      38.265 -24.037 -13.990  0.00  0.00    -0.468 OA
ATOM     12  C   UNL     1      39.087 -25.094 -14.481  0.00  0.00    +0.253 C 
ENDBRANCH   6  11
BRANCH   8  13
ATOM     13  O   UNL     1      36.217 -25.358 -12.653  0.00  0.00    -0.319 OA
BRANCH  13  14
ATOM     14  S   UNL     1      36.269 -24.572 -11.210  0.00  0.00    +0.282 S 
ATOM     15  O   UNL     1      37.816 -24.753 -10.722  0.00  0.00    -0.012 OA
ATOM     16  O   UNL     1      36.036 -23.157 -11.435  0.00  0.00    -0.105 OA
ATOM     17  O   UNL     1      35.432 -25.305 -10.278  0.00  0.00    -0.105 OA
ENDBRANCH  13  14
ENDBRANCH   8  13
ENDBRANCH   3   5
ENDBRANCH   2   4
BRANCH   2  18
ATOM     18  C   UNL     1      34.882 -21.602 -20.173  0.00  0.00    +0.138 C 
BRANCH  18  20
ATOM     19  O   UNL     1      36.697 -20.078 -19.734  0.00  0.00    -0.291 OA
ATOM     20  C   UNL     1      35.629 -20.290 -20.303  0.00  0.00    +0.181 C 
BRANCH  20  22
ATOM     21  C   UNL     1      35.655 -18.185 -21.577  0.00  0.00    +0.003 C 
ATOM     22  C   UNL     1      34.963 -19.245 -21.135  0.00  0.00    +0.038 C 
BRANCH  21  23
ATOM     23  C   UNL     1      35.091 -17.098 -22.396  0.00  0.00    +0.003 C 
ATOM     24  C   UNL     1      34.521 -15.984 -21.780  0.00  0.00    +0.040 C 
ATOM     25  C   UNL     1      33.986 -14.955 -22.554  0.00  0.00    +0.172 C 
ATOM     26  C   UNL     1      35.125 -17.183 -23.788  0.00  0.00    +0.003 C 
ATOM     27  C   UNL     1      34.021 -15.040 -23.946  0.00  0.00    +0.168 C 
ATOM     28  C   UNL     1      34.590 -16.154 -24.563  0.00  0.00    +0.040 C 
BRANCH  25  29
ATOM     29  O   UNL     1      33.433 -13.871 -21.941  0.00  0.00    -0.468 OA
ATOM     30  C   UNL     1      32.590 -14.124 -20.818  0.00  0.00    +0.253 C 
ENDBRANCH  25  29
BRANCH  27  31
ATOM     31  O   UNL     1      33.502 -14.042 -24.715  0.00  0.00    -0.503 OA
ATOM     32  H   UNL     1      32.927 -13.407 -24.333  0.00  0.00    +0.292 HD
ENDBRANCH  27  31
ENDBRANCH  21  23
ENDBRANCH  20  22
ENDBRANCH  18  20
ENDBRANCH   2  18
TORSDOF 11
ENDMDL
MODEL 2
REMARK VINA RESULT:     -10.8      1.295      2.321
REMARK  Name = 66645351
REMARK  11 active torsions:
REMARK  status: ('A' for Active; 'I' for Inactive)
REMARK    1  A    between atoms: C_2  and  C_4
REMARK    2  A    between atoms: C_2  and  C_18
REMARK    3  A    between atoms: C_3  and  C_5
REMARK    4  A    between atoms: C_6  and  O_11
REMARK    5  A    between atoms: C_8  and  O_13
REMARK    6  A    between atoms: O_13  and  S_14
REMARK    7  A    between atoms: C_18  and  C_20
REMARK    8  A    between atoms: C_20  and  C_22
REMARK    9  A    between atoms: C_21  and  C_23
REMARK   10  A    between atoms: C_25  and  O_29
REMARK   11  A    between atoms: C_27  and  O_31
REMARK                            x       y       z     vdW  Elec       q    Type
REMARK                         _______ _______ _______ _____ _____    ______ ____
ROOT
ATOM      1  O   UNL     1      32.694 -21.401 -19.724  0.00  0.00    -0.291 OA
ATOM      2  C   UNL     1      33.638 -21.979 -19.192  0.00  0.00    +0.181 C 
ENDROOT
BRANCH   2   4
ATOM      3  C   UNL     1      34.603 -22.751 -17.064  0.00  0.00    +0.003 C 
ATOM      4  C   UNL     1      33.519 -22.593 -17.836  0.00  0.00    +0.038 C 
BRANCH   3   5
ATOM      5  C   UNL     1      34.590 -23.336 -15.711  0.00  0.00    +0.003 C 
ATOM      6  C   UNL     1      33.411 -23.851 -13.666  0.00  0.00    +0.175 C 
ATOM      7  C   UNL     1      33.425 -23.298 -14.947  0.00  0.00    +0.040 C 
ATOM      8  C   UNL     1      34.565 -24.443 -13.151  0.00  0.00    +0.209 C 
ATOM      9  C   UNL     1      35.744 -23.928 -15.196  0.00  0.00    +0.003 C 
ATOM     10  C   UNL     1      35.731 -24.481 -13.916  0.00  0.00    +0.043 C 
BRANCH   6  11
ATOM     11  O   UNL     1      32.266 -23.809 -12.929  0.00  0.00    -0.468 OA
ATOM     12  C   UNL     1      31.086 -23.358 -13.590  0.00  0.00    +0.253 C 
ENDBRANCH   6  11
BRANCH   8  13
ATOM     13  O   UNL     1      34.565 -24.987 -11.902  0.00  0.00    -0.319 OA
BRANCH  13  14
ATOM     14  S   UNL     1      35.907 -24.827 -10.966  0.00  0.00    +0.282 S 
ATOM     15  O   UNL     1      35.349 -25.025  -9.445  0.00  0.00    -0.012 OA
ATOM     16  O   UNL     1      36.816 -25.923 -11.253  0.00  0.00    -0.105 OA
ATOM     17  O   UNL     1      36.367 -23.456 -11.084  0.00  0.00    -0.105 OA
ENDBRANCH  13  14
ENDBRANCH   8  13
ENDBRANCH   3   5
ENDBRANCH   2   4
BRANCH   2  18
ATOM     18  C   UNL     1      35.005 -22.076 -19.840  0.00  0.00    +0.138 C 
BRANCH  18  20
ATOM     19  O   UNL     1      36.740 -20.503 -19.274  0.00  0.00    -0.291 OA
ATOM     20  C   UNL     1      35.761 -20.768 -19.965  0.00  0.00    +0.181 C 
BRANCH  20  22
ATOM     21  C   UNL     1      35.711 -18.554 -21.035  0.00  0.00    +0.003 C 
ATOM     22  C   UNL     1      35.212 -19.796 -20.957  0.00  0.00    +0.038 C 
BRANCH  21  23
ATOM     23  C   UNL     1      35.236 -17.519 -21.971  0.00  0.00    +0.003 C 
ATOM     24  C   UNL     1      34.768 -16.299 -21.483  0.00  0.00    +0.040 C 
ATOM     25  C   UNL     1      34.319 -15.319 -22.367  0.00  0.00    +0.172 C 
ATOM     26  C   UNL     1      35.253 -17.759 -23.345  0.00  0.00    +0.003 C 
ATOM     27  C   UNL     1      34.336 -15.560 -23.742  0.00  0.00    +0.168 C 
ATOM     28  C   UNL     1      34.803 -16.780 -24.230  0.00  0.00    +0.040 C 
BRANCH  25  29
ATOM     29  O   UNL     1      33.865 -14.131 -21.879  0.00  0.00    -0.468 OA
ATOM     30  C   UNL     1      32.698 -14.172 -21.060  0.00  0.00    +0.253 C 
ENDBRANCH  25  29
BRANCH  27  31
ATOM     31  O   UNL     1      33.900 -14.611 -24.617  0.00  0.00    -0.503 OA
ATOM     32  H   UNL     1      33.795 -14.824 -25.524  0.00  0.00    +0.292 HD
ENDBRANCH  27  31
ENDBRANCH  21  23
ENDBRANCH  20  22
ENDBRANCH  18  20
ENDBRANCH   2  18
TORSDOF 11
ENDMDL
MODEL 3
REMARK VINA RESULT:     -10.6      1.205      2.065
REMARK  Name = 66645351
REMARK  11 active torsions:
REMARK  status: ('A' for Active; 'I' for Inactive)
REMARK    1  A    between atoms: C_2  and  C_4
REMARK    2  A    between atoms: C_2  and  C_18
REMARK    3  A    between atoms: C_3  and  C_5
REMARK    4  A    between atoms: C_6  and  O_11
REMARK    5  A    between atoms: C_8  and  O_13
REMARK    6  A    between atoms: O_13  and  S_14
REMARK    7  A    between atoms: C_18  and  C_20
REMARK    8  A    between atoms: C_20  and  C_22
REMARK    9  A    between atoms: C_21  and  C_23
REMARK   10  A    between atoms: C_25  and  O_29
REMARK   11  A    between atoms: C_27  and  O_31
REMARK                            x       y       z     vdW  Elec       q    Type
REMARK                         _______ _______ _______ _____ _____    ______ ____
ROOT
ATOM      1  O   UNL     1      34.035 -20.397 -20.149  0.00  0.00    -0.291 OA
ATOM      2  C   UNL     1      35.110 -20.921 -19.868  0.00  0.00    +0.181 C 
ENDROOT
BRANCH   2   4
ATOM      3  C   UNL     1      36.323 -21.675 -17.865  0.00  0.00    +0.003 C 
ATOM      4  C   UNL     1      35.264 -21.805 -18.675  0.00  0.00    +0.038 C 
BRANCH   3   5
ATOM      5  C   UNL     1      36.563 -22.491 -16.660  0.00  0.00    +0.003 C 
ATOM      6  C   UNL     1      35.734 -23.961 -14.931  0.00  0.00    +0.175 C 
ATOM      7  C   UNL     1      35.509 -23.189 -16.072  0.00  0.00    +0.040 C 
ATOM      8  C   UNL     1      37.015 -24.034 -14.380  0.00  0.00    +0.209 C 
ATOM      9  C   UNL     1      37.843 -22.564 -16.110  0.00  0.00    +0.003 C 
ATOM     10  C   UNL     1      38.068 -23.335 -14.970  0.00  0.00    +0.043 C 
BRANCH   6  11
ATOM     11  O   UNL     1      34.698 -24.639 -14.365  0.00  0.00    -0.468 OA
ATOM     12  C   UNL     1      33.647 -23.860 -13.797  0.00  0.00    +0.253 C 
ENDBRANCH   6  11
BRANCH   8  13
ATOM     13  O   UNL     1      37.248 -24.784 -13.267  0.00  0.00    -0.319 OA
BRANCH  13  14
ATOM     14  S   UNL     1      37.370 -24.029 -11.812  0.00  0.00    +0.282 S 
ATOM     15  O   UNL     1      36.668 -25.073 -10.771  0.00  0.00    -0.012 OA
ATOM     16  O   UNL     1      38.772 -23.917 -11.454  0.00  0.00    -0.105 OA
ATOM     17  O   UNL     1      36.537 -22.841 -11.861  0.00  0.00    -0.105 OA
ENDBRANCH  13  14
ENDBRANCH   8  13
ENDBRANCH   3   5
ENDBRANCH   2   4
BRANCH   2  18
ATOM     18  C   UNL     1      36.370 -20.680 -20.674  0.00  0.00    +0.138 C 
BRANCH  18  20
ATOM     19  O   UNL     1      37.590 -18.768 -19.856  0.00  0.00    -0.291 OA
ATOM     20  C   UNL     1      36.852 -19.243 -20.715  0.00  0.00    +0.181 C 
BRANCH  20  22
ATOM     21  C   UNL     1      35.485 -17.407 -21.619  0.00  0.00    +0.003 C 
ATOM     22  C   UNL     1      36.334 -18.419 -21.848  0.00  0.00    +0.038 C 
BRANCH  21  23
ATOM     23  C   UNL     1      34.913 -16.541 -22.664  0.00  0.00    +0.003 C 
ATOM     24  C   UNL     1      34.257 -15.361 -22.311  0.00  0.00    +0.040 C 
ATOM     25  C   UNL     1      33.714 -14.541 -23.300  0.00  0.00    +0.172 C 
ATOM     26  C   UNL     1      35.025 -16.901 -24.008  0.00  0.00    +0.003 C 
ATOM     27  C   UNL     1      33.827 -14.902 -24.643  0.00  0.00    +0.168 C 
ATOM     28  C   UNL     1      34.481 -16.081 -24.997  0.00  0.00    +0.040 C 
BRANCH  25  29
ATOM     29  O   UNL     1      33.077 -13.391 -22.943  0.00  0.00    -0.468 OA
ATOM     30  C   UNL     1      32.431 -13.378 -21.671  0.00  0.00    +0.253 C 
ENDBRANCH  25  29
BRANCH  27  31
ATOM     31  O   UNL     1      33.301 -14.109 -25.619  0.00  0.00    -0.503 OA
ATOM     32  H   UNL     1      32.475 -13.687 -25.485  0.00  0.00    +0.292 HD
ENDBRANCH  27  31
ENDBRANCH  21  23
ENDBRANCH  20  22
ENDBRANCH  18  20
ENDBRANCH   2  18
TORSDOF 11
ENDMDL
MODEL 4
REMARK VINA RESULT:     -10.6      1.811      3.190
REMARK  Name = 66645351
REMARK  11 active torsions:
REMARK  status: ('A' for Active; 'I' for Inactive)
REMARK    1  A    between atoms: C_2  and  C_4
REMARK    2  A    between atoms: C_2  and  C_18
REMARK    3  A    between atoms: C_3  and  C_5
REMARK    4  A    between atoms: C_6  and  O_11
REMARK    5  A    between atoms: C_8  and  O_13
REMARK    6  A    between atoms: O_13  and  S_14
REMARK    7  A    between atoms: C_18  and  C_20
REMARK    8  A    between atoms: C_20  and  C_22
REMARK    9  A    between atoms: C_21  and  C_23
REMARK   10  A    between atoms: C_25  and  O_29
REMARK   11  A    between atoms: C_27  and  O_31
REMARK                            x       y       z     vdW  Elec       q    Type
REMARK                         _______ _______ _______ _____ _____    ______ ____
ROOT
ATOM      1  O   UNL     1      33.769 -20.439 -20.401  0.00  0.00    -0.291 OA
ATOM      2  C   UNL     1      34.992 -20.520 -20.473  0.00  0.00    +0.181 C 
ENDROOT
BRANCH   2   4
ATOM      3  C   UNL     1      35.247 -21.757 -18.361  0.00  0.00    +0.003 C 
ATOM      4  C   UNL     1      35.813 -21.030 -19.334  0.00  0.00    +0.038 C 
BRANCH   3   5
ATOM      5  C   UNL     1      35.969 -22.312 -17.202  0.00  0.00    +0.003 C 
ATOM      6  C   UNL     1      35.958 -23.559 -15.133  0.00  0.00    +0.175 C 
ATOM      7  C   UNL     1      35.276 -23.033 -16.230  0.00  0.00    +0.040 C 
ATOM      8  C   UNL     1      37.334 -23.364 -15.008  0.00  0.00    +0.209 C 
ATOM      9  C   UNL     1      37.344 -22.117 -17.078  0.00  0.00    +0.003 C 
ATOM     10  C   UNL     1      38.027 -22.643 -15.981  0.00  0.00    +0.043 C 
BRANCH   6  11
ATOM     11  O   UNL     1      35.271 -24.262 -14.190  0.00  0.00    -0.468 OA
ATOM     12  C   UNL     1      33.847 -24.250 -14.282  0.00  0.00    +0.253 C 
ENDBRANCH   6  11
BRANCH   8  13
ATOM     13  O   UNL     1      38.012 -23.872 -13.941  0.00  0.00    -0.319 OA
BRANCH  13  14
ATOM     14  S   UNL     1      38.880 -25.253 -14.136  0.00  0.00    +0.282 S 
ATOM     15  O   UNL     1      38.976 -25.871 -12.628  0.00  0.00    -0.012 OA
ATOM     16  O   UNL     1      38.116 -26.181 -14.950  0.00  0.00    -0.105 OA
ATOM     17  O   UNL     1      40.224 -24.877 -14.536  0.00  0.00    -0.105 OA
ENDBRANCH  13  14
ENDBRANCH   8  13
ENDBRANCH   3   5
ENDBRANCH   2   4
BRANCH   2  18
ATOM     18  C   UNL     1      35.769 -20.069 -21.693  0.00  0.00    +0.138 C 
BRANCH  18  20
ATOM     19  O   UNL     1      37.600 -18.593 -21.163  0.00  0.00    -0.291 OA
ATOM     20  C   UNL     1      36.448 -18.719 -21.570  0.00  0.00    +0.181 C 
BRANCH  20  22
ATOM     21  C   UNL     1      34.982 -16.832 -20.983  0.00  0.00    +0.003 C 
ATOM     22  C   UNL     1      35.611 -17.537 -21.934  0.00  0.00    +0.038 C 
BRANCH  21  23
ATOM     23  C   UNL     1      34.129 -15.658 -21.236  0.00  0.00    +0.003 C 
ATOM     24  C   UNL     1      34.088 -15.087 -22.508  0.00  0.00    +0.040 C 
ATOM     25  C   UNL     1      33.281 -13.975 -22.749  0.00  0.00    +0.172 C 
ATOM     26  C   UNL     1      33.362 -15.116 -20.204  0.00  0.00    +0.003 C 
ATOM     27  C   UNL     1      32.515 -13.434 -21.716  0.00  0.00    +0.168 C 
ATOM     28  C   UNL     1      32.556 -14.004 -20.444  0.00  0.00    +0.040 C 
BRANCH  25  29
ATOM     29  O   UNL     1      33.249 -13.427 -23.995  0.00  0.00    -0.468 OA
ATOM     30  C   UNL     1      33.240 -14.329 -25.100  0.00  0.00    +0.253 C 
ENDBRANCH  25  29
BRANCH  27  31
ATOM     31  O   UNL     1      31.722 -12.348 -21.938  0.00  0.00    -0.503 OA
ATOM     32  H   UNL     1      31.279 -11.937 -21.221  0.00  0.00    +0.292 HD
ENDBRANCH  27  31
ENDBRANCH  21  23
ENDBRANCH  20  22
ENDBRANCH  18  20
ENDBRANCH   2  18
TORSDOF 11
ENDMDL
MODEL 5
REMARK VINA RESULT:     -10.5      4.832     12.567
REMARK  Name = 66645351
REMARK  11 active torsions:
REMARK  status: ('A' for Active; 'I' for Inactive)
REMARK    1  A    between atoms: C_2  and  C_4
REMARK    2  A    between atoms: C_2  and  C_18
REMARK    3  A    between atoms: C_3  and  C_5
REMARK    4  A    between atoms: C_6  and  O_11
REMARK    5  A    between atoms: C_8  and  O_13
REMARK    6  A    between atoms: O_13  and  S_14
REMARK    7  A    between atoms: C_18  and  C_20
REMARK    8  A    between atoms: C_20  and  C_22
REMARK    9  A    between atoms: C_21  and  C_23
REMARK   10  A    between atoms: C_25  and  O_29
REMARK   11  A    between atoms: C_27  and  O_31
REMARK                            x       y       z     vdW  Elec       q    Type
REMARK                         _______ _______ _______ _____ _____    ______ ____
ROOT
ATOM      1  O   UNL     1      34.984 -16.439 -25.478  0.00  0.00    -0.291 OA
ATOM      2  C   UNL     1      34.623 -16.098 -24.355  0.00  0.00    +0.181 C 
ENDROOT
BRANCH   2   4
ATOM      3  C   UNL     1      34.243 -13.988 -23.148  0.00  0.00    +0.003 C 
ATOM      4  C   UNL     1      33.872 -14.828 -24.124  0.00  0.00    +0.038 C 
BRANCH   3   5
ATOM      5  C   UNL     1      33.576 -12.709 -22.845  0.00  0.00    +0.003 C 
ATOM      6  C   UNL     1      31.951 -11.446 -21.580  0.00  0.00    +0.175 C 
ATOM      7  C   UNL     1      32.583 -12.655 -21.868  0.00  0.00    +0.040 C 
ATOM      8  C   UNL     1      32.312 -10.289 -22.272  0.00  0.00    +0.209 C 
ATOM      9  C   UNL     1      33.937 -11.553 -23.537  0.00  0.00    +0.003 C 
ATOM     10  C   UNL     1      33.305 -10.343 -23.250  0.00  0.00    +0.043 C 
BRANCH   6  11
ATOM     11  O   UNL     1      30.983 -11.405 -20.622  0.00  0.00    -0.468 OA
ATOM     12  C   UNL     1      31.409 -11.519 -19.266  0.00  0.00    +0.253 C 
ENDBRANCH   6  11
BRANCH   8  13
ATOM     13  O   UNL     1      31.702  -9.101 -22.001  0.00  0.00    -0.319 OA
BRANCH  13  14
ATOM     14  S   UNL     1      32.515  -7.971 -21.128  0.00  0.00    +0.282 S 
ATOM     15  O   UNL     1      31.487  -6.704 -21.074  0.00  0.00    -0.012 OA
ATOM     16  O   UNL     1      32.691  -8.459 -19.772  0.00  0.00    -0.105 OA
ATOM     17  O   UNL     1      33.669  -7.559 -21.905  0.00  0.00    -0.105 OA
ENDBRANCH  13  14
ENDBRANCH   8  13
ENDBRANCH   3   5
ENDBRANCH   2   4
BRANCH   2  18
ATOM     18  C   UNL     1      34.945 -16.906 -23.114  0.00  0.00    +0.138 C 
BRANCH  18  20
ATOM     19  O   UNL     1      34.672 -18.944 -24.370  0.00  0.00    -0.291 OA
ATOM     20  C   UNL     1      34.936 -18.411 -23.297  0.00  0.00    +0.181 C 
BRANCH  20  22
ATOM     21  C   UNL     1      34.253 -19.917 -21.475  0.00  0.00    +0.003 C 
ATOM     22  C   UNL     1      35.226 -19.213 -22.071  0.00  0.00    +0.038 C 
BRANCH  21  23
ATOM     23  C   UNL     1      34.433 -20.733 -20.262  0.00  0.00    +0.003 C 
ATOM     24  C   UNL     1      35.709 -20.923 -19.732  0.00  0.00    +0.040 C 
ATOM     25  C   UNL     1      35.880 -21.696 -18.583  0.00  0.00    +0.172 C 
ATOM     26  C   UNL     1      33.327 -21.317 -19.643  0.00  0.00    +0.003 C 
ATOM     27  C   UNL     1      34.774 -22.279 -17.965  0.00  0.00    +0.168 C 
ATOM     28  C   UNL     1      33.497 -22.090 -18.495  0.00  0.00    +0.040 C 
BRANCH  25  29
ATOM     29  O   UNL     1      37.131 -21.874 -18.074  0.00  0.00    -0.468 OA
ATOM     30  C   UNL     1      37.498 -21.064 -16.959  0.00  0.00    +0.253 C 
ENDBRANCH  25  29
BRANCH  27  31
ATOM     31  O   UNL     1      34.927 -23.037 -16.842  0.00  0.00    -0.503 OA
ATOM     32  H   UNL     1      34.221 -23.574 -16.540  0.00  0.00    +0.292 HD
ENDBRANCH  27  31
ENDBRANCH  21  23
ENDBRANCH  20  22
ENDBRANCH  18  20
ENDBRANCH   2  18
TORSDOF 11
ENDMDL
MODEL 6
REMARK VINA RESULT:     -10.5      3.952     11.785
REMARK  Name = 66645351
REMARK  11 active torsions:
REMARK  status: ('A' for Active; 'I' for Inactive)
REMARK    1  A    between atoms: C_2  and  C_4
REMARK    2  A    between atoms: C_2  and  C_18
REMARK    3  A    between atoms: C_3  and  C_5
REMARK    4  A    between atoms: C_6  and  O_11
REMARK    5  A    between atoms: C_8  and  O_13
REMARK    6  A    between atoms: O_13  and  S_14
REMARK    7  A    between atoms: C_18  and  C_20
REMARK    8  A    between atoms: C_20  and  C_22
REMARK    9  A    between atoms: C_21  and  C_23
REMARK   10  A    between atoms: C_25  and  O_29
REMARK   11  A    between atoms: C_27  and  O_31
REMARK                            x       y       z     vdW  Elec       q    Type
REMARK                         _______ _______ _______ _____ _____    ______ ____
ROOT
ATOM      1  O   UNL     1      36.662 -20.899 -18.467  0.00  0.00    -0.291 OA
ATOM      2  C   UNL     1      35.985 -21.103 -19.471  0.00  0.00    +0.181 C 
ENDROOT
BRANCH   2   4
ATOM      3  C   UNL     1      35.067 -19.352 -20.935  0.00  0.00    +0.003 C 
ATOM      4  C   UNL     1      36.062 -20.208 -20.664  0.00  0.00    +0.038 C 
BRANCH   3   5
ATOM      5  C   UNL     1      35.049 -18.423 -22.080  0.00  0.00    +0.003 C 
ATOM      6  C   UNL     1      35.148 -16.170 -22.946  0.00  0.00    +0.175 C 
ATOM      7  C   UNL     1      35.165 -17.050 -21.864  0.00  0.00    +0.040 C 
ATOM      8  C   UNL     1      35.015 -16.664 -24.245  0.00  0.00    +0.209 C 
ATOM      9  C   UNL     1      34.916 -18.917 -23.378  0.00  0.00    +0.003 C 
ATOM     10  C   UNL     1      34.899 -18.037 -24.460  0.00  0.00    +0.043 C 
BRANCH   6  11
ATOM     11  O   UNL     1      35.264 -14.831 -22.724  0.00  0.00    -0.468 OA
ATOM     12  C   UNL     1      34.521 -14.289 -21.634  0.00  0.00    +0.253 C 
ENDBRANCH   6  11
BRANCH   8  13
ATOM     13  O   UNL     1      34.997 -15.815 -25.310  0.00  0.00    -0.319 OA
BRANCH  13  14
ATOM     14  S   UNL     1      33.559 -15.193 -25.806  0.00  0.00    +0.282 S 
ATOM     15  O   UNL     1      33.975 -14.126 -26.970  0.00  0.00    -0.012 OA
ATOM     16  O   UNL     1      32.777 -16.246 -26.427  0.00  0.00    -0.105 OA
ATOM     17  O   UNL     1      33.003 -14.433 -24.701  0.00  0.00    -0.105 OA
ENDBRANCH  13  14
ENDBRANCH   8  13
ENDBRANCH   3   5
ENDBRANCH   2   4
BRANCH   2  18
ATOM     18  C   UNL     1      34.992 -22.242 -19.567  0.00  0.00    +0.138 C 
BRANCH  18  20
ATOM     19  O   UNL     1      32.840 -21.161 -19.459  0.00  0.00    -0.291 OA
ATOM     20  C   UNL     1      33.626 -21.967 -18.969  0.00  0.00    +0.181 C 
BRANCH  20  22
ATOM     21  C   UNL     1      32.153 -22.489 -17.068  0.00  0.00    +0.003 C 
ATOM     22  C   UNL     1      33.309 -22.709 -17.712  0.00  0.00    +0.038 C 
BRANCH  21  23
ATOM     23  C   UNL     1      31.749 -23.161 -15.821  0.00  0.00    +0.003 C 
ATOM     24  C   UNL     1      32.650 -23.268 -14.762  0.00  0.00    +0.040 C 
ATOM     25  C   UNL     1      32.269 -23.904 -13.581  0.00  0.00    +0.172 C 
ATOM     26  C   UNL     1      30.464 -23.692 -15.699  0.00  0.00    +0.003 C 
ATOM     27  C   UNL     1      30.984 -24.434 -13.460  0.00  0.00    +0.168 C 
ATOM     28  C   UNL     1      30.082 -24.329 -14.518  0.00  0.00    +0.040 C 
BRANCH  25  29
ATOM     29  O   UNL     1      33.158 -24.002 -12.554  0.00  0.00    -0.468 OA
ATOM     30  C   UNL     1      34.499 -24.352 -12.890  0.00  0.00    +0.253 C 
ENDBRANCH  25  29
BRANCH  27  31
ATOM     31  O   UNL     1      30.598 -25.059 -12.312  0.00  0.00    -0.503 OA
ATOM     32  H   UNL     1      30.223 -24.561 -11.611  0.00  0.00    +0.292 HD
ENDBRANCH  27  31
ENDBRANCH  21  23
ENDBRANCH  20  22
ENDBRANCH  18  20
ENDBRANCH   2  18
TORSDOF 11
ENDMDL
MODEL 7
REMARK VINA RESULT:     -10.4      3.460     11.631
REMARK  Name = 66645351
REMARK  11 active torsions:
REMARK  status: ('A' for Active; 'I' for Inactive)
REMARK    1  A    between atoms: C_2  and  C_4
REMARK    2  A    between atoms: C_2  and  C_18
REMARK    3  A    between atoms: C_3  and  C_5
REMARK    4  A    between atoms: C_6  and  O_11
REMARK    5  A    between atoms: C_8  and  O_13
REMARK    6  A    between atoms: O_13  and  S_14
REMARK    7  A    between atoms: C_18  and  C_20
REMARK    8  A    between atoms: C_20  and  C_22
REMARK    9  A    between atoms: C_21  and  C_23
REMARK   10  A    between atoms: C_25  and  O_29
REMARK   11  A    between atoms: C_27  and  O_31
REMARK                            x       y       z     vdW  Elec       q    Type
REMARK                         _______ _______ _______ _____ _____    ______ ____
ROOT
ATOM      1  O   UNL     1      32.885 -21.913 -19.002  0.00  0.00    -0.291 OA
ATOM      2  C   UNL     1      33.875 -21.438 -19.553  0.00  0.00    +0.181 C 
ENDROOT
BRANCH   2   4
ATOM      3  C   UNL     1      34.900 -19.570 -20.783  0.00  0.00    +0.003 C 
ATOM      4  C   UNL     1      33.787 -20.213 -20.403  0.00  0.00    +0.038 C 
BRANCH   3   5
ATOM      5  C   UNL     1      34.922 -18.361 -21.626  0.00  0.00    +0.003 C 
ATOM      6  C   UNL     1      34.871 -15.954 -21.833  0.00  0.00    +0.175 C 
ATOM      7  C   UNL     1      34.851 -17.099 -21.036  0.00  0.00    +0.040 C 
ATOM      8  C   UNL     1      34.962 -16.072 -23.220  0.00  0.00    +0.209 C 
ATOM      9  C   UNL     1      35.013 -18.479 -23.013  0.00  0.00    +0.003 C 
ATOM     10  C   UNL     1      35.033 -17.334 -23.810  0.00  0.00    +0.043 C 
BRANCH   6  11
ATOM     11  O   UNL     1      34.802 -14.727 -21.245  0.00  0.00    -0.468 OA
ATOM     12  C   UNL     1      33.758 -14.520 -20.296  0.00  0.00    +0.253 C 
ENDBRANCH   6  11
BRANCH   8  13
ATOM     13  O   UNL     1      34.982 -14.962 -24.009  0.00  0.00    -0.319 OA
BRANCH  13  14
ATOM     14  S   UNL     1      33.562 -14.376 -24.594  0.00  0.00    +0.282 S 
ATOM     15  O   UNL     1      33.977 -12.951 -25.275  0.00  0.00    -0.012 OA
ATOM     16  O   UNL     1      33.089 -15.253 -25.650  0.00  0.00    -0.105 OA
ATOM     17  O   UNL     1      32.706 -14.082 -23.460  0.00  0.00    -0.105 OA
ENDBRANCH  13  14
ENDBRANCH   8  13
ENDBRANCH   3   5
ENDBRANCH   2   4
BRANCH   2  18
ATOM     18  C   UNL     1      35.246 -22.074 -19.456  0.00  0.00    +0.138 C 
BRANCH  18  20
ATOM     19  O   UNL     1      36.983 -21.016 -18.162  0.00  0.00    -0.291 OA
ATOM     20  C   UNL     1      36.015 -21.772 -18.184  0.00  0.00    +0.181 C 
BRANCH  20  22
ATOM     21  C   UNL     1      36.330 -22.549 -15.871  0.00  0.00    +0.003 C 
ATOM     22  C   UNL     1      35.550 -22.488 -16.960  0.00  0.00    +0.038 C 
BRANCH  21  23
ATOM     23  C   UNL     1      35.969 -23.235 -14.619  0.00  0.00    +0.003 C 
ATOM     24  C   UNL     1      34.640 -23.581 -14.371  0.00  0.00    +0.040 C 
ATOM     25  C   UNL     1      34.297 -24.230 -13.186  0.00  0.00    +0.172 C 
ATOM     26  C   UNL     1      36.954 -23.538 -13.679  0.00  0.00    +0.003 C 
ATOM     27  C   UNL     1      35.283 -24.533 -12.246  0.00  0.00    +0.168 C 
ATOM     28  C   UNL     1      36.612 -24.186 -12.493  0.00  0.00    +0.040 C 
BRANCH  25  29
ATOM     29  O   UNL     1      32.996 -24.563 -12.955  0.00  0.00    -0.468 OA
ATOM     30  C   UNL     1      32.005 -23.851 -13.692  0.00  0.00    +0.253 C 
ENDBRANCH  25  29
BRANCH  27  31
ATOM     31  O   UNL     1      34.961 -25.166 -11.084  0.00  0.00    -0.503 OA
ATOM     32  H   UNL     1      35.513 -25.849 -10.754  0.00  0.00    +0.292 HD
ENDBRANCH  27  31
ENDBRANCH  21  23
ENDBRANCH  20  22
ENDBRANCH  18  20
ENDBRANCH   2  18
TORSDOF 11
ENDMDL
MODEL 8
REMARK VINA RESULT:     -10.4      4.828     12.638
REMARK  Name = 66645351
REMARK  11 active torsions:
REMARK  status: ('A' for Active; 'I' for Inactive)
REMARK    1  A    between atoms: C_2  and  C_4
REMARK    2  A    between atoms: C_2  and  C_18
REMARK    3  A    between atoms: C_3  and  C_5
REMARK    4  A    between atoms: C_6  and  O_11
REMARK    5  A    between atoms: C_8  and  O_13
REMARK    6  A    between atoms: O_13  and  S_14
REMARK    7  A    between atoms: C_18  and  C_20
REMARK    8  A    between atoms: C_20  and  C_22
REMARK    9  A    between atoms: C_21  and  C_23
REMARK   10  A    between atoms: C_25  and  O_29
REMARK   11  A    between atoms: C_27  and  O_31
REMARK                            x       y       z     vdW  Elec       q    Type
REMARK                         _______ _______ _______ _____ _____    ______ ____
ROOT
ATOM      1  O   UNL     1      34.770 -16.314 -25.267  0.00  0.00    -0.291 OA
ATOM      2  C   UNL     1      34.584 -16.116 -24.070  0.00  0.00    +0.181 C 
ENDROOT
BRANCH   2   4
ATOM      3  C   UNL     1      34.324 -13.713 -23.610  0.00  0.00    +0.003 C 
ATOM      4  C   UNL     1      33.798 -14.945 -23.581  0.00  0.00    +0.038 C 
BRANCH   3   5
ATOM      5  C   UNL     1      33.629 -12.494 -23.160  0.00  0.00    +0.003 C 
ATOM      6  C   UNL     1      32.015 -11.417 -21.720  0.00  0.00    +0.175 C 
ATOM      7  C   UNL     1      32.675 -12.570 -22.146  0.00  0.00    +0.040 C 
ATOM      8  C   UNL     1      32.312 -10.187 -22.309  0.00  0.00    +0.209 C 
ATOM      9  C   UNL     1      33.925 -11.264 -23.749  0.00  0.00    +0.003 C 
ATOM     10  C   UNL     1      33.267 -10.111 -23.323  0.00  0.00    +0.043 C 
BRANCH   6  11
ATOM     11  O   UNL     1      31.086 -11.503 -20.728  0.00  0.00    -0.468 OA
ATOM     12  C   UNL     1      31.572 -11.561 -19.388  0.00  0.00    +0.253 C 
ENDBRANCH   6  11
BRANCH   8  13
ATOM     13  O   UNL     1      31.675  -9.053 -21.902  0.00  0.00    -0.319 OA
BRANCH  13  14
ATOM     14  S   UNL     1      32.523  -7.925 -21.060  0.00  0.00    +0.282 S 
ATOM     15  O   UNL     1      31.504  -6.652 -20.977  0.00  0.00    -0.012 OA
ATOM     16  O   UNL     1      32.741  -8.408 -19.708  0.00  0.00    -0.105 OA
ATOM     17  O   UNL     1      33.653  -7.522 -21.876  0.00  0.00    -0.105 OA
ENDBRANCH  13  14
ENDBRANCH   8  13
ENDBRANCH   3   5
ENDBRANCH   2   4
BRANCH   2  18
ATOM     18  C   UNL     1      35.171 -17.009 -22.995  0.00  0.00    +0.138 C 
BRANCH  18  20
ATOM     19  O   UNL     1      34.400 -18.959 -24.184  0.00  0.00    -0.291 OA
ATOM     20  C   UNL     1      34.922 -18.494 -23.174  0.00  0.00    +0.181 C 
BRANCH  20  22
ATOM     21  C   UNL     1      34.372 -19.972 -21.286  0.00  0.00    +0.003 C 
ATOM     22  C   UNL     1      35.311 -19.359 -22.021  0.00  0.00    +0.038 C 
BRANCH  21  23
ATOM     23  C   UNL     1      34.649 -20.839 -20.127  0.00  0.00    +0.003 C 
ATOM     24  C   UNL     1      33.624 -21.598 -19.563  0.00  0.00    +0.040 C 
ATOM     25  C   UNL     1      33.885 -22.419 -18.466  0.00  0.00    +0.172 C 
ATOM     26  C   UNL     1      35.936 -20.899 -19.593  0.00  0.00    +0.003 C 
ATOM     27  C   UNL     1      35.173 -22.478 -17.932  0.00  0.00    +0.168 C 
ATOM     28  C   UNL     1      36.198 -21.719 -18.495  0.00  0.00    +0.040 C 
BRANCH  25  29
ATOM     29  O   UNL     1      32.876 -23.156 -17.924  0.00  0.00    -0.468 OA
ATOM     30  C   UNL     1      32.204 -22.601 -16.795  0.00  0.00    +0.253 C 
ENDBRANCH  25  29
BRANCH  27  31
ATOM     31  O   UNL     1      35.442 -23.276 -16.860  0.00  0.00    -0.503 OA
ATOM     32  H   UNL     1      36.282 -23.683 -16.778  0.00  0.00    +0.292 HD
ENDBRANCH  27  31
ENDBRANCH  21  23
ENDBRANCH  20  22
ENDBRANCH  18  20
ENDBRANCH   2  18
TORSDOF 11
ENDMDL
MODEL 9
REMARK VINA RESULT:     -10.4      1.282      2.158
REMARK  Name = 66645351
REMARK  11 active torsions:
REMARK  status: ('A' for Active; 'I' for Inactive)
REMARK    1  A    between atoms: C_2  and  C_4
REMARK    2  A    between atoms: C_2  and  C_18
REMARK    3  A    between atoms: C_3  and  C_5
REMARK    4  A    between atoms: C_6  and  O_11
REMARK    5  A    between atoms: C_8  and  O_13
REMARK    6  A    between atoms: O_13  and  S_14
REMARK    7  A    between atoms: C_18  and  C_20
REMARK    8  A    between atoms: C_20  and  C_22
REMARK    9  A    between atoms: C_21  and  C_23
REMARK   10  A    between atoms: C_25  and  O_29
REMARK   11  A    between atoms: C_27  and  O_31
REMARK                            x       y       z     vdW  Elec       q    Type
REMARK                         _______ _______ _______ _____ _____    ______ ____
ROOT
ATOM      1  O   UNL     1      34.871 -20.814 -20.840  0.00  0.00    -0.291 OA
ATOM      2  C   UNL     1      35.739 -20.884 -19.973  0.00  0.00    +0.181 C 
ENDROOT
BRANCH   2   4
ATOM      3  C   UNL     1      36.428 -21.681 -17.749  0.00  0.00    +0.003 C 
ATOM      4  C   UNL     1      35.603 -21.798 -18.799  0.00  0.00    +0.038 C 
BRANCH   3   5
ATOM      5  C   UNL     1      36.372 -22.525 -16.542  0.00  0.00    +0.003 C 
ATOM      6  C   UNL     1      37.496 -23.662 -14.731  0.00  0.00    +0.175 C 
ATOM      7  C   UNL     1      37.547 -22.863 -15.873  0.00  0.00    +0.040 C 
ATOM      8  C   UNL     1      36.267 -24.123 -14.258  0.00  0.00    +0.209 C 
ATOM      9  C   UNL     1      35.143 -22.986 -16.070  0.00  0.00    +0.003 C 
ATOM     10  C   UNL     1      35.090 -23.785 -14.927  0.00  0.00    +0.043 C 
BRANCH   6  11
ATOM     11  O   UNL     1      38.651 -23.985 -14.085  0.00  0.00    -0.468 OA
ATOM     12  C   UNL     1      39.399 -25.082 -14.605  0.00  0.00    +0.253 C 
ENDBRANCH   6  11
BRANCH   8  13
ATOM     13  O   UNL     1      36.203 -24.904 -13.144  0.00  0.00    -0.319 OA
BRANCH  13  14
ATOM     14  S   UNL     1      35.720 -24.228 -11.726  0.00  0.00    +0.282 S 
ATOM     15  O   UNL     1      35.969 -25.408 -10.625  0.00  0.00    -0.012 OA
ATOM     16  O   UNL     1      36.606 -23.125 -11.403  0.00  0.00    -0.105 OA
ATOM     17  O   UNL     1      34.288 -24.007 -11.807  0.00  0.00    -0.105 OA
ENDBRANCH  13  14
ENDBRANCH   8  13
ENDBRANCH   3   5
ENDBRANCH   2   4
BRANCH   2  18
ATOM     18  C   UNL     1      36.986 -20.025 -19.996  0.00  0.00    +0.138 C 
BRANCH  18  20
ATOM     19  O   UNL     1      37.882 -18.833 -21.890  0.00  0.00    -0.291 OA
ATOM     20  C   UNL     1      37.000 -18.926 -21.040  0.00  0.00    +0.181 C 
BRANCH  20  22
ATOM     21  C   UNL     1      35.794 -16.937 -21.843  0.00  0.00    +0.003 C 
ATOM     22  C   UNL     1      35.893 -17.929 -20.946  0.00  0.00    +0.038 C 
BRANCH  21  23
ATOM     23  C   UNL     1      34.747 -15.901 -21.834  0.00  0.00    +0.003 C 
ATOM     24  C   UNL     1      34.360 -15.290 -23.027  0.00  0.00    +0.040 C 
ATOM     25  C   UNL     1      33.369 -14.309 -23.020  0.00  0.00    +0.172 C 
ATOM     26  C   UNL     1      34.142 -15.530 -20.633  0.00  0.00    +0.003 C 
ATOM     27  C   UNL     1      32.765 -13.938 -21.818  0.00  0.00    +0.168 C 
ATOM     28  C   UNL     1      33.152 -14.548 -20.625  0.00  0.00    +0.040 C 
BRANCH  25  29
ATOM     29  O   UNL     1      33.000 -13.719 -24.191  0.00  0.00    -0.468 OA
ATOM     30  C   UNL     1      33.278 -14.436 -25.392  0.00  0.00    +0.253 C 
ENDBRANCH  25  29
BRANCH  27  31
ATOM     31  O   UNL     1      31.796 -12.980 -21.797  0.00  0.00    -0.503 OA
ATOM     32  H   UNL     1      32.026 -12.078 -21.902  0.00  0.00    +0.292 HD
ENDBRANCH  27  31
ENDBRANCH  21  23
ENDBRANCH  20  22
ENDBRANCH  18  20
ENDBRANCH   2  18
TORSDOF 11
ENDMDL
