MODEL 1
REMARK VINA RESULT:     -11.9      0.000      0.000
REMARK  Name = 6419766
REMARK  1 active torsions:
REMARK  status: ('A' for Active; 'I' for Inactive)
REMARK    1  A    between atoms: C_9  and  C_20
REMARK                            x       y       z     vdW  Elec       q    Type
REMARK                         _______ _______ _______ _____ _____    ______ ____
ROOT
ATOM      1  N   UNL     1      35.848 -23.454 -15.976  0.00  0.00    -0.274 N 
ATOM      2  N   UNL     1      33.495 -23.432 -16.009  0.00  0.00    -0.328 NA
ATOM      3  N   UNL     1      32.302 -22.331 -17.789  0.00  0.00    -0.343 NA
ATOM      4  N   UNL     1      36.129 -23.864 -12.586  0.00  0.00    -0.239 N 
ATOM      5  N   UNL     1      35.347 -23.546 -13.631  0.00  0.00    -0.166 NA
ATOM      6  C   UNL     1      34.699 -22.331 -17.792  0.00  0.00    +0.143 C 
ATOM      7  C   UNL     1      34.642 -23.062 -16.609  0.00  0.00    +0.185 C 
ATOM      8  C   UNL     1      33.465 -21.978 -18.362  0.00  0.00    +0.133 C 
ATOM      9  C   UNL     1      32.379 -23.038 -16.644  0.00  0.00    +0.138 C 
ATOM     10  C   UNL     1      36.182 -23.677 -14.631  0.00  0.00    +0.152 C 
ATOM     11  C   UNL     1      35.911 -21.957 -18.400  0.00  0.00    -0.011 C 
ATOM     12  C   UNL     1      33.483 -21.246 -19.546  0.00  0.00    +0.029 C 
ATOM     13  C   UNL     1      37.469 -24.065 -14.299  0.00  0.00    +0.048 C 
ATOM     14  C   UNL     1      37.410 -24.182 -12.931  0.00  0.00    +0.046 C 
ATOM     15  C   UNL     1      35.897 -21.226 -19.584  0.00  0.00    -0.004 C 
ATOM     16  C   UNL     1      34.683 -20.869 -20.158  0.00  0.00    +0.002 C 
ATOM     17  C   UNL     1      38.422 -24.559 -11.931  0.00  0.00    +0.049 C 
ATOM     18  H   UNL     1      36.595 -23.598 -16.600  0.00  0.00    +0.156 HD
ATOM     19  H   UNL     1      35.808 -23.866 -11.655  0.00  0.00    +0.174 HD
ENDROOT
BRANCH   9  20
ATOM     20  C   UNL     1      31.129 -23.412 -16.037  0.00  0.00    +0.086 C 
ATOM     21  C   UNL     1      29.956 -22.723 -16.357  0.00  0.00    +0.012 C 
ATOM     22  C   UNL     1      31.078 -24.469 -15.123  0.00  0.00    +0.012 C 
ATOM     23  C   UNL     1      28.744 -23.087 -15.770  0.00  0.00    +0.001 C 
ATOM     24  C   UNL     1      29.868 -24.834 -14.536  0.00  0.00    +0.001 C 
ATOM     25  C   UNL     1      28.699 -24.143 -14.859  0.00  0.00    +0.000 C 
ENDBRANCH   9  20
TORSDOF 1
ENDMDL
MODEL 2
REMARK VINA RESULT:     -11.8      1.172      4.917
REMARK  Name = 6419766
REMARK  1 active torsions:
REMARK  status: ('A' for Active; 'I' for Inactive)
REMARK    1  A    between atoms: C_9  and  C_20
REMARK                            x       y       z     vdW  Elec       q    Type
REMARK                         _______ _______ _______ _____ _____    ______ ____
ROOT
ATOM      1  N   UNL     1      34.361 -24.126 -14.199  0.00  0.00    -0.274 N 
ATOM      2  N   UNL     1      34.097 -23.037 -16.268  0.00  0.00    -0.328 NA
ATOM      3  N   UNL     1      31.907 -22.733 -17.226  0.00  0.00    -0.343 NA
ATOM      4  N   UNL     1      37.584 -25.143 -14.768  0.00  0.00    -0.239 N 
ATOM      5  N   UNL     1      36.438 -24.661 -15.277  0.00  0.00    -0.166 NA
ATOM      6  C   UNL     1      32.134 -23.847 -15.115  0.00  0.00    +0.143 C 
ATOM      7  C   UNL     1      33.507 -23.655 -15.228  0.00  0.00    +0.185 C 
ATOM      8  C   UNL     1      31.351 -23.354 -16.172  0.00  0.00    +0.133 C 
ATOM      9  C   UNL     1      33.250 -22.608 -17.218  0.00  0.00    +0.138 C 
ATOM     10  C   UNL     1      35.689 -24.584 -14.206  0.00  0.00    +0.152 C 
ATOM     11  C   UNL     1      31.541 -24.496 -14.017  0.00  0.00    -0.011 C 
ATOM     12  C   UNL     1      29.972 -23.529 -16.094  0.00  0.00    +0.029 C 
ATOM     13  C   UNL     1      36.280 -24.989 -13.021  0.00  0.00    +0.048 C 
ATOM     14  C   UNL     1      37.542 -25.358 -13.421  0.00  0.00    +0.046 C 
ATOM     15  C   UNL     1      30.161 -24.657 -13.967  0.00  0.00    -0.004 C 
ATOM     16  C   UNL     1      29.374 -24.173 -15.006  0.00  0.00    +0.002 C 
ATOM     17  C   UNL     1      38.696 -25.883 -12.674  0.00  0.00    +0.049 C 
ATOM     18  H   UNL     1      33.943 -24.133 -13.308  0.00  0.00    +0.156 HD
ATOM     19  H   UNL     1      38.381 -25.325 -15.316  0.00  0.00    +0.174 HD
ENDROOT
BRANCH   9  20
ATOM     20  C   UNL     1      33.837 -21.941 -18.350  0.00  0.00    +0.086 C 
ATOM     21  C   UNL     1      33.044 -21.170 -19.204  0.00  0.00    +0.012 C 
ATOM     22  C   UNL     1      35.208 -22.058 -18.602  0.00  0.00    +0.012 C 
ATOM     23  C   UNL     1      33.614 -20.522 -20.299  0.00  0.00    +0.001 C 
ATOM     24  C   UNL     1      35.778 -21.411 -19.697  0.00  0.00    +0.001 C 
ATOM     25  C   UNL     1      34.981 -20.642 -20.547  0.00  0.00    +0.000 C 
ENDBRANCH   9  20
TORSDOF 1
ENDMDL
MODEL 3
REMARK VINA RESULT:     -11.2      1.707      6.646
REMARK  Name = 6419766
REMARK  1 active torsions:
REMARK  status: ('A' for Active; 'I' for Inactive)
REMARK    1  A    between atoms: C_9  and  C_20
REMARK                            x       y       z     vdW  Elec       q    Type
REMARK                         _______ _______ _______ _____ _____    ______ ____
ROOT
ATOM      1  N   UNL     1      33.058 -22.460 -18.018  0.00  0.00    -0.274 N 
ATOM      2  N   UNL     1      34.495 -23.575 -16.526  0.00  0.00    -0.328 NA
ATOM      3  N   UNL     1      33.681 -24.388 -14.410  0.00  0.00    -0.343 NA
ATOM      4  N   UNL     1      35.530 -20.706 -19.615  0.00  0.00    -0.239 N 
ATOM      5  N   UNL     1      35.165 -21.445 -18.555  0.00  0.00    -0.166 NA
ATOM      6  C   UNL     1      32.183 -23.256 -15.901  0.00  0.00    +0.143 C 
ATOM      7  C   UNL     1      33.255 -23.118 -16.778  0.00  0.00    +0.185 C 
ATOM      8  C   UNL     1      32.454 -23.919 -14.692  0.00  0.00    +0.133 C 
ATOM      9  C   UNL     1      34.636 -24.190 -15.341  0.00  0.00    +0.138 C 
ATOM     10  C   UNL     1      33.911 -21.700 -18.834  0.00  0.00    +0.152 C 
ATOM     11  C   UNL     1      30.895 -22.770 -16.187  0.00  0.00    -0.011 C 
ATOM     12  C   UNL     1      31.406 -24.076 -13.790  0.00  0.00    +0.029 C 
ATOM     13  C   UNL     1      33.434 -21.169 -20.019  0.00  0.00    +0.048 C 
ATOM     14  C   UNL     1      34.530 -20.510 -20.522  0.00  0.00    +0.046 C 
ATOM     15  C   UNL     1      29.867 -22.941 -15.266  0.00  0.00    -0.004 C 
ATOM     16  C   UNL     1      30.122 -23.595 -14.066  0.00  0.00    +0.002 C 
ATOM     17  C   UNL     1      34.728 -19.728 -21.753  0.00  0.00    +0.049 C 
ATOM     18  H   UNL     1      32.146 -22.554 -18.376  0.00  0.00    +0.156 HD
ATOM     19  H   UNL     1      36.436 -20.339 -19.728  0.00  0.00    +0.174 HD
ENDROOT
BRANCH   9  20
ATOM     20  C   UNL     1      35.947 -24.696 -15.031  0.00  0.00    +0.086 C 
ATOM     21  C   UNL     1      37.033 -23.822 -14.924  0.00  0.00    +0.012 C 
ATOM     22  C   UNL     1      36.145 -26.066 -14.831  0.00  0.00    +0.012 C 
ATOM     23  C   UNL     1      38.303 -24.312 -14.622  0.00  0.00    +0.001 C 
ATOM     24  C   UNL     1      37.414 -26.557 -14.529  0.00  0.00    +0.001 C 
ATOM     25  C   UNL     1      38.495 -25.680 -14.423  0.00  0.00    +0.000 C 
ENDBRANCH   9  20
TORSDOF 1
ENDMDL
MODEL 4
REMARK VINA RESULT:     -10.7      1.631      6.435
REMARK  Name = 6419766
REMARK  1 active torsions:
REMARK  status: ('A' for Active; 'I' for Inactive)
REMARK    1  A    between atoms: C_9  and  C_20
REMARK                            x       y       z     vdW  Elec       q    Type
REMARK                         _______ _______ _______ _____ _____    ______ ____
ROOT
ATOM      1  N   UNL     1      33.013 -23.906 -15.944  0.00  0.00    -0.274 N 
ATOM      2  N   UNL     1      34.099 -22.572 -17.549  0.00  0.00    -0.328 NA
ATOM      3  N   UNL     1      36.449 -22.082 -17.352  0.00  0.00    -0.343 NA
ATOM      4  N   UNL     1      29.888 -22.613 -16.496  0.00  0.00    -0.239 N 
ATOM      5  N   UNL     1      31.214 -22.493 -16.670  0.00  0.00    -0.166 NA
ATOM      6  C   UNL     1      35.380 -23.446 -15.696  0.00  0.00    +0.143 C 
ATOM      7  C   UNL     1      34.199 -23.287 -16.413  0.00  0.00    +0.185 C 
ATOM      8  C   UNL     1      36.514 -22.804 -16.221  0.00  0.00    +0.133 C 
ATOM      9  C   UNL     1      35.246 -22.004 -17.955  0.00  0.00    +0.138 C 
ATOM     10  C   UNL     1      31.656 -23.559 -16.052  0.00  0.00    +0.152 C 
ATOM     11  C   UNL     1      35.459 -24.200 -14.511  0.00  0.00    -0.011 C 
ATOM     12  C   UNL     1      37.715 -22.940 -15.530  0.00  0.00    +0.029 C 
ATOM     13  C   UNL     1      30.692 -24.373 -15.482  0.00  0.00    +0.048 C 
ATOM     14  C   UNL     1      29.522 -23.722 -15.790  0.00  0.00    +0.046 C 
ATOM     15  C   UNL     1      36.673 -24.317 -13.842  0.00  0.00    -0.004 C 
ATOM     16  C   UNL     1      37.802 -23.687 -14.351  0.00  0.00    +0.002 C 
ATOM     17  C   UNL     1      28.115 -24.035 -15.493  0.00  0.00    +0.049 C 
ATOM     18  H   UNL     1      33.171 -24.740 -15.446  0.00  0.00    +0.156 HD
ATOM     19  H   UNL     1      29.239 -21.961 -16.845  0.00  0.00    +0.174 HD
ENDROOT
BRANCH   9  20
ATOM     20  C   UNL     1      35.186 -21.229 -19.166  0.00  0.00    +0.086 C 
ATOM     21  C   UNL     1      33.951 -20.909 -19.738  0.00  0.00    +0.012 C 
ATOM     22  C   UNL     1      36.363 -20.788 -19.780  0.00  0.00    +0.012 C 
ATOM     23  C   UNL     1      33.893 -20.157 -20.911  0.00  0.00    +0.001 C 
ATOM     24  C   UNL     1      36.305 -20.035 -20.952  0.00  0.00    +0.001 C 
ATOM     25  C   UNL     1      35.070 -19.719 -21.518  0.00  0.00    +0.000 C 
ENDBRANCH   9  20
TORSDOF 1
ENDMDL
MODEL 5
REMARK VINA RESULT:     -10.5      1.672      5.287
REMARK  Name = 6419766
REMARK  1 active torsions:
REMARK  status: ('A' for Active; 'I' for Inactive)
REMARK    1  A    between atoms: C_9  and  C_20
REMARK                            x       y       z     vdW  Elec       q    Type
REMARK                         _______ _______ _______ _____ _____    ______ ____
ROOT
ATOM      1  N   UNL     1      36.539 -22.502 -16.587  0.00  0.00    -0.274 N 
ATOM      2  N   UNL     1      34.664 -23.277 -15.395  0.00  0.00    -0.328 NA
ATOM      3  N   UNL     1      34.912 -24.903 -13.635  0.00  0.00    -0.343 NA
ATOM      4  N   UNL     1      34.803 -21.628 -19.408  0.00  0.00    -0.239 N 
ATOM      5  N   UNL     1      34.816 -22.299 -18.245  0.00  0.00    -0.166 NA
ATOM      6  C   UNL     1      36.848 -24.138 -14.824  0.00  0.00    +0.143 C 
ATOM      7  C   UNL     1      35.997 -23.330 -15.572  0.00  0.00    +0.185 C 
ATOM      8  C   UNL     1      36.241 -24.932 -13.837  0.00  0.00    +0.133 C 
ATOM      9  C   UNL     1      34.195 -24.078 -14.425  0.00  0.00    +0.138 C 
ATOM     10  C   UNL     1      36.017 -22.027 -17.801  0.00  0.00    +0.152 C 
ATOM     11  C   UNL     1      38.239 -24.176 -15.028  0.00  0.00    -0.011 C 
ATOM     12  C   UNL     1      37.061 -25.754 -13.069  0.00  0.00    +0.029 C 
ATOM     13  C   UNL     1      36.793 -21.213 -18.609  0.00  0.00    +0.048 C 
ATOM     14  C   UNL     1      35.963 -20.961 -19.674  0.00  0.00    +0.046 C 
ATOM     15  C   UNL     1      39.034 -25.007 -14.245  0.00  0.00    -0.004 C 
ATOM     16  C   UNL     1      38.445 -25.797 -13.265  0.00  0.00    +0.002 C 
ATOM     17  C   UNL     1      36.148 -20.166 -20.899  0.00  0.00    +0.049 C 
ATOM     18  H   UNL     1      37.458 -22.202 -16.405  0.00  0.00    +0.156 HD
ATOM     19  H   UNL     1      34.027 -21.618 -20.014  0.00  0.00    +0.174 HD
ENDROOT
BRANCH   9  20
ATOM     20  C   UNL     1      32.774 -24.053 -14.201  0.00  0.00    +0.086 C 
ATOM     21  C   UNL     1      31.980 -23.079 -14.814  0.00  0.00    +0.012 C 
ATOM     22  C   UNL     1      32.175 -25.005 -13.370  0.00  0.00    +0.012 C 
ATOM     23  C   UNL     1      30.603 -23.056 -14.598  0.00  0.00    +0.001 C 
ATOM     24  C   UNL     1      30.798 -24.983 -13.154  0.00  0.00    +0.001 C 
ATOM     25  C   UNL     1      30.010 -24.009 -13.769  0.00  0.00    +0.000 C 
ENDBRANCH   9  20
TORSDOF 1
ENDMDL
MODEL 6
REMARK VINA RESULT:      -9.9      1.311      5.838
REMARK  Name = 6419766
REMARK  1 active torsions:
REMARK  status: ('A' for Active; 'I' for Inactive)
REMARK    1  A    between atoms: C_9  and  C_20
REMARK                            x       y       z     vdW  Elec       q    Type
REMARK                         _______ _______ _______ _____ _____    ______ ____
ROOT
ATOM      1  N   UNL     1      32.789 -23.073 -15.899  0.00  0.00    -0.274 N 
ATOM      2  N   UNL     1      34.884 -23.344 -14.863  0.00  0.00    -0.328 NA
ATOM      3  N   UNL     1      36.914 -22.759 -16.021  0.00  0.00    -0.343 NA
ATOM      4  N   UNL     1      31.182 -25.453 -14.030  0.00  0.00    -0.239 N 
ATOM      5  N   UNL     1      32.348 -24.920 -14.431  0.00  0.00    -0.166 NA
ATOM      6  C   UNL     1      34.799 -22.467 -17.112  0.00  0.00    +0.143 C 
ATOM      7  C   UNL     1      34.201 -22.959 -15.956  0.00  0.00    +0.185 C 
ATOM      8  C   UNL     1      36.201 -22.383 -17.097  0.00  0.00    +0.133 C 
ATOM      9  C   UNL     1      36.217 -23.220 -14.962  0.00  0.00    +0.138 C 
ATOM     10  C   UNL     1      31.936 -23.954 -15.214  0.00  0.00    +0.152 C 
ATOM     11  C   UNL     1      34.063 -22.070 -18.243  0.00  0.00    -0.011 C 
ATOM     12  C   UNL     1      36.835 -21.895 -18.236  0.00  0.00    +0.029 C 
ATOM     13  C   UNL     1      30.565 -23.824 -15.348  0.00  0.00    +0.048 C 
ATOM     14  C   UNL     1      30.083 -24.834 -14.551  0.00  0.00    +0.046 C 
ATOM     15  C   UNL     1      34.723 -21.587 -19.368  0.00  0.00    -0.004 C 
ATOM     16  C   UNL     1      36.111 -21.499 -19.365  0.00  0.00    +0.002 C 
ATOM     17  C   UNL     1      28.713 -25.268 -14.233  0.00  0.00    +0.049 C 
ATOM     18  H   UNL     1      32.315 -22.405 -16.444  0.00  0.00    +0.156 HD
ATOM     19  H   UNL     1      31.125 -26.221 -13.417  0.00  0.00    +0.174 HD
ENDROOT
BRANCH   9  20
ATOM     20  C   UNL     1      36.988 -23.621 -13.814  0.00  0.00    +0.086 C 
ATOM     21  C   UNL     1      36.697 -23.096 -12.552  0.00  0.00    +0.012 C 
ATOM     22  C   UNL     1      38.034 -24.539 -13.954  0.00  0.00    +0.012 C 
ATOM     23  C   UNL     1      37.443 -23.485 -11.440  0.00  0.00    +0.001 C 
ATOM     24  C   UNL     1      38.779 -24.928 -12.843  0.00  0.00    +0.001 C 
ATOM     25  C   UNL     1      38.484 -24.402 -11.584  0.00  0.00    +0.000 C 
ENDBRANCH   9  20
TORSDOF 1
ENDMDL
MODEL 7
REMARK VINA RESULT:      -9.8      1.815      6.644
REMARK  Name = 6419766
REMARK  1 active torsions:
REMARK  status: ('A' for Active; 'I' for Inactive)
REMARK    1  A    between atoms: C_9  and  C_20
REMARK                            x       y       z     vdW  Elec       q    Type
REMARK                         _______ _______ _______ _____ _____    ______ ____
ROOT
ATOM      1  N   UNL     1      33.336 -24.736 -13.751  0.00  0.00    -0.274 N 
ATOM      2  N   UNL     1      34.588 -23.557 -15.357  0.00  0.00    -0.328 NA
ATOM      3  N   UNL     1      36.781 -22.710 -14.827  0.00  0.00    -0.343 NA
ATOM      4  N   UNL     1      30.278 -24.016 -15.118  0.00  0.00    -0.239 N 
ATOM      5  N   UNL     1      31.591 -23.739 -15.062  0.00  0.00    -0.166 NA
ATOM      6  C   UNL     1      35.538 -23.908 -13.163  0.00  0.00    +0.143 C 
ATOM      7  C   UNL     1      34.522 -24.045 -14.104  0.00  0.00    +0.185 C 
ATOM      8  C   UNL     1      36.683 -23.211 -13.583  0.00  0.00    +0.133 C 
ATOM      9  C   UNL     1      35.729 -22.909 -15.646  0.00  0.00    +0.138 C 
ATOM     10  C   UNL     1      32.004 -24.610 -14.176  0.00  0.00    +0.152 C 
ATOM     11  C   UNL     1      35.446 -24.429 -11.859  0.00  0.00    -0.011 C 
ATOM     12  C   UNL     1      37.720 -23.054 -12.668  0.00  0.00    +0.029 C 
ATOM     13  C   UNL     1      31.033 -25.443 -13.647  0.00  0.00    +0.048 C 
ATOM     14  C   UNL     1      29.892 -25.028 -14.289  0.00  0.00    +0.046 C 
ATOM     15  C   UNL     1      36.498 -24.256 -10.966  0.00  0.00    -0.004 C 
ATOM     16  C   UNL     1      37.636 -23.568 -11.370  0.00  0.00    +0.002 C 
ATOM     17  C   UNL     1      28.494 -25.482 -14.203  0.00  0.00    +0.049 C 
ATOM     18  H   UNL     1      33.473 -25.442 -13.079  0.00  0.00    +0.156 HD
ATOM     19  H   UNL     1      29.651 -23.532 -15.703  0.00  0.00    +0.174 HD
ENDROOT
BRANCH   9  20
ATOM     20  C   UNL     1      35.842 -22.370 -16.976  0.00  0.00    +0.086 C 
ATOM     21  C   UNL     1      34.785 -22.499 -17.881  0.00  0.00    +0.012 C 
ATOM     22  C   UNL     1      37.011 -21.711 -17.371  0.00  0.00    +0.012 C 
ATOM     23  C   UNL     1      34.895 -21.975 -19.169  0.00  0.00    +0.001 C 
ATOM     24  C   UNL     1      37.121 -21.187 -18.658  0.00  0.00    +0.001 C 
ATOM     25  C   UNL     1      36.062 -21.318 -19.558  0.00  0.00    +0.000 C 
ENDBRANCH   9  20
TORSDOF 1
ENDMDL
