MODEL 1
REMARK VINA RESULT:     -11.4      0.000      0.000
REMARK  Name = 71183216
REMARK  5 active torsions:
REMARK  status: ('A' for Active; 'I' for Inactive)
REMARK    1  A    between atoms: N_3  and  C_24
REMARK    2  A    between atoms: C_10  and  C_13
REMARK    3  A    between atoms: C_18  and  O_19
REMARK    4  A    between atoms: O_19  and  C_23
REMARK    5  A    between atoms: C_24  and  C_27
REMARK                            x       y       z     vdW  Elec       q    Type
REMARK                         _______ _______ _______ _____ _____    ______ ____
ROOT
ATOM      1  O   UNL     1      34.961 -16.134 -25.471  0.00  0.00    -0.473 OA
ATOM      2  O   UNL     1      35.557 -14.625 -21.888  0.00  0.00    -0.270 OA
ATOM      3  N   UNL     1      33.991 -14.239 -23.575  0.00  0.00    -0.259 N 
ATOM      4  C   UNL     1      33.049 -14.823 -24.526  0.00  0.00    +0.142 C 
ATOM      5  C   UNL     1      34.833 -16.489 -23.082  0.00  0.00    +0.087 C 
ATOM      6  C   UNL     1      33.769 -15.387 -25.746  0.00  0.00    +0.227 C 
ATOM      7  C   UNL     1      34.829 -15.035 -22.789  0.00  0.00    +0.253 C 
ATOM      8  C   UNL     1      34.862 -16.972 -24.396  0.00  0.00    +0.143 C 
ATOM      9  C   UNL     1      34.842 -17.387 -22.010  0.00  0.00    +0.008 C 
ATOM     10  C   UNL     1      34.871 -18.760 -22.256  0.00  0.00    +0.000 C 
ATOM     11  C   UNL     1      34.913 -18.345 -24.638  0.00  0.00    +0.037 C 
ATOM     12  C   UNL     1      34.905 -19.238 -23.567  0.00  0.00    +0.003 C 
ENDROOT
BRANCH  10  13
ATOM     13  C   UNL     1      34.871 -19.692 -21.149  0.00  0.00    +0.000 C 
ATOM     14  C   UNL     1      36.078 -20.138 -20.612  0.00  0.00    +0.003 C 
ATOM     15  C   UNL     1      33.662 -20.147 -20.622  0.00  0.00    +0.003 C 
ATOM     16  C   UNL     1      36.077 -21.038 -19.546  0.00  0.00    +0.037 C 
ATOM     17  C   UNL     1      33.661 -21.047 -19.556  0.00  0.00    +0.037 C 
ATOM     18  C   UNL     1      34.869 -21.493 -19.018  0.00  0.00    +0.147 C 
BRANCH  18  19
ATOM     19  O   UNL     1      34.868 -22.372 -17.979  0.00  0.00    -0.404 OA
BRANCH  19  23
ATOM     20  F   UNL     1      32.606 -22.470 -17.656  0.00  0.00    -0.133 F 
ATOM     21  F   UNL     1      33.895 -23.940 -16.679  0.00  0.00    -0.133 F 
ATOM     22  F   UNL     1      33.586 -24.059 -18.839  0.00  0.00    -0.133 F 
ATOM     23  C   UNL     1      33.728 -23.206 -17.803  0.00  0.00    +0.575 C 
ENDBRANCH  19  23
ENDBRANCH  18  19
ENDBRANCH  10  13
BRANCH   3  24
ATOM     24  C   UNL     1      34.003 -12.791 -23.446  0.00  0.00    +0.194 C 
BRANCH  24  27
ATOM     25  N   UNL     1      32.682 -13.196 -21.455  0.00  0.00    -0.217 NA
ATOM     26  N   UNL     1      32.596 -11.041 -22.532  0.00  0.00    -0.195 NA
ATOM     27  C   UNL     1      33.030 -12.311 -22.409  0.00  0.00    +0.028 C 
ATOM     28  C   UNL     1      31.806 -12.731 -20.539  0.00  0.00    +0.164 C 
ATOM     29  C   UNL     1      31.723 -10.644 -21.584  0.00  0.00    +0.107 C 
ATOM     30  C   UNL     1      31.288 -11.453 -20.554  0.00  0.00    +0.022 C 
ENDBRANCH  24  27
ENDBRANCH   3  24
TORSDOF 5
ENDMDL
MODEL 2
REMARK VINA RESULT:     -10.8      4.090      7.291
REMARK  Name = 71183216
REMARK  5 active torsions:
REMARK  status: ('A' for Active; 'I' for Inactive)
REMARK    1  A    between atoms: N_3  and  C_24
REMARK    2  A    between atoms: C_10  and  C_13
REMARK    3  A    between atoms: C_18  and  O_19
REMARK    4  A    between atoms: O_19  and  C_23
REMARK    5  A    between atoms: C_24  and  C_27
REMARK                            x       y       z     vdW  Elec       q    Type
REMARK                         _______ _______ _______ _____ _____    ______ ____
ROOT
ATOM      1  O   UNL     1      30.899  -9.680 -19.571  0.00  0.00    -0.473 OA
ATOM      2  O   UNL     1      31.762  -9.252 -23.385  0.00  0.00    -0.270 OA
ATOM      3  N   UNL     1      32.329  -8.080 -21.448  0.00  0.00    -0.259 N 
ATOM      4  C   UNL     1      32.819  -8.152 -20.074  0.00  0.00    +0.142 C 
ATOM      5  C   UNL     1      32.137 -10.524 -21.471  0.00  0.00    +0.087 C 
ATOM      6  C   UNL     1      31.718  -8.595 -19.116  0.00  0.00    +0.227 C 
ATOM      7  C   UNL     1      32.059  -9.231 -22.193  0.00  0.00    +0.253 C 
ATOM      8  C   UNL     1      31.592 -10.683 -20.190  0.00  0.00    +0.143 C 
ATOM      9  C   UNL     1      32.741 -11.612 -22.110  0.00  0.00    +0.008 C 
ATOM     10  C   UNL     1      32.805 -12.847 -21.464  0.00  0.00    +0.000 C 
ATOM     11  C   UNL     1      31.638 -11.925 -19.557  0.00  0.00    +0.037 C 
ATOM     12  C   UNL     1      32.255 -13.003 -20.190  0.00  0.00    +0.003 C 
ENDROOT
BRANCH  10  13
ATOM     13  C   UNL     1      33.438 -13.972 -22.118  0.00  0.00    +0.000 C 
ATOM     14  C   UNL     1      33.312 -14.138 -23.497  0.00  0.00    +0.003 C 
ATOM     15  C   UNL     1      34.171 -14.892 -21.368  0.00  0.00    +0.003 C 
ATOM     16  C   UNL     1      33.921 -15.224 -24.127  0.00  0.00    +0.037 C 
ATOM     17  C   UNL     1      34.780 -15.977 -21.998  0.00  0.00    +0.037 C 
ATOM     18  C   UNL     1      34.654 -16.144 -23.377  0.00  0.00    +0.147 C 
BRANCH  18  19
ATOM     19  O   UNL     1      35.247 -17.204 -23.991  0.00  0.00    -0.404 OA
BRANCH  19  23
ATOM     20  F   UNL     1      36.557 -18.727 -22.899  0.00  0.00    -0.133 F 
ATOM     21  F   UNL     1      34.894 -19.429 -24.130  0.00  0.00    -0.133 F 
ATOM     22  F   UNL     1      34.471 -18.437 -22.229  0.00  0.00    -0.133 F 
ATOM     23  C   UNL     1      35.298 -18.445 -23.295  0.00  0.00    +0.575 C 
ENDBRANCH  19  23
ENDBRANCH  18  19
ENDBRANCH  10  13
BRANCH   3  24
ATOM     24  C   UNL     1      32.165  -6.759 -22.033  0.00  0.00    +0.194 C 
BRANCH  24  27
ATOM     25  N   UNL     1      32.789  -5.755 -24.149  0.00  0.00    -0.217 NA
ATOM     26  N   UNL     1      34.427  -6.983 -22.877  0.00  0.00    -0.195 NA
ATOM     27  C   UNL     1      33.195  -6.481 -23.089  0.00  0.00    +0.028 C 
ATOM     28  C   UNL     1      33.739  -5.524 -25.079  0.00  0.00    +0.164 C 
ATOM     29  C   UNL     1      35.326  -6.714 -23.845  0.00  0.00    +0.107 C 
ATOM     30  C   UNL     1      35.036  -5.983 -24.979  0.00  0.00    +0.022 C 
ENDBRANCH  24  27
ENDBRANCH   3  24
TORSDOF 5
ENDMDL
MODEL 3
REMARK VINA RESULT:     -10.6      6.366     11.014
REMARK  Name = 71183216
REMARK  5 active torsions:
REMARK  status: ('A' for Active; 'I' for Inactive)
REMARK    1  A    between atoms: N_3  and  C_24
REMARK    2  A    between atoms: C_10  and  C_13
REMARK    3  A    between atoms: C_18  and  O_19
REMARK    4  A    between atoms: O_19  and  C_23
REMARK    5  A    between atoms: C_24  and  C_27
REMARK                            x       y       z     vdW  Elec       q    Type
REMARK                         _______ _______ _______ _____ _____    ______ ____
ROOT
ATOM      1  O   UNL     1      34.051 -24.138 -15.080  0.00  0.00    -0.473 OA
ATOM      2  O   UNL     1      37.398 -22.072 -15.111  0.00  0.00    -0.270 OA
ATOM      3  N   UNL     1      36.890 -24.343 -14.930  0.00  0.00    -0.259 N 
ATOM      4  C   UNL     1      36.134 -25.473 -15.462  0.00  0.00    +0.142 C 
ATOM      5  C   UNL     1      35.617 -22.845 -16.396  0.00  0.00    +0.087 C 
ATOM      6  C   UNL     1      34.677 -25.425 -15.016  0.00  0.00    +0.227 C 
ATOM      7  C   UNL     1      36.718 -23.046 -15.422  0.00  0.00    +0.253 C 
ATOM      8  C   UNL     1      34.355 -23.423 -16.205  0.00  0.00    +0.143 C 
ATOM      9  C   UNL     1      35.848 -22.030 -17.509  0.00  0.00    +0.008 C 
ATOM     10  C   UNL     1      34.822 -21.804 -18.427  0.00  0.00    +0.000 C 
ATOM     11  C   UNL     1      33.326 -23.176 -17.113  0.00  0.00    +0.037 C 
ATOM     12  C   UNL     1      33.564 -22.376 -18.230  0.00  0.00    +0.003 C 
ENDROOT
BRANCH  10  13
ATOM     13  C   UNL     1      35.061 -20.969 -19.584  0.00  0.00    +0.000 C 
ATOM     14  C   UNL     1      36.357 -20.551 -19.888  0.00  0.00    +0.003 C 
ATOM     15  C   UNL     1      33.994 -20.579 -20.394  0.00  0.00    +0.003 C 
ATOM     16  C   UNL     1      36.586 -19.745 -21.003  0.00  0.00    +0.037 C 
ATOM     17  C   UNL     1      34.223 -19.773 -21.509  0.00  0.00    +0.037 C 
ATOM     18  C   UNL     1      35.519 -19.355 -21.813  0.00  0.00    +0.147 C 
BRANCH  18  19
ATOM     19  O   UNL     1      35.743 -18.567 -22.900  0.00  0.00    -0.404 OA
BRANCH  19  23
ATOM     20  F   UNL     1      34.778 -16.910 -21.654  0.00  0.00    -0.133 F 
ATOM     21  F   UNL     1      34.239 -17.120 -23.761  0.00  0.00    -0.133 F 
ATOM     22  F   UNL     1      36.218 -16.355 -23.236  0.00  0.00    -0.133 F 
ATOM     23  C   UNL     1      35.255 -17.230 -22.875  0.00  0.00    +0.575 C 
ENDBRANCH  19  23
ENDBRANCH  18  19
ENDBRANCH  10  13
BRANCH   3  24
ATOM     24  C   UNL     1      37.863 -24.619 -13.885  0.00  0.00    +0.194 C 
BRANCH  24  27
ATOM     25  N   UNL     1      36.484 -25.191 -11.976  0.00  0.00    -0.217 NA
ATOM     26  N   UNL     1      37.748 -23.139 -11.969  0.00  0.00    -0.195 NA
ATOM     27  C   UNL     1      37.330 -24.295 -12.520  0.00  0.00    +0.028 C 
ATOM     28  C   UNL     1      36.024 -24.868 -10.749  0.00  0.00    +0.164 C 
ATOM     29  C   UNL     1      37.249 -22.879 -10.743  0.00  0.00    +0.107 C 
ATOM     30  C   UNL     1      36.375 -23.715 -10.078  0.00  0.00    +0.022 C 
ENDBRANCH  24  27
ENDBRANCH   3  24
TORSDOF 5
ENDMDL
MODEL 4
REMARK VINA RESULT:     -10.6      6.483     11.411
REMARK  Name = 71183216
REMARK  5 active torsions:
REMARK  status: ('A' for Active; 'I' for Inactive)
REMARK    1  A    between atoms: N_3  and  C_24
REMARK    2  A    between atoms: C_10  and  C_13
REMARK    3  A    between atoms: C_18  and  O_19
REMARK    4  A    between atoms: O_19  and  C_23
REMARK    5  A    between atoms: C_24  and  C_27
REMARK                            x       y       z     vdW  Elec       q    Type
REMARK                         _______ _______ _______ _____ _____    ______ ____
ROOT
ATOM      1  O   UNL     1      33.480 -24.147 -14.313  0.00  0.00    -0.473 OA
ATOM      2  O   UNL     1      36.811 -22.072 -14.569  0.00  0.00    -0.270 OA
ATOM      3  N   UNL     1      36.321 -24.320 -14.174  0.00  0.00    -0.259 N 
ATOM      4  C   UNL     1      35.569 -25.499 -14.592  0.00  0.00    +0.142 C 
ATOM      5  C   UNL     1      35.023 -22.972 -15.758  0.00  0.00    +0.087 C 
ATOM      6  C   UNL     1      34.116 -25.420 -14.137  0.00  0.00    +0.227 C 
ATOM      7  C   UNL     1      36.135 -23.075 -14.782  0.00  0.00    +0.253 C 
ATOM      8  C   UNL     1      33.767 -23.537 -15.501  0.00  0.00    +0.143 C 
ATOM      9  C   UNL     1      35.237 -22.262 -16.944  0.00  0.00    +0.008 C 
ATOM     10  C   UNL     1      34.201 -22.128 -17.868  0.00  0.00    +0.000 C 
ATOM     11  C   UNL     1      32.727 -23.382 -16.418  0.00  0.00    +0.037 C 
ATOM     12  C   UNL     1      32.949 -22.687 -17.606  0.00  0.00    +0.003 C 
ENDROOT
BRANCH  10  13
ATOM     13  C   UNL     1      34.422 -21.402 -19.100  0.00  0.00    +0.000 C 
ATOM     14  C   UNL     1      35.716 -21.251 -19.599  0.00  0.00    +0.003 C 
ATOM     15  C   UNL     1      33.341 -20.850 -19.787  0.00  0.00    +0.003 C 
ATOM     16  C   UNL     1      35.928 -20.550 -20.786  0.00  0.00    +0.037 C 
ATOM     17  C   UNL     1      33.553 -20.148 -20.974  0.00  0.00    +0.037 C 
ATOM     18  C   UNL     1      34.847 -19.998 -21.473  0.00  0.00    +0.147 C 
BRANCH  18  19
ATOM     19  O   UNL     1      35.055 -19.312 -22.630  0.00  0.00    -0.404 OA
BRANCH  19  23
ATOM     20  F   UNL     1      35.082 -17.295 -21.552  0.00  0.00    -0.133 F 
ATOM     21  F   UNL     1      35.406 -17.362 -23.712  0.00  0.00    -0.133 F 
ATOM     22  F   UNL     1      36.973 -18.092 -22.375  0.00  0.00    -0.133 F 
ATOM     23  C   UNL     1      35.637 -18.015 -22.551  0.00  0.00    +0.575 C 
ENDBRANCH  19  23
ENDBRANCH  18  19
ENDBRANCH  10  13
BRANCH   3  24
ATOM     24  C   UNL     1      37.307 -24.492 -13.119  0.00  0.00    +0.194 C 
BRANCH  24  27
ATOM     25  N   UNL     1      39.076 -26.144 -12.999  0.00  0.00    -0.217 NA
ATOM     26  N   UNL     1      39.144 -24.438 -14.700  0.00  0.00    -0.195 NA
ATOM     27  C   UNL     1      38.594 -25.063 -13.640  0.00  0.00    +0.028 C 
ATOM     28  C   UNL     1      40.234 -26.630 -13.493  0.00  0.00    +0.164 C 
ATOM     29  C   UNL     1      40.299 -24.977 -15.142  0.00  0.00    +0.107 C 
ATOM     30  C   UNL     1      40.897 -26.083 -14.573  0.00  0.00    +0.022 C 
ENDBRANCH  24  27
ENDBRANCH   3  24
TORSDOF 5
ENDMDL
MODEL 5
REMARK VINA RESULT:      -9.4      3.819      6.530
REMARK  Name = 71183216
REMARK  5 active torsions:
REMARK  status: ('A' for Active; 'I' for Inactive)
REMARK    1  A    between atoms: N_3  and  C_24
REMARK    2  A    between atoms: C_10  and  C_13
REMARK    3  A    between atoms: C_18  and  O_19
REMARK    4  A    between atoms: O_19  and  C_23
REMARK    5  A    between atoms: C_24  and  C_27
REMARK                            x       y       z     vdW  Elec       q    Type
REMARK                         _______ _______ _______ _____ _____    ______ ____
ROOT
ATOM      1  O   UNL     1      31.125  -9.895 -20.975  0.00  0.00    -0.473 OA
ATOM      2  O   UNL     1      33.128 -10.138 -24.351  0.00  0.00    -0.270 OA
ATOM      3  N   UNL     1      33.209  -8.703 -22.512  0.00  0.00    -0.259 N 
ATOM      4  C   UNL     1      33.255  -8.580 -21.058  0.00  0.00    +0.142 C 
ATOM      5  C   UNL     1      32.779 -11.104 -22.261  0.00  0.00    +0.087 C 
ATOM      6  C   UNL     1      31.879  -8.800 -20.439  0.00  0.00    +0.227 C 
ATOM      7  C   UNL     1      33.056  -9.942 -23.140  0.00  0.00    +0.253 C 
ATOM      8  C   UNL     1      31.862 -11.023 -21.205  0.00  0.00    +0.143 C 
ATOM      9  C   UNL     1      33.429 -12.314 -22.527  0.00  0.00    +0.008 C 
ATOM     10  C   UNL     1      33.168 -13.429 -21.731  0.00  0.00    +0.000 C 
ATOM     11  C   UNL     1      31.588 -12.146 -20.426  0.00  0.00    +0.037 C 
ATOM     12  C   UNL     1      32.250 -13.346 -20.683  0.00  0.00    +0.003 C 
ENDROOT
BRANCH  10  13
ATOM     13  C   UNL     1      33.847 -14.680 -21.997  0.00  0.00    +0.000 C 
ATOM     14  C   UNL     1      34.119 -15.061 -23.310  0.00  0.00    +0.003 C 
ATOM     15  C   UNL     1      34.227 -15.505 -20.938  0.00  0.00    +0.003 C 
ATOM     16  C   UNL     1      34.772 -16.267 -23.566  0.00  0.00    +0.037 C 
ATOM     17  C   UNL     1      34.880 -16.711 -21.193  0.00  0.00    +0.037 C 
ATOM     18  C   UNL     1      35.151 -17.092 -22.507  0.00  0.00    +0.147 C 
BRANCH  18  19
ATOM     19  O   UNL     1      35.787 -18.270 -22.756  0.00  0.00    -0.404 OA
BRANCH  19  23
ATOM     20  F   UNL     1      35.750 -20.397 -23.597  0.00  0.00    -0.133 F 
ATOM     21  F   UNL     1      34.066 -19.060 -23.985  0.00  0.00    -0.133 F 
ATOM     22  F   UNL     1      34.348 -19.865 -21.973  0.00  0.00    -0.133 F 
ATOM     23  C   UNL     1      34.995 -19.411 -23.067  0.00  0.00    +0.575 C 
ENDBRANCH  19  23
ENDBRANCH  18  19
ENDBRANCH  10  13
BRANCH   3  24
ATOM     24  C   UNL     1      33.366  -7.487 -23.293  0.00  0.00    +0.194 C 
BRANCH  24  27
ATOM     25  N   UNL     1      32.745  -5.181 -22.873  0.00  0.00    -0.217 NA
ATOM     26  N   UNL     1      31.075  -6.915 -22.745  0.00  0.00    -0.195 NA
ATOM     27  C   UNL     1      32.327  -6.459 -22.947  0.00  0.00    +0.028 C 
ATOM     28  C   UNL     1      31.785  -4.285 -22.560  0.00  0.00    +0.164 C 
ATOM     29  C   UNL     1      30.167  -5.965 -22.436  0.00  0.00    +0.107 C 
ATOM     30  C   UNL     1      30.468  -4.622 -22.329  0.00  0.00    +0.022 C 
ENDBRANCH  24  27
ENDBRANCH   3  24
TORSDOF 5
ENDMDL
MODEL 6
REMARK VINA RESULT:      -9.4      1.933      2.622
REMARK  Name = 71183216
REMARK  5 active torsions:
REMARK  status: ('A' for Active; 'I' for Inactive)
REMARK    1  A    between atoms: N_3  and  C_24
REMARK    2  A    between atoms: C_10  and  C_13
REMARK    3  A    between atoms: C_18  and  O_19
REMARK    4  A    between atoms: O_19  and  C_23
REMARK    5  A    between atoms: C_24  and  C_27
REMARK                            x       y       z     vdW  Elec       q    Type
REMARK                         _______ _______ _______ _____ _____    ______ ____
ROOT
ATOM      1  O   UNL     1      34.556 -14.458 -24.520  0.00  0.00    -0.473 OA
ATOM      2  O   UNL     1      34.571 -13.812 -20.640  0.00  0.00    -0.270 OA
ATOM      3  N   UNL     1      32.997 -13.498 -22.335  0.00  0.00    -0.259 N 
ATOM      4  C   UNL     1      32.308 -14.074 -23.486  0.00  0.00    +0.142 C 
ATOM      5  C   UNL     1      34.500 -15.435 -22.308  0.00  0.00    +0.087 C 
ATOM      6  C   UNL     1      33.194 -14.062 -24.727  0.00  0.00    +0.227 C 
ATOM      7  C   UNL     1      34.029 -14.176 -21.681  0.00  0.00    +0.253 C 
ATOM      8  C   UNL     1      34.707 -15.533 -23.690  0.00  0.00    +0.143 C 
ATOM      9  C   UNL     1      34.773 -16.532 -21.484  0.00  0.00    +0.008 C 
ATOM     10  C   UNL     1      35.241 -17.720 -22.045  0.00  0.00    +0.000 C 
ATOM     11  C   UNL     1      35.196 -16.716 -24.244  0.00  0.00    +0.037 C 
ATOM     12  C   UNL     1      35.452 -17.813 -23.422  0.00  0.00    +0.003 C 
ENDROOT
BRANCH  10  13
ATOM     13  C   UNL     1      35.515 -18.860 -21.197  0.00  0.00    +0.000 C 
ATOM     14  C   UNL     1      34.469 -19.673 -20.760  0.00  0.00    +0.003 C 
ATOM     15  C   UNL     1      36.826 -19.144 -20.813  0.00  0.00    +0.003 C 
ATOM     16  C   UNL     1      34.734 -20.771 -19.941  0.00  0.00    +0.037 C 
ATOM     17  C   UNL     1      37.091 -20.242 -19.994  0.00  0.00    +0.037 C 
ATOM     18  C   UNL     1      36.045 -21.055 -19.558  0.00  0.00    +0.147 C 
BRANCH  18  19
ATOM     19  O   UNL     1      36.303 -22.125 -18.757  0.00  0.00    -0.404 OA
BRANCH  19  23
ATOM     20  F   UNL     1      35.515 -22.034 -16.612  0.00  0.00    -0.133 F 
ATOM     21  F   UNL     1      37.042 -20.610 -17.256  0.00  0.00    -0.133 F 
ATOM     22  F   UNL     1      37.593 -22.704 -16.960  0.00  0.00    -0.133 F 
ATOM     23  C   UNL     1      36.610 -21.884 -17.388  0.00  0.00    +0.575 C 
ENDBRANCH  19  23
ENDBRANCH  18  19
ENDBRANCH  10  13
BRANCH   3  24
ATOM     24  C   UNL     1      32.546 -12.198 -21.866  0.00  0.00    +0.194 C 
BRANCH  24  27
ATOM     25  N   UNL     1      34.215 -11.408 -23.436  0.00  0.00    -0.217 NA
ATOM     26  N   UNL     1      32.735  -9.834 -22.367  0.00  0.00    -0.195 NA
ATOM     27  C   UNL     1      33.209 -11.072 -22.605  0.00  0.00    +0.028 C 
ATOM     28  C   UNL     1      34.788 -10.372 -24.083  0.00  0.00    +0.164 C 
ATOM     29  C   UNL     1      33.354  -8.847 -23.048  0.00  0.00    +0.107 C 
ATOM     30  C   UNL     1      34.396  -9.058 -23.928  0.00  0.00    +0.022 C 
ENDBRANCH  24  27
ENDBRANCH   3  24
TORSDOF 5
ENDMDL
MODEL 7
REMARK VINA RESULT:      -9.1      6.744     10.810
REMARK  Name = 71183216
REMARK  5 active torsions:
REMARK  status: ('A' for Active; 'I' for Inactive)
REMARK    1  A    between atoms: N_3  and  C_24
REMARK    2  A    between atoms: C_10  and  C_13
REMARK    3  A    between atoms: C_18  and  O_19
REMARK    4  A    between atoms: O_19  and  C_23
REMARK    5  A    between atoms: C_24  and  C_27
REMARK                            x       y       z     vdW  Elec       q    Type
REMARK                         _______ _______ _______ _____ _____    ______ ____
ROOT
ATOM      1  O   UNL     1      33.779 -14.932 -24.593  0.00  0.00    -0.473 OA
ATOM      2  O   UNL     1      32.369 -14.303 -20.976  0.00  0.00    -0.270 OA
ATOM      3  N   UNL     1      34.234 -15.422 -21.822  0.00  0.00    -0.259 N 
ATOM      4  C   UNL     1      35.383 -15.377 -22.722  0.00  0.00    +0.142 C 
ATOM      5  C   UNL     1      33.419 -13.333 -22.814  0.00  0.00    +0.087 C 
ATOM      6  C   UNL     1      34.965 -15.618 -24.169  0.00  0.00    +0.227 C 
ATOM      7  C   UNL     1      33.290 -14.393 -21.785  0.00  0.00    +0.253 C 
ATOM      8  C   UNL     1      33.691 -13.641 -24.154  0.00  0.00    +0.143 C 
ATOM      9  C   UNL     1      33.228 -12.001 -22.432  0.00  0.00    +0.008 C 
ATOM     10  C   UNL     1      33.319 -10.987 -23.385  0.00  0.00    +0.000 C 
ATOM     11  C   UNL     1      33.759 -12.626 -25.107  0.00  0.00    +0.037 C 
ATOM     12  C   UNL     1      33.584 -11.298 -24.719  0.00  0.00    +0.003 C 
ENDROOT
BRANCH  10  13
ATOM     13  C   UNL     1      33.131  -9.607 -22.990  0.00  0.00    +0.000 C 
ATOM     14  C   UNL     1      31.991  -9.234 -22.278  0.00  0.00    +0.003 C 
ATOM     15  C   UNL     1      34.090  -8.651 -23.325  0.00  0.00    +0.003 C 
ATOM     16  C   UNL     1      31.811  -7.903 -21.900  0.00  0.00    +0.037 C 
ATOM     17  C   UNL     1      33.909  -7.320 -22.946  0.00  0.00    +0.037 C 
ATOM     18  C   UNL     1      32.769  -6.946 -22.234  0.00  0.00    +0.147 C 
BRANCH  18  19
ATOM     19  O   UNL     1      32.592  -5.648 -21.866  0.00  0.00    -0.404 OA
BRANCH  19  23
ATOM     20  F   UNL     1      31.320  -5.401 -23.751  0.00  0.00    -0.133 F 
ATOM     21  F   UNL     1      32.032  -3.625 -22.696  0.00  0.00    -0.133 F 
ATOM     22  F   UNL     1      30.453  -4.839 -21.797  0.00  0.00    -0.133 F 
ATOM     23  C   UNL     1      31.585  -4.891 -22.530  0.00  0.00    +0.575 C 
ENDBRANCH  19  23
ENDBRANCH  18  19
ENDBRANCH  10  13
BRANCH   3  24
ATOM     24  C   UNL     1      34.125 -16.567 -20.932  0.00  0.00    +0.194 C 
BRANCH  24  27
ATOM     25  N   UNL     1      34.677 -18.412 -22.403  0.00  0.00    -0.217 NA
ATOM     26  N   UNL     1      36.156 -17.843 -20.586  0.00  0.00    -0.195 NA
ATOM     27  C   UNL     1      35.047 -17.681 -21.334  0.00  0.00    +0.028 C 
ATOM     28  C   UNL     1      35.529 -19.405 -22.735  0.00  0.00    +0.164 C 
ATOM     29  C   UNL     1      36.962 -18.853 -20.975  0.00  0.00    +0.107 C 
ATOM     30  C   UNL     1      36.697 -19.675 -22.052  0.00  0.00    +0.022 C 
ENDBRANCH  24  27
ENDBRANCH   3  24
TORSDOF 5
ENDMDL
MODEL 8
REMARK VINA RESULT:      -9.1      4.240      7.260
REMARK  Name = 71183216
REMARK  5 active torsions:
REMARK  status: ('A' for Active; 'I' for Inactive)
REMARK    1  A    between atoms: N_3  and  C_24
REMARK    2  A    between atoms: C_10  and  C_13
REMARK    3  A    between atoms: C_18  and  O_19
REMARK    4  A    between atoms: O_19  and  C_23
REMARK    5  A    between atoms: C_24  and  C_27
REMARK                            x       y       z     vdW  Elec       q    Type
REMARK                         _______ _______ _______ _____ _____    ______ ____
ROOT
ATOM      1  O   UNL     1      31.154  -9.010 -21.340  0.00  0.00    -0.473 OA
ATOM      2  O   UNL     1      33.785  -8.895 -24.261  0.00  0.00    -0.270 OA
ATOM      3  N   UNL     1      33.617  -7.848 -22.182  0.00  0.00    -0.259 N 
ATOM      4  C   UNL     1      33.369  -8.003 -20.751  0.00  0.00    +0.142 C 
ATOM      5  C   UNL     1      32.916 -10.174 -22.519  0.00  0.00    +0.087 C 
ATOM      6  C   UNL     1      31.880  -8.144 -20.458  0.00  0.00    +0.227 C 
ATOM      7  C   UNL     1      33.480  -8.918 -23.071  0.00  0.00    +0.253 C 
ATOM      8  C   UNL     1      31.812 -10.165 -21.658  0.00  0.00    +0.143 C 
ATOM      9  C   UNL     1      33.490 -11.390 -22.904  0.00  0.00    +0.008 C 
ATOM     10  C   UNL     1      32.963 -12.588 -22.419  0.00  0.00    +0.000 C 
ATOM     11  C   UNL     1      31.275 -11.366 -21.194  0.00  0.00    +0.037 C 
ATOM     12  C   UNL     1      31.859 -12.576 -21.566  0.00  0.00    +0.003 C 
ENDROOT
BRANCH  10  13
ATOM     13  C   UNL     1      33.560 -13.848 -22.808  0.00  0.00    +0.000 C 
ATOM     14  C   UNL     1      34.250 -14.613 -21.867  0.00  0.00    +0.003 C 
ATOM     15  C   UNL     1      33.447 -14.296 -24.124  0.00  0.00    +0.003 C 
ATOM     16  C   UNL     1      34.826 -15.826 -22.242  0.00  0.00    +0.037 C 
ATOM     17  C   UNL     1      34.024 -15.509 -24.499  0.00  0.00    +0.037 C 
ATOM     18  C   UNL     1      34.713 -16.274 -23.559  0.00  0.00    +0.147 C 
BRANCH  18  19
ATOM     19  O   UNL     1      35.277 -17.458 -23.925  0.00  0.00    -0.404 OA
BRANCH  19  23
ATOM     20  F   UNL     1      35.333 -19.694 -23.449  0.00  0.00    -0.133 F 
ATOM     21  F   UNL     1      34.504 -18.305 -21.980  0.00  0.00    -0.133 F 
ATOM     22  F   UNL     1      36.662 -18.330 -22.327  0.00  0.00    -0.133 F 
ATOM     23  C   UNL     1      35.459 -18.456 -22.926  0.00  0.00    +0.575 C 
ENDBRANCH  19  23
ENDBRANCH  18  19
ENDBRANCH  10  13
BRANCH   3  24
ATOM     24  C   UNL     1      34.048  -6.541 -22.651  0.00  0.00    +0.194 C 
BRANCH  24  27
ATOM     25  N   UNL     1      32.944  -5.033 -24.193  0.00  0.00    -0.217 NA
ATOM     26  N   UNL     1      31.897  -5.575 -22.091  0.00  0.00    -0.195 NA
ATOM     27  C   UNL     1      32.886  -5.658 -23.002  0.00  0.00    +0.028 C 
ATOM     28  C   UNL     1      31.883  -4.247 -24.476  0.00  0.00    +0.164 C 
ATOM     29  C   UNL     1      30.869  -4.774 -22.439  0.00  0.00    +0.107 C 
ATOM     30  C   UNL     1      30.807  -4.078 -23.629  0.00  0.00    +0.022 C 
ENDBRANCH  24  27
ENDBRANCH   3  24
TORSDOF 5
ENDMDL
MODEL 9
REMARK VINA RESULT:      -9.0      5.698      8.834
REMARK  Name = 71183216
REMARK  5 active torsions:
REMARK  status: ('A' for Active; 'I' for Inactive)
REMARK    1  A    between atoms: N_3  and  C_24
REMARK    2  A    between atoms: C_10  and  C_13
REMARK    3  A    between atoms: C_18  and  O_19
REMARK    4  A    between atoms: O_19  and  C_23
REMARK    5  A    between atoms: C_24  and  C_27
REMARK                            x       y       z     vdW  Elec       q    Type
REMARK                         _______ _______ _______ _____ _____    ______ ____
ROOT
ATOM      1  O   UNL     1      34.726  -6.509 -23.574  0.00  0.00    -0.473 OA
ATOM      2  O   UNL     1      31.785  -8.101 -21.503  0.00  0.00    -0.270 OA
ATOM      3  N   UNL     1      31.902  -6.492 -23.190  0.00  0.00    -0.259 N 
ATOM      4  C   UNL     1      32.431  -6.132 -24.503  0.00  0.00    +0.142 C 
ATOM      5  C   UNL     1      33.358  -8.465 -23.182  0.00  0.00    +0.087 C 
ATOM      6  C   UNL     1      33.891  -5.700 -24.412  0.00  0.00    +0.227 C 
ATOM      7  C   UNL     1      32.276  -7.674 -22.546  0.00  0.00    +0.253 C 
ATOM      8  C   UNL     1      34.508  -7.853 -23.696  0.00  0.00    +0.143 C 
ATOM      9  C   UNL     1      33.229  -9.857 -23.232  0.00  0.00    +0.008 C 
ATOM     10  C   UNL     1      34.243 -10.627 -23.801  0.00  0.00    +0.000 C 
ATOM     11  C   UNL     1      35.530  -8.628 -24.245  0.00  0.00    +0.037 C 
ATOM     12  C   UNL     1      35.390 -10.014 -24.308  0.00  0.00    +0.003 C 
ENDROOT
BRANCH  10  13
ATOM     13  C   UNL     1      34.108 -12.066 -23.863  0.00  0.00    +0.000 C 
ATOM     14  C   UNL     1      34.369 -12.841 -22.733  0.00  0.00    +0.003 C 
ATOM     15  C   UNL     1      33.720 -12.679 -25.055  0.00  0.00    +0.003 C 
ATOM     16  C   UNL     1      34.241 -14.229 -22.794  0.00  0.00    +0.037 C 
ATOM     17  C   UNL     1      33.591 -14.067 -25.115  0.00  0.00    +0.037 C 
ATOM     18  C   UNL     1      33.852 -14.842 -23.985  0.00  0.00    +0.147 C 
BRANCH  18  19
ATOM     19  O   UNL     1      33.728 -16.196 -24.045  0.00  0.00    -0.404 OA
BRANCH  19  23
ATOM     20  F   UNL     1      34.578 -18.239 -24.622  0.00  0.00    -0.133 F 
ATOM     21  F   UNL     1      35.640 -17.008 -23.161  0.00  0.00    -0.133 F 
ATOM     22  F   UNL     1      35.650 -16.416 -25.265  0.00  0.00    -0.133 F 
ATOM     23  C   UNL     1      34.898 -16.970 -24.291  0.00  0.00    +0.575 C 
ENDBRANCH  19  23
ENDBRANCH  18  19
ENDBRANCH  10  13
BRANCH   3  24
ATOM     24  C   UNL     1      30.935  -5.589 -22.587  0.00  0.00    +0.194 C 
BRANCH  24  27
ATOM     25  N   UNL     1      31.869  -3.356 -22.714  0.00  0.00    -0.217 NA
ATOM     26  N   UNL     1      30.103  -4.004 -24.220  0.00  0.00    -0.195 NA
ATOM     27  C   UNL     1      30.971  -4.226 -23.215  0.00  0.00    +0.028 C 
ATOM     28  C   UNL     1      31.874  -2.141 -23.302  0.00  0.00    +0.164 C 
ATOM     29  C   UNL     1      30.162  -2.769 -24.762  0.00  0.00    +0.107 C 
ATOM     30  C   UNL     1      31.036  -1.788 -24.339  0.00  0.00    +0.022 C 
ENDBRANCH  24  27
ENDBRANCH   3  24
TORSDOF 5
ENDMDL
