MODEL 1
REMARK VINA RESULT:     -12.1      0.000      0.000
REMARK  Name = 24752833
REMARK  4 active torsions:
REMARK  status: ('A' for Active; 'I' for Inactive)
REMARK    1  A    between atoms: C_1  and  N_8
REMARK    2  A    between atoms: C_2  and  N_23
REMARK    3  A    between atoms: C_9  and  C_14
REMARK    4  A    between atoms: C_24  and  C_28
REMARK                            x       y       z     vdW  Elec       q    Type
REMARK                         _______ _______ _______ _____ _____    ______ ____
ROOT
ATOM      1  C   UNL     1      31.494 -23.081 -14.935  0.00  0.00    +0.090 C 
ATOM      2  C   UNL     1      31.019 -23.199 -16.394  0.00  0.00    +0.090 C 
ATOM      3  C   UNL     1      30.558 -23.829 -13.981  0.00  0.00    +0.021 C 
ATOM      4  C   UNL     1      29.553 -22.780 -16.545  0.00  0.00    +0.021 C 
ATOM      5  C   UNL     1      29.105 -23.395 -14.144  0.00  0.00    +0.002 C 
ATOM      6  C   UNL     1      28.641 -23.542 -15.589  0.00  0.00    +0.002 C 
ENDROOT
BRANCH   1   8
ATOM      7  O   UNL     1      32.866 -23.605 -12.467  0.00  0.00    -0.267 OA
ATOM      8  N   UNL     1      32.846 -23.576 -14.785  0.00  0.00    -0.298 N 
ATOM      9  C   UNL     1      33.421 -23.798 -13.545  0.00  0.00    +0.282 C 
ATOM     10  H   UNL     1      33.375 -23.763 -15.594  0.00  0.00    +0.150 HD
BRANCH   9  14
ATOM     11  S   UNL     1      35.815 -24.044 -14.949  0.00  0.00    -0.074 S 
ATOM     12  N   UNL     1      39.158 -26.099 -13.907  0.00  0.00    +0.387 N 
ATOM     13  N   UNL     1      35.379 -24.911 -12.542  0.00  0.00    -0.399 NA
ATOM     14  C   UNL     1      34.825 -24.284 -13.560  0.00  0.00    +0.210 C 
ATOM     15  C   UNL     1      36.678 -25.221 -12.879  0.00  0.00    +0.093 C 
ATOM     16  C   UNL     1      37.080 -24.836 -14.140  0.00  0.00    +0.082 C 
ATOM     17  C   UNL     1      37.589 -25.953 -11.960  0.00  0.00    +0.032 C 
ATOM     18  C   UNL     1      38.450 -25.057 -14.689  0.00  0.00    -0.059 C 
ATOM     19  C   UNL     1      39.053 -25.857 -12.450  0.00  0.00    -0.070 C 
ATOM     20  C   UNL     1      40.559 -26.177 -14.318  0.00  0.00    -0.101 C 
ATOM     21  H   UNL     1      38.707 -26.994 -14.098  0.00  0.00    -0.080 HD
ENDBRANCH   9  14
ENDBRANCH   1   8
BRANCH   2  23
ATOM     22  O   UNL     1      33.400 -24.065 -17.745  0.00  0.00    -0.269 OA
ATOM     23  N   UNL     1      31.848 -22.408 -17.276  0.00  0.00    -0.300 N 
ATOM     24  C   UNL     1      32.983 -22.918 -17.884  0.00  0.00    +0.259 C 
ATOM     25  H   UNL     1      31.595 -21.473 -17.452  0.00  0.00    +0.150 HD
BRANCH  24  28
ATOM     26 CL   UNL     1      35.945 -17.665 -22.709  0.00  0.00    -0.082 Cl
ATOM     27  N   UNL     1      35.105 -21.869 -18.740  0.00  0.00    -0.309 N 
ATOM     28  C   UNL     1      33.740 -21.969 -18.741  0.00  0.00    +0.102 C 
ATOM     29  C   UNL     1      33.248 -21.060 -19.648  0.00  0.00    +0.020 C 
ATOM     30  C   UNL     1      35.510 -20.905 -19.636  0.00  0.00    +0.048 C 
ATOM     31  C   UNL     1      34.357 -20.378 -20.223  0.00  0.00    +0.016 C 
ATOM     32  C   UNL     1      36.796 -20.462 -19.967  0.00  0.00    +0.015 C 
ATOM     33  C   UNL     1      34.491 -19.360 -21.188  0.00  0.00    +0.013 C 
ATOM     34  C   UNL     1      35.771 -18.909 -21.530  0.00  0.00    +0.058 C 
ATOM     35  C   UNL     1      36.904 -19.452 -20.928  0.00  0.00    +0.013 C 
ATOM     36  H   UNL     1      35.710 -22.408 -18.181  0.00  0.00    +0.152 HD
ENDBRANCH  24  28
ENDBRANCH   2  23
TORSDOF 4
ENDMDL
MODEL 2
REMARK VINA RESULT:     -11.5      2.690      7.521
REMARK  Name = 24752833
REMARK  4 active torsions:
REMARK  status: ('A' for Active; 'I' for Inactive)
REMARK    1  A    between atoms: C_1  and  N_8
REMARK    2  A    between atoms: C_2  and  N_23
REMARK    3  A    between atoms: C_9  and  C_14
REMARK    4  A    between atoms: C_24  and  C_28
REMARK                            x       y       z     vdW  Elec       q    Type
REMARK                         _______ _______ _______ _____ _____    ______ ____
ROOT
ATOM      1  C   UNL     1      31.001 -23.134 -16.201  0.00  0.00    +0.090 C 
ATOM      2  C   UNL     1      31.398 -22.851 -14.741  0.00  0.00    +0.090 C 
ATOM      3  C   UNL     1      29.533 -22.779 -16.459  0.00  0.00    +0.021 C 
ATOM      4  C   UNL     1      30.438 -23.524 -13.755  0.00  0.00    +0.021 C 
ATOM      5  C   UNL     1      28.595 -23.462 -15.470  0.00  0.00    +0.002 C 
ATOM      6  C   UNL     1      28.985 -23.152 -14.029  0.00  0.00    +0.002 C 
ENDROOT
BRANCH   1   8
ATOM      7  O   UNL     1      33.452 -24.068 -17.370  0.00  0.00    -0.267 OA
ATOM      8  N   UNL     1      31.850 -22.410 -17.122  0.00  0.00    -0.298 N 
ATOM      9  C   UNL     1      33.020 -22.950 -17.633  0.00  0.00    +0.282 C 
ATOM     10  H   UNL     1      31.588 -21.501 -17.395  0.00  0.00    +0.150 HD
BRANCH   9  14
ATOM     11  S   UNL     1      35.510 -21.999 -18.442  0.00  0.00    -0.074 S 
ATOM     12  N   UNL     1      36.348 -19.051 -21.106  0.00  0.00    +0.387 N 
ATOM     13  N   UNL     1      33.226 -21.313 -19.465  0.00  0.00    -0.399 NA
ATOM     14  C   UNL     1      33.793 -22.070 -18.547  0.00  0.00    +0.210 C 
ATOM     15  C   UNL     1      34.217 -20.630 -20.135  0.00  0.00    +0.093 C 
ATOM     16  C   UNL     1      35.506 -20.872 -19.712  0.00  0.00    +0.082 C 
ATOM     17  C   UNL     1      33.924 -19.666 -21.228  0.00  0.00    +0.032 C 
ATOM     18  C   UNL     1      36.720 -20.252 -20.319  0.00  0.00    -0.059 C 
ATOM     19  C   UNL     1      35.211 -19.321 -22.014  0.00  0.00    -0.070 C 
ATOM     20  C   UNL     1      37.503 -18.559 -21.856  0.00  0.00    -0.101 C 
ATOM     21  H   UNL     1      36.048 -18.329 -20.450  0.00  0.00    -0.080 HD
ENDBRANCH   9  14
ENDBRANCH   1   8
BRANCH   2  23
ATOM     22  O   UNL     1      32.232 -25.461 -13.882  0.00  0.00    -0.269 OA
ATOM     23  N   UNL     1      32.753 -23.282 -14.478  0.00  0.00    -0.300 N 
ATOM     24  C   UNL     1      33.056 -24.569 -14.065  0.00  0.00    +0.259 C 
ATOM     25  H   UNL     1      33.487 -22.637 -14.598  0.00  0.00    +0.150 HD
BRANCH  24  28
ATOM     26 CL   UNL     1      40.612 -26.150 -13.831  0.00  0.00    -0.082 Cl
ATOM     27  N   UNL     1      35.066 -24.818 -12.570  0.00  0.00    -0.309 N 
ATOM     28  C   UNL     1      34.494 -24.846 -13.813  0.00  0.00    +0.102 C 
ATOM     29  C   UNL     1      35.474 -25.165 -14.724  0.00  0.00    +0.020 C 
ATOM     30  C   UNL     1      36.407 -25.115 -12.658  0.00  0.00    +0.048 C 
ATOM     31  C   UNL     1      36.691 -25.338 -14.007  0.00  0.00    +0.016 C 
ATOM     32  C   UNL     1      37.382 -25.200 -11.657  0.00  0.00    +0.015 C 
ATOM     33  C   UNL     1      38.011 -25.663 -14.378  0.00  0.00    +0.013 C 
ATOM     34  C   UNL     1      38.996 -25.754 -13.388  0.00  0.00    +0.058 C 
ATOM     35  C   UNL     1      38.684 -25.525 -12.049  0.00  0.00    +0.013 C 
ATOM     36  H   UNL     1      34.588 -24.616 -11.734  0.00  0.00    +0.152 HD
ENDBRANCH  24  28
ENDBRANCH   2  23
TORSDOF 4
ENDMDL
MODEL 3
REMARK VINA RESULT:     -10.2      3.022      8.289
REMARK  Name = 24752833
REMARK  4 active torsions:
REMARK  status: ('A' for Active; 'I' for Inactive)
REMARK    1  A    between atoms: C_1  and  N_8
REMARK    2  A    between atoms: C_2  and  N_23
REMARK    3  A    between atoms: C_9  and  C_14
REMARK    4  A    between atoms: C_24  and  C_28
REMARK                            x       y       z     vdW  Elec       q    Type
REMARK                         _______ _______ _______ _____ _____    ______ ____
ROOT
ATOM      1  C   UNL     1      37.684 -24.039 -15.066  0.00  0.00    +0.090 C 
ATOM      2  C   UNL     1      36.891 -25.358 -15.050  0.00  0.00    +0.090 C 
ATOM      3  C   UNL     1      39.189 -24.291 -14.930  0.00  0.00    +0.021 C 
ATOM      4  C   UNL     1      37.246 -26.214 -13.830  0.00  0.00    +0.021 C 
ATOM      5  C   UNL     1      39.520 -25.140 -13.708  0.00  0.00    +0.002 C 
ATOM      6  C   UNL     1      38.748 -26.455 -13.719  0.00  0.00    +0.002 C 
ENDROOT
BRANCH   1   8
ATOM      7  O   UNL     1      35.655 -22.040 -15.431  0.00  0.00    -0.267 OA
ATOM      8  N   UNL     1      37.419 -23.287 -16.273  0.00  0.00    -0.298 N 
ATOM      9  C   UNL     1      36.412 -22.338 -16.351  0.00  0.00    +0.282 C 
ATOM     10  H   UNL     1      37.975 -23.454 -17.069  0.00  0.00    +0.150 HD
BRANCH   9  14
ATOM     11  S   UNL     1      34.875 -21.998 -18.649  0.00  0.00    -0.074 S 
ATOM     12  N   UNL     1      35.793 -19.932 -22.022  0.00  0.00    +0.387 N 
ATOM     13  N   UNL     1      37.129 -20.813 -18.150  0.00  0.00    -0.399 NA
ATOM     14  C   UNL     1      36.252 -21.670 -17.668  0.00  0.00    +0.210 C 
ATOM     15  C   UNL     1      36.682 -20.382 -19.379  0.00  0.00    +0.093 C 
ATOM     16  C   UNL     1      35.490 -20.921 -19.809  0.00  0.00    +0.082 C 
ATOM     17  C   UNL     1      37.447 -19.418 -20.214  0.00  0.00    +0.032 C 
ATOM     18  C   UNL     1      34.824 -20.570 -21.098  0.00  0.00    -0.059 C 
ATOM     19  C   UNL     1      36.563 -18.859 -21.354  0.00  0.00    -0.070 C 
ATOM     20  C   UNL     1      35.102 -19.414 -23.202  0.00  0.00    -0.101 C 
ATOM     21  H   UNL     1      36.460 -20.646 -22.317  0.00  0.00    -0.080 HD
ENDBRANCH   9  14
ENDBRANCH   1   8
BRANCH   2  23
ATOM     22  O   UNL     1      35.299 -24.273 -12.921  0.00  0.00    -0.269 OA
ATOM     23  N   UNL     1      35.467 -25.109 -15.076  0.00  0.00    -0.300 N 
ATOM     24  C   UNL     1      34.785 -24.580 -13.993  0.00  0.00    +0.259 C 
ATOM     25  H   UNL     1      34.964 -25.322 -15.896  0.00  0.00    +0.150 HD
BRANCH  24  28
ATOM     26 CL   UNL     1      27.414 -22.712 -15.346  0.00  0.00    -0.082 Cl
ATOM     27  N   UNL     1      32.395 -25.352 -13.814  0.00  0.00    -0.309 N 
ATOM     28  C   UNL     1      33.320 -24.408 -14.171  0.00  0.00    +0.102 C 
ATOM     29  C   UNL     1      32.646 -23.332 -14.700  0.00  0.00    +0.020 C 
ATOM     30  C   UNL     1      31.126 -24.906 -14.103  0.00  0.00    +0.048 C 
ATOM     31  C   UNL     1      31.255 -23.632 -14.663  0.00  0.00    +0.016 C 
ATOM     32  C   UNL     1      29.885 -25.525 -13.915  0.00  0.00    +0.015 C 
ATOM     33  C   UNL     1      30.091 -22.942 -15.054  0.00  0.00    +0.013 C 
ATOM     34  C   UNL     1      28.843 -23.548 -14.871  0.00  0.00    +0.058 C 
ATOM     35  C   UNL     1      28.744 -24.820 -14.309  0.00  0.00    +0.013 C 
ATOM     36  H   UNL     1      32.607 -26.223 -13.410  0.00  0.00    +0.152 HD
ENDBRANCH  24  28
ENDBRANCH   2  23
TORSDOF 4
ENDMDL
MODEL 4
REMARK VINA RESULT:     -10.2      3.081      7.278
REMARK  Name = 24752833
REMARK  4 active torsions:
REMARK  status: ('A' for Active; 'I' for Inactive)
REMARK    1  A    between atoms: C_1  and  N_8
REMARK    2  A    between atoms: C_2  and  N_23
REMARK    3  A    between atoms: C_9  and  C_14
REMARK    4  A    between atoms: C_24  and  C_28
REMARK                            x       y       z     vdW  Elec       q    Type
REMARK                         _______ _______ _______ _____ _____    ______ ____
ROOT
ATOM      1  C   UNL     1      31.776 -23.862 -15.758  0.00  0.00    +0.090 C 
ATOM      2  C   UNL     1      32.328 -23.790 -14.323  0.00  0.00    +0.090 C 
ATOM      3  C   UNL     1      30.284 -23.514 -15.799  0.00  0.00    +0.021 C 
ATOM      4  C   UNL     1      31.491 -24.631 -13.353  0.00  0.00    +0.021 C 
ATOM      5  C   UNL     1      29.469 -24.365 -14.831  0.00  0.00    +0.002 C 
ATOM      6  C   UNL     1      30.012 -24.263 -13.410  0.00  0.00    +0.002 C 
ENDROOT
BRANCH   1   8
ATOM      7  O   UNL     1      33.366 -24.644 -18.017  0.00  0.00    -0.267 OA
ATOM      8  N   UNL     1      32.509 -22.985 -16.643  0.00  0.00    -0.298 N 
ATOM      9  C   UNL     1      33.252 -23.461 -17.712  0.00  0.00    +0.282 C 
ATOM     10  H   UNL     1      32.480 -22.014 -16.481  0.00  0.00    +0.150 HD
BRANCH   9  14
ATOM     11  S   UNL     1      33.088 -21.320 -19.488  0.00  0.00    -0.074 S 
ATOM     12  N   UNL     1      36.103 -19.377 -21.391  0.00  0.00    +0.387 N 
ATOM     13  N   UNL     1      35.280 -22.317 -18.521  0.00  0.00    -0.399 NA
ATOM     14  C   UNL     1      33.968 -22.433 -18.512  0.00  0.00    +0.210 C 
ATOM     15  C   UNL     1      35.616 -21.274 -19.355  0.00  0.00    +0.093 C 
ATOM     16  C   UNL     1      34.563 -20.629 -19.967  0.00  0.00    +0.082 C 
ATOM     17  C   UNL     1      37.027 -20.880 -19.613  0.00  0.00    +0.032 C 
ATOM     18  C   UNL     1      34.711 -19.464 -20.887  0.00  0.00    -0.059 C 
ATOM     19  C   UNL     1      37.092 -19.493 -20.295  0.00  0.00    -0.070 C 
ATOM     20  C   UNL     1      36.297 -18.133 -22.133  0.00  0.00    -0.101 C 
ATOM     21  H   UNL     1      36.257 -20.165 -22.021  0.00  0.00    -0.080 HD
ENDBRANCH   9  14
ENDBRANCH   1   8
BRANCH   2  23
ATOM     22  O   UNL     1      34.647 -22.144 -14.714  0.00  0.00    -0.269 OA
ATOM     23  N   UNL     1      33.709 -24.217 -14.276  0.00  0.00    -0.300 N 
ATOM     24  C   UNL     1      34.764 -23.344 -14.479  0.00  0.00    +0.259 C 
ATOM     25  H   UNL     1      33.906 -25.164 -14.091  0.00  0.00    +0.150 HD
BRANCH  24  28
ATOM     26 CL   UNL     1      41.411 -27.136 -13.437  0.00  0.00    -0.082 Cl
ATOM     27  N   UNL     1      37.171 -23.521 -15.193  0.00  0.00    -0.309 N 
ATOM     28  C   UNL     1      36.122 -23.944 -14.423  0.00  0.00    +0.102 C 
ATOM     29  C   UNL     1      36.564 -24.982 -13.636  0.00  0.00    +0.020 C 
ATOM     30  C   UNL     1      38.294 -24.269 -14.918  0.00  0.00    +0.048 C 
ATOM     31  C   UNL     1      37.938 -25.199 -13.938  0.00  0.00    +0.016 C 
ATOM     32  C   UNL     1      39.583 -24.196 -15.456  0.00  0.00    +0.015 C 
ATOM     33  C   UNL     1      38.915 -26.101 -13.472  0.00  0.00    +0.013 C 
ATOM     34  C   UNL     1      40.210 -26.038 -14.000  0.00  0.00    +0.058 C 
ATOM     35  C   UNL     1      40.536 -25.100 -14.978  0.00  0.00    +0.013 C 
ATOM     36  H   UNL     1      37.130 -22.787 -15.847  0.00  0.00    +0.152 HD
ENDBRANCH  24  28
ENDBRANCH   2  23
TORSDOF 4
ENDMDL
