MODEL 1
REMARK VINA RESULT:     -11.6      0.000      0.000
REMARK  Name = 24748573
REMARK  3 active torsions:
REMARK  status: ('A' for Active; 'I' for Inactive)
REMARK    1  A    between atoms: N_2  and  C_18
REMARK    2  A    between atoms: C_13  and  C_25
REMARK    3  A    between atoms: C_25  and  O_26
REMARK                            x       y       z     vdW  Elec       q    Type
REMARK                         _______ _______ _______ _____ _____    ______ ____
ROOT
ATOM      1  N   UNL     1      34.596 -23.173 -16.518  0.00  0.00    -0.391 NA
ATOM      2  N   UNL     1      32.888 -22.520 -17.992  0.00  0.00    -0.288 N 
ATOM      3  N   UNL     1      30.359 -23.824 -13.822  0.00  0.00    -0.243 NA
ATOM      4  C   UNL     1      34.118 -23.938 -14.275  0.00  0.00    +0.098 C 
ATOM      5  C   UNL     1      32.717 -23.750 -14.514  0.00  0.00    +0.011 C 
ATOM      6  C   UNL     1      32.294 -23.271 -15.767  0.00  0.00    +0.044 C 
ATOM      7  C   UNL     1      35.011 -23.629 -15.326  0.00  0.00    +0.119 C 
ATOM      8  C   UNL     1      33.271 -23.005 -16.716  0.00  0.00    +0.183 C 
ATOM      9  C   UNL     1      34.659 -24.413 -13.055  0.00  0.00    -0.015 C 
ATOM     10  C   UNL     1      36.379 -23.801 -15.128  0.00  0.00    +0.035 C 
ATOM     11  C   UNL     1      30.934 -23.075 -16.037  0.00  0.00    +0.024 C 
ATOM     12  C   UNL     1      31.683 -24.003 -13.592  0.00  0.00    +0.095 C 
ATOM     13  C   UNL     1      36.894 -24.270 -13.920  0.00  0.00    +0.077 C 
ATOM     14  C   UNL     1      36.032 -24.577 -12.881  0.00  0.00    +0.003 C 
ATOM     15  C   UNL     1      30.019 -23.364 -15.042  0.00  0.00    +0.099 C 
ATOM     16  H   UNL     1      32.000 -22.830 -18.284  0.00  0.00    +0.155 HD
ENDROOT
BRANCH   2  18
ATOM     17 CL   UNL     1      37.278 -20.848 -20.037  0.00  0.00    -0.082 Cl
ATOM     18  C   UNL     1      33.530 -21.686 -18.920  0.00  0.00    +0.051 C 
ATOM     19  C   UNL     1      34.923 -21.680 -19.005  0.00  0.00    +0.026 C 
ATOM     20  C   UNL     1      32.776 -20.865 -19.759  0.00  0.00    +0.015 C 
ATOM     21  C   UNL     1      35.561 -20.854 -19.930  0.00  0.00    +0.059 C 
ATOM     22  C   UNL     1      33.415 -20.039 -20.683  0.00  0.00    +0.002 C 
ATOM     23  C   UNL     1      34.807 -20.034 -20.769  0.00  0.00    +0.011 C 
ENDBRANCH   2  18
BRANCH  13  25
ATOM     24  O   UNL     1      38.902 -24.675 -12.685  0.00  0.00    -0.245 OA
ATOM     25  C   UNL     1      38.328 -24.434 -13.753  0.00  0.00    +0.338 C 
BRANCH  25  26
ATOM     26  O   UNL     1      39.009 -24.296 -14.924  0.00  0.00    -0.477 OA
ATOM     27  H   UNL     1      39.290 -25.056 -15.395  0.00  0.00    +0.295 HD
ENDBRANCH  25  26
ENDBRANCH  13  25
TORSDOF 3
ENDMDL
MODEL 2
REMARK VINA RESULT:     -11.5      1.151      1.757
REMARK  Name = 24748573
REMARK  3 active torsions:
REMARK  status: ('A' for Active; 'I' for Inactive)
REMARK    1  A    between atoms: N_2  and  C_18
REMARK    2  A    between atoms: C_13  and  C_25
REMARK    3  A    between atoms: C_25  and  O_26
REMARK                            x       y       z     vdW  Elec       q    Type
REMARK                         _______ _______ _______ _____ _____    ______ ____
ROOT
ATOM      1  N   UNL     1      35.018 -23.329 -15.829  0.00  0.00    -0.391 NA
ATOM      2  N   UNL     1      33.715 -22.733 -17.690  0.00  0.00    -0.288 N 
ATOM      3  N   UNL     1      30.263 -23.596 -14.108  0.00  0.00    -0.243 NA
ATOM      4  C   UNL     1      34.018 -23.891 -13.701  0.00  0.00    +0.098 C 
ATOM      5  C   UNL     1      32.716 -23.669 -14.260  0.00  0.00    +0.011 C 
ATOM      6  C   UNL     1      32.606 -23.278 -15.606  0.00  0.00    +0.044 C 
ATOM      7  C   UNL     1      35.136 -23.702 -14.546  0.00  0.00    +0.119 C 
ATOM      8  C   UNL     1      33.781 -23.127 -16.329  0.00  0.00    +0.183 C 
ATOM      9  C   UNL     1      34.250 -24.286 -12.361  0.00  0.00    -0.015 C 
ATOM     10  C   UNL     1      36.415 -23.911 -14.035  0.00  0.00    +0.035 C 
ATOM     11  C   UNL     1      31.351 -23.052 -16.186  0.00  0.00    +0.024 C 
ATOM     12  C   UNL     1      31.492 -23.807 -13.577  0.00  0.00    +0.095 C 
ATOM     13  C   UNL     1      36.625 -24.299 -12.713  0.00  0.00    +0.077 C 
ATOM     14  C   UNL     1      35.540 -24.488 -11.874  0.00  0.00    +0.003 C 
ATOM     15  C   UNL     1      30.226 -23.224 -15.402  0.00  0.00    +0.099 C 
ATOM     16  H   UNL     1      32.897 -23.030 -18.150  0.00  0.00    +0.155 HD
ENDROOT
BRANCH   2  18
ATOM     17 CL   UNL     1      34.344 -19.631 -21.719  0.00  0.00    -0.082 Cl
ATOM     18  C   UNL     1      34.590 -22.002 -18.507  0.00  0.00    +0.051 C 
ATOM     19  C   UNL     1      34.090 -21.268 -19.583  0.00  0.00    +0.026 C 
ATOM     20  C   UNL     1      35.960 -22.006 -18.241  0.00  0.00    +0.015 C 
ATOM     21  C   UNL     1      34.960 -20.538 -20.393  0.00  0.00    +0.059 C 
ATOM     22  C   UNL     1      36.829 -21.276 -19.052  0.00  0.00    +0.002 C 
ATOM     23  C   UNL     1      36.329 -20.541 -20.127  0.00  0.00    +0.011 C 
ENDBRANCH   2  18
BRANCH  13  25
ATOM     24  O   UNL     1      38.987 -24.612 -12.921  0.00  0.00    -0.245 OA
ATOM     25  C   UNL     1      37.977 -24.504 -12.219  0.00  0.00    +0.338 C 
BRANCH  25  26
ATOM     26  O   UNL     1      38.030 -24.567 -10.860  0.00  0.00    -0.477 OA
ATOM     27  H   UNL     1      38.860 -24.572 -10.424  0.00  0.00    +0.295 HD
ENDBRANCH  25  26
ENDBRANCH  13  25
TORSDOF 3
ENDMDL
MODEL 3
REMARK VINA RESULT:     -10.5      3.688      6.963
REMARK  Name = 24748573
REMARK  3 active torsions:
REMARK  status: ('A' for Active; 'I' for Inactive)
REMARK    1  A    between atoms: N_2  and  C_18
REMARK    2  A    between atoms: C_13  and  C_25
REMARK    3  A    between atoms: C_25  and  O_26
REMARK                            x       y       z     vdW  Elec       q    Type
REMARK                         _______ _______ _______ _____ _____    ______ ____
ROOT
ATOM      1  N   UNL     1      33.848 -23.037 -16.876  0.00  0.00    -0.391 NA
ATOM      2  N   UNL     1      33.658 -24.368 -14.950  0.00  0.00    -0.288 N 
ATOM      3  N   UNL     1      38.588 -23.290 -15.111  0.00  0.00    -0.243 NA
ATOM      4  C   UNL     1      35.972 -22.134 -17.595  0.00  0.00    +0.098 C 
ATOM      5  C   UNL     1      36.612 -22.761 -16.477  0.00  0.00    +0.011 C 
ATOM      6  C   UNL     1      35.838 -23.516 -15.579  0.00  0.00    +0.044 C 
ATOM      7  C   UNL     1      34.576 -22.313 -17.739  0.00  0.00    +0.119 C 
ATOM      8  C   UNL     1      34.477 -23.616 -15.830  0.00  0.00    +0.183 C 
ATOM      9  C   UNL     1      36.649 -21.351 -18.562  0.00  0.00    -0.015 C 
ATOM     10  C   UNL     1      33.923 -21.719 -18.816  0.00  0.00    +0.035 C 
ATOM     11  C   UNL     1      36.428 -24.143 -14.473  0.00  0.00    +0.024 C 
ATOM     12  C   UNL     1      37.985 -22.696 -16.170  0.00  0.00    +0.095 C 
ATOM     13  C   UNL     1      34.606 -20.951 -19.758  0.00  0.00    +0.077 C 
ATOM     14  C   UNL     1      35.973 -20.767 -19.631  0.00  0.00    +0.003 C 
ATOM     15  C   UNL     1      37.791 -24.000 -14.289  0.00  0.00    +0.099 C 
ATOM     16  H   UNL     1      34.127 -25.117 -14.515  0.00  0.00    +0.155 HD
ENDROOT
BRANCH   2  18
ATOM     17 CL   UNL     1      28.989 -22.547 -16.015  0.00  0.00    -0.082 Cl
ATOM     18  C   UNL     1      32.310 -24.251 -14.578  0.00  0.00    +0.051 C 
ATOM     19  C   UNL     1      31.424 -23.538 -15.386  0.00  0.00    +0.026 C 
ATOM     20  C   UNL     1      31.856 -24.851 -13.404  0.00  0.00    +0.015 C 
ATOM     21  C   UNL     1      30.083 -23.426 -15.019  0.00  0.00    +0.059 C 
ATOM     22  C   UNL     1      30.515 -24.738 -13.037  0.00  0.00    +0.002 C 
ATOM     23  C   UNL     1      29.628 -24.026 -13.845  0.00  0.00    +0.011 C 
ENDBRANCH   2  18
BRANCH  13  25
ATOM     24  O   UNL     1      34.406 -19.819 -21.856  0.00  0.00    -0.245 OA
ATOM     25  C   UNL     1      33.886 -20.347 -20.867  0.00  0.00    +0.338 C 
BRANCH  25  26
ATOM     26  O   UNL     1      32.535 -20.419 -20.712  0.00  0.00    -0.477 OA
ATOM     27  H   UNL     1      32.172 -20.828 -19.951  0.00  0.00    +0.295 HD
ENDBRANCH  25  26
ENDBRANCH  13  25
TORSDOF 3
ENDMDL
MODEL 4
REMARK VINA RESULT:     -10.4      2.672      6.096
REMARK  Name = 24748573
REMARK  3 active torsions:
REMARK  status: ('A' for Active; 'I' for Inactive)
REMARK    1  A    between atoms: N_2  and  C_18
REMARK    2  A    between atoms: C_13  and  C_25
REMARK    3  A    between atoms: C_25  and  O_26
REMARK                            x       y       z     vdW  Elec       q    Type
REMARK                         _______ _______ _______ _____ _____    ______ ____
ROOT
ATOM      1  N   UNL     1      35.206 -23.295 -15.488  0.00  0.00    -0.391 NA
ATOM      2  N   UNL     1      35.141 -24.320 -13.376  0.00  0.00    -0.288 N 
ATOM      3  N   UNL     1      30.280 -24.189 -14.732  0.00  0.00    -0.243 NA
ATOM      4  C   UNL     1      33.198 -22.893 -16.771  0.00  0.00    +0.098 C 
ATOM      5  C   UNL     1      32.416 -23.482 -15.724  0.00  0.00    +0.011 C 
ATOM      6  C   UNL     1      33.065 -23.966 -14.574  0.00  0.00    +0.044 C 
ATOM      7  C   UNL     1      34.598 -22.830 -16.590  0.00  0.00    +0.119 C 
ATOM      8  C   UNL     1      34.446 -23.844 -14.517  0.00  0.00    +0.183 C 
ATOM      9  C   UNL     1      32.654 -22.373 -17.971  0.00  0.00    -0.015 C 
ATOM     10  C   UNL     1      35.387 -22.263 -17.588  0.00  0.00    +0.035 C 
ATOM     11  C   UNL     1      32.335 -24.548 -13.529  0.00  0.00    +0.024 C 
ATOM     12  C   UNL     1      31.016 -23.632 -15.724  0.00  0.00    +0.095 C 
ATOM     13  C   UNL     1      34.834 -21.756 -18.763  0.00  0.00    +0.077 C 
ATOM     14  C   UNL     1      33.464 -21.812 -18.956  0.00  0.00    +0.003 C 
ATOM     15  C   UNL     1      30.961 -24.633 -13.658  0.00  0.00    +0.099 C 
ATOM     16  H   UNL     1      34.616 -24.276 -12.544  0.00  0.00    +0.155 HD
ENDROOT
BRANCH   2  18
ATOM     17 CL   UNL     1      39.906 -24.842 -15.186  0.00  0.00    -0.082 Cl
ATOM     18  C   UNL     1      36.432 -24.842 -13.203  0.00  0.00    +0.051 C 
ATOM     19  C   UNL     1      37.412 -24.612 -14.169  0.00  0.00    +0.026 C 
ATOM     20  C   UNL     1      36.737 -25.587 -12.064  0.00  0.00    +0.015 C 
ATOM     21  C   UNL     1      38.697 -25.126 -13.995  0.00  0.00    +0.059 C 
ATOM     22  C   UNL     1      38.022 -26.102 -11.891  0.00  0.00    +0.002 C 
ATOM     23  C   UNL     1      39.002 -25.871 -12.856  0.00  0.00    +0.011 C 
ENDBRANCH   2  18
BRANCH  13  25
ATOM     24  O   UNL     1      35.310 -20.482 -20.731  0.00  0.00    -0.245 OA
ATOM     25  C   UNL     1      35.693 -21.174 -19.782  0.00  0.00    +0.338 C 
BRANCH  25  26
ATOM     26  O   UNL     1      37.007 -21.471 -19.587  0.00  0.00    -0.477 OA
ATOM     27  H   UNL     1      37.304 -21.752 -18.743  0.00  0.00    +0.295 HD
ENDBRANCH  25  26
ENDBRANCH  13  25
TORSDOF 3
ENDMDL
MODEL 5
REMARK VINA RESULT:     -10.4      3.276      6.063
REMARK  Name = 24748573
REMARK  3 active torsions:
REMARK  status: ('A' for Active; 'I' for Inactive)
REMARK    1  A    between atoms: N_2  and  C_18
REMARK    2  A    between atoms: C_13  and  C_25
REMARK    3  A    between atoms: C_25  and  O_26
REMARK                            x       y       z     vdW  Elec       q    Type
REMARK                         _______ _______ _______ _____ _____    ______ ____
ROOT
ATOM      1  N   UNL     1      34.079 -23.689 -15.432  0.00  0.00    -0.391 NA
ATOM      2  N   UNL     1      32.879 -24.820 -13.760  0.00  0.00    -0.288 N 
ATOM      3  N   UNL     1      37.202 -23.618 -11.447  0.00  0.00    -0.243 NA
ATOM      4  C   UNL     1      36.292 -22.802 -15.032  0.00  0.00    +0.098 C 
ATOM      5  C   UNL     1      36.239 -23.291 -13.686  0.00  0.00    +0.011 C 
ATOM      6  C   UNL     1      35.090 -23.974 -13.249  0.00  0.00    +0.044 C 
ATOM      7  C   UNL     1      35.170 -23.036 -15.860  0.00  0.00    +0.119 C 
ATOM      8  C   UNL     1      34.056 -24.139 -14.159  0.00  0.00    +0.183 C 
ATOM      9  C   UNL     1      37.395 -22.103 -15.581  0.00  0.00    -0.015 C 
ATOM     10  C   UNL     1      35.189 -22.576 -17.174  0.00  0.00    +0.035 C 
ATOM     11  C   UNL     1      35.002 -24.466 -11.940  0.00  0.00    +0.024 C 
ATOM     12  C   UNL     1      37.255 -23.155 -12.719  0.00  0.00    +0.095 C 
ATOM     13  C   UNL     1      36.283 -21.889 -17.698  0.00  0.00    +0.077 C 
ATOM     14  C   UNL     1      37.389 -21.652 -16.899  0.00  0.00    +0.003 C 
ATOM     15  C   UNL     1      36.074 -24.264 -11.090  0.00  0.00    +0.099 C 
ATOM     16  H   UNL     1      33.031 -25.507 -13.071  0.00  0.00    +0.155 HD
ENDROOT
BRANCH   2  18
ATOM     17 CL   UNL     1      29.331 -22.271 -16.437  0.00  0.00    -0.082 Cl
ATOM     18  C   UNL     1      31.538 -24.707 -14.158  0.00  0.00    +0.051 C 
ATOM     19  C   UNL     1      31.146 -23.665 -15.000  0.00  0.00    +0.026 C 
ATOM     20  C   UNL     1      30.597 -25.637 -13.715  0.00  0.00    +0.015 C 
ATOM     21  C   UNL     1      29.814 -23.554 -15.398  0.00  0.00    +0.059 C 
ATOM     22  C   UNL     1      29.265 -25.525 -14.113  0.00  0.00    +0.002 C 
ATOM     23  C   UNL     1      28.874 -24.484 -14.956  0.00  0.00    +0.011 C 
ENDBRANCH   2  18
BRANCH  13  25
ATOM     24  O   UNL     1      36.820 -20.404 -19.495  0.00  0.00    -0.245 OA
ATOM     25  C   UNL     1      36.262 -21.423 -19.075  0.00  0.00    +0.338 C 
BRANCH  25  26
ATOM     26  O   UNL     1      35.545 -22.243 -19.891  0.00  0.00    -0.477 OA
ATOM     27  H   UNL     1      35.988 -22.817 -20.485  0.00  0.00    +0.295 HD
ENDBRANCH  25  26
ENDBRANCH  13  25
TORSDOF 3
ENDMDL
MODEL 6
REMARK VINA RESULT:     -10.3      3.531      6.803
REMARK  Name = 24748573
REMARK  3 active torsions:
REMARK  status: ('A' for Active; 'I' for Inactive)
REMARK    1  A    between atoms: N_2  and  C_18
REMARK    2  A    between atoms: C_13  and  C_25
REMARK    3  A    between atoms: C_25  and  O_26
REMARK                            x       y       z     vdW  Elec       q    Type
REMARK                         _______ _______ _______ _____ _____    ______ ____
ROOT
ATOM      1  N   UNL     1      34.350 -24.076 -15.236  0.00  0.00    -0.391 NA
ATOM      2  N   UNL     1      36.628 -23.820 -15.749  0.00  0.00    -0.288 N 
ATOM      3  N   UNL     1      34.333 -21.221 -19.418  0.00  0.00    -0.243 NA
ATOM      4  C   UNL     1      32.619 -23.075 -16.594  0.00  0.00    +0.098 C 
ATOM      5  C   UNL     1      33.621 -22.527 -17.460  0.00  0.00    +0.011 C 
ATOM      6  C   UNL     1      34.977 -22.774 -17.181  0.00  0.00    +0.044 C 
ATOM      7  C   UNL     1      33.054 -23.846 -15.492  0.00  0.00    +0.119 C 
ATOM      8  C   UNL     1      35.273 -23.547 -16.067  0.00  0.00    +0.183 C 
ATOM      9  C   UNL     1      31.226 -22.893 -16.776  0.00  0.00    -0.015 C 
ATOM     10  C   UNL     1      32.105 -24.395 -14.632  0.00  0.00    +0.035 C 
ATOM     11  C   UNL     1      35.985 -22.254 -18.004  0.00  0.00    +0.024 C 
ATOM     12  C   UNL     1      33.382 -21.738 -18.602  0.00  0.00    +0.095 C 
ATOM     13  C   UNL     1      30.738 -24.205 -14.826  0.00  0.00    +0.077 C 
ATOM     14  C   UNL     1      30.297 -23.452 -15.901  0.00  0.00    +0.003 C 
ATOM     15  C   UNL     1      35.612 -21.494 -19.096  0.00  0.00    +0.099 C 
ATOM     16  H   UNL     1      37.221 -23.854 -16.534  0.00  0.00    +0.155 HD
ENDROOT
BRANCH   2  18
ATOM     17 CL   UNL     1      37.063 -22.744 -10.758  0.00  0.00    -0.082 Cl
ATOM     18  C   UNL     1      37.286 -24.052 -14.532  0.00  0.00    +0.051 C 
ATOM     19  C   UNL     1      36.895 -23.361 -13.384  0.00  0.00    +0.026 C 
ATOM     20  C   UNL     1      38.330 -24.975 -14.468  0.00  0.00    +0.015 C 
ATOM     21  C   UNL     1      37.546 -23.595 -12.174  0.00  0.00    +0.059 C 
ATOM     22  C   UNL     1      38.981 -25.208 -13.257  0.00  0.00    +0.002 C 
ATOM     23  C   UNL     1      38.589 -24.518 -12.110  0.00  0.00    +0.011 C 
ENDBRANCH   2  18
BRANCH  13  25
ATOM     24  O   UNL     1      28.607 -25.070 -14.170  0.00  0.00    -0.245 OA
ATOM     25  C   UNL     1      29.781 -24.794 -13.904  0.00  0.00    +0.338 C 
BRANCH  25  26
ATOM     26  O   UNL     1      30.317 -25.023 -12.673  0.00  0.00    -0.477 OA
ATOM     27  H   UNL     1      31.223 -24.845 -12.516  0.00  0.00    +0.295 HD
ENDBRANCH  25  26
ENDBRANCH  13  25
TORSDOF 3
ENDMDL
MODEL 7
REMARK VINA RESULT:     -10.0      2.876      5.416
REMARK  Name = 24748573
REMARK  3 active torsions:
REMARK  status: ('A' for Active; 'I' for Inactive)
REMARK    1  A    between atoms: N_2  and  C_18
REMARK    2  A    between atoms: C_13  and  C_25
REMARK    3  A    between atoms: C_25  and  O_26
REMARK                            x       y       z     vdW  Elec       q    Type
REMARK                         _______ _______ _______ _____ _____    ______ ____
ROOT
ATOM      1  N   UNL     1      33.685 -23.315 -14.820  0.00  0.00    -0.391 NA
ATOM      2  N   UNL     1      31.993 -22.685 -16.322  0.00  0.00    -0.288 N 
ATOM      3  N   UNL     1      36.218 -21.942 -18.984  0.00  0.00    -0.243 NA
ATOM      4  C   UNL     1      36.024 -23.220 -15.423  0.00  0.00    +0.098 C 
ATOM      5  C   UNL     1      35.664 -22.731 -16.722  0.00  0.00    +0.011 C 
ATOM      6  C   UNL     1      34.305 -22.548 -17.032  0.00  0.00    +0.044 C 
ATOM      7  C   UNL     1      34.978 -23.494 -14.511  0.00  0.00    +0.119 C 
ATOM      8  C   UNL     1      33.374 -22.854 -16.050  0.00  0.00    +0.183 C 
ATOM      9  C   UNL     1      37.357 -23.442 -14.999  0.00  0.00    -0.015 C 
ATOM     10  C   UNL     1      35.293 -23.969 -13.241  0.00  0.00    +0.035 C 
ATOM     11  C   UNL     1      33.915 -22.073 -18.292  0.00  0.00    +0.024 C 
ATOM     12  C   UNL     1      36.561 -22.404 -17.757  0.00  0.00    +0.095 C 
ATOM     13  C   UNL     1      36.611 -24.182 -12.840  0.00  0.00    +0.077 C 
ATOM     14  C   UNL     1      37.646 -23.918 -13.722  0.00  0.00    +0.003 C 
ATOM     15  C   UNL     1      34.900 -21.788 -19.219  0.00  0.00    +0.099 C 
ATOM     16  H   UNL     1      31.800 -21.964 -16.964  0.00  0.00    +0.155 HD
ENDROOT
BRANCH   2  18
ATOM     17 CL   UNL     1      26.959 -22.537 -15.376  0.00  0.00    -0.082 Cl
ATOM     18  C   UNL     1      30.848 -23.345 -15.852  0.00  0.00    +0.051 C 
ATOM     19  C   UNL     1      29.617 -22.688 -15.845  0.00  0.00    +0.026 C 
ATOM     20  C   UNL     1      30.939 -24.660 -15.394  0.00  0.00    +0.015 C 
ATOM     21  C   UNL     1      28.478 -23.346 -15.382  0.00  0.00    +0.059 C 
ATOM     22  C   UNL     1      29.799 -25.317 -14.931  0.00  0.00    +0.002 C 
ATOM     23  C   UNL     1      28.569 -24.661 -14.925  0.00  0.00    +0.011 C 
ENDBRANCH   2  18
BRANCH  13  25
ATOM     24  O   UNL     1      37.942 -24.483 -10.875  0.00  0.00    -0.245 OA
ATOM     25  C   UNL     1      36.897 -24.680 -11.505  0.00  0.00    +0.338 C 
BRANCH  25  26
ATOM     26  O   UNL     1      35.869 -25.410 -10.990  0.00  0.00    -0.477 OA
ATOM     27  H   UNL     1      35.346 -25.945 -11.554  0.00  0.00    +0.295 HD
ENDBRANCH  25  26
ENDBRANCH  13  25
TORSDOF 3
ENDMDL
MODEL 8
REMARK VINA RESULT:      -9.9      8.514     12.077
REMARK  Name = 24748573
REMARK  3 active torsions:
REMARK  status: ('A' for Active; 'I' for Inactive)
REMARK    1  A    between atoms: N_2  and  C_18
REMARK    2  A    between atoms: C_13  and  C_25
REMARK    3  A    between atoms: C_25  and  O_26
REMARK                            x       y       z     vdW  Elec       q    Type
REMARK                         _______ _______ _______ _____ _____    ______ ____
ROOT
ATOM      1  N   UNL     1      34.022 -14.200 -22.253  0.00  0.00    -0.391 NA
ATOM      2  N   UNL     1      33.207 -12.054 -22.749  0.00  0.00    -0.288 N 
ATOM      3  N   UNL     1      33.643 -14.191 -27.302  0.00  0.00    -0.243 NA
ATOM      4  C   UNL     1      34.479 -15.821 -23.986  0.00  0.00    +0.098 C 
ATOM      5  C   UNL     1      34.062 -14.873 -24.977  0.00  0.00    +0.011 C 
ATOM      6  C   UNL     1      33.631 -13.598 -24.567  0.00  0.00    +0.044 C 
ATOM      7  C   UNL     1      34.435 -15.419 -22.632  0.00  0.00    +0.119 C 
ATOM      8  C   UNL     1      33.635 -13.326 -23.206  0.00  0.00    +0.183 C 
ATOM      9  C   UNL     1      34.932 -17.130 -24.281  0.00  0.00    -0.015 C 
ATOM     10  C   UNL     1      34.835 -16.316 -21.644  0.00  0.00    +0.035 C 
ATOM     11  C   UNL     1      33.216 -12.645 -25.506  0.00  0.00    +0.024 C 
ATOM     12  C   UNL     1      34.038 -15.091 -26.368  0.00  0.00    +0.095 C 
ATOM     13  C   UNL     1      35.277 -17.601 -21.953  0.00  0.00    +0.077 C 
ATOM     14  C   UNL     1      35.326 -18.010 -23.275  0.00  0.00    +0.003 C 
ATOM     15  C   UNL     1      33.242 -12.989 -26.845  0.00  0.00    +0.099 C 
ATOM     16  H   UNL     1      33.375 -11.325 -23.390  0.00  0.00    +0.155 HD
ENDROOT
BRANCH   2  18
ATOM     17 CL   UNL     1      31.729  -8.173 -19.748  0.00  0.00    -0.082 Cl
ATOM     18  C   UNL     1      32.591 -11.633 -21.561  0.00  0.00    +0.051 C 
ATOM     19  C   UNL     1      32.482 -10.271 -21.277  0.00  0.00    +0.026 C 
ATOM     20  C   UNL     1      32.086 -12.575 -20.665  0.00  0.00    +0.015 C 
ATOM     21  C   UNL     1      31.866  -9.852 -20.098  0.00  0.00    +0.059 C 
ATOM     22  C   UNL     1      31.471 -12.155 -19.485  0.00  0.00    +0.002 C 
ATOM     23  C   UNL     1      31.361 -10.794 -19.202  0.00  0.00    +0.011 C 
ENDBRANCH   2  18
BRANCH  13  25
ATOM     24  O   UNL     1      36.791 -18.518 -20.344  0.00  0.00    -0.245 OA
ATOM     25  C   UNL     1      35.684 -18.507 -20.892  0.00  0.00    +0.338 C 
BRANCH  25  26
ATOM     26  O   UNL     1      34.695 -19.375 -20.540  0.00  0.00    -0.477 OA
ATOM     27  H   UNL     1      34.905 -20.162 -20.077  0.00  0.00    +0.295 HD
ENDBRANCH  25  26
ENDBRANCH  13  25
TORSDOF 3
ENDMDL
MODEL 9
REMARK VINA RESULT:      -9.7     11.769     14.511
REMARK  Name = 24748573
REMARK  3 active torsions:
REMARK  status: ('A' for Active; 'I' for Inactive)
REMARK    1  A    between atoms: N_2  and  C_18
REMARK    2  A    between atoms: C_13  and  C_25
REMARK    3  A    between atoms: C_25  and  O_26
REMARK                            x       y       z     vdW  Elec       q    Type
REMARK                         _______ _______ _______ _____ _____    ______ ____
ROOT
ATOM      1  N   UNL     1      33.176 -10.684 -23.220  0.00  0.00    -0.391 NA
ATOM      2  N   UNL     1      32.605  -8.516 -22.520  0.00  0.00    -0.288 N 
ATOM      3  N   UNL     1      31.197 -11.385 -18.612  0.00  0.00    -0.243 NA
ATOM      4  C   UNL     1      32.782 -12.618 -21.824  0.00  0.00    +0.098 C 
ATOM      5  C   UNL     1      32.227 -11.768 -20.811  0.00  0.00    +0.011 C 
ATOM      6  C   UNL     1      32.164 -10.382 -21.039  0.00  0.00    +0.044 C 
ATOM      7  C   UNL     1      33.242 -12.008 -23.014  0.00  0.00    +0.119 C 
ATOM      8  C   UNL     1      32.649  -9.907 -22.249  0.00  0.00    +0.183 C 
ATOM      9  C   UNL     1      32.896 -14.025 -21.705  0.00  0.00    -0.015 C 
ATOM     10  C   UNL     1      33.785 -12.805 -24.018  0.00  0.00    +0.035 C 
ATOM     11  C   UNL     1      31.629  -9.520 -20.073  0.00  0.00    +0.024 C 
ATOM     12  C   UNL     1      31.721 -12.191 -19.567  0.00  0.00    +0.095 C 
ATOM     13  C   UNL     1      33.890 -14.188 -23.884  0.00  0.00    +0.077 C 
ATOM     14  C   UNL     1      33.444 -14.800 -22.725  0.00  0.00    +0.003 C 
ATOM     15  C   UNL     1      31.164 -10.067 -18.891  0.00  0.00    +0.099 C 
ATOM     16  H   UNL     1      31.857  -8.049 -22.081  0.00  0.00    +0.155 HD
ENDROOT
BRANCH   2  18
ATOM     17 CL   UNL     1      32.960  -4.527 -25.716  0.00  0.00    -0.082 Cl
ATOM     18  C   UNL     1      33.421  -7.676 -23.292  0.00  0.00    +0.051 C 
ATOM     19  C   UNL     1      32.851  -6.641 -24.036  0.00  0.00    +0.026 C 
ATOM     20  C   UNL     1      34.802  -7.872 -23.315  0.00  0.00    +0.015 C 
ATOM     21  C   UNL     1      33.662  -5.803 -24.800  0.00  0.00    +0.059 C 
ATOM     22  C   UNL     1      35.613  -7.034 -24.081  0.00  0.00    +0.002 C 
ATOM     23  C   UNL     1      35.043  -6.000 -24.822  0.00  0.00    +0.011 C 
ENDBRANCH   2  18
BRANCH  13  25
ATOM     24  O   UNL     1      34.154 -14.910 -26.150  0.00  0.00    -0.245 OA
ATOM     25  C   UNL     1      34.465 -14.984 -24.956  0.00  0.00    +0.338 C 
BRANCH  25  26
ATOM     26  O   UNL     1      35.416 -15.850 -24.509  0.00  0.00    -0.477 OA
ATOM     27  H   UNL     1      36.313 -15.582 -24.473  0.00  0.00    +0.295 HD
ENDBRANCH  25  26
ENDBRANCH  13  25
TORSDOF 3
ENDMDL
