MODEL 1
REMARK VINA RESULT:     -11.0      0.000      0.000
REMARK  Name = 25109292
REMARK  3 active torsions:
REMARK  status: ('A' for Active; 'I' for Inactive)
REMARK    1  A    between atoms: C_3  and  S_20
REMARK    2  A    between atoms: C_7  and  C_10
REMARK    3  A    between atoms: S_20  and  C_23
REMARK                            x       y       z     vdW  Elec       q    Type
REMARK                         _______ _______ _______ _____ _____    ______ ____
ROOT
ATOM      1  O   UNL     1      34.704 -23.004 -16.715  0.00  0.00    -0.425 OA
ATOM      2  N   UNL     1      36.927 -22.564 -16.674  0.00  0.00    -0.368 NA
ATOM      3  C   UNL     1      36.743 -24.699 -13.613  0.00  0.00    +0.091 C 
ATOM      4  C   UNL     1      36.598 -23.364 -15.607  0.00  0.00    +0.153 C 
ATOM      5  C   UNL     1      35.238 -23.635 -15.629  0.00  0.00    +0.174 C 
ATOM      6  C   UNL     1      37.381 -23.905 -14.577  0.00  0.00    +0.107 C 
ATOM      7  C   UNL     1      35.777 -22.387 -17.286  0.00  0.00    +0.282 C 
ATOM      8  C   UNL     1      35.366 -24.948 -13.672  0.00  0.00    +0.018 C 
ATOM      9  C   UNL     1      34.572 -24.417 -14.693  0.00  0.00    +0.041 C 
ENDROOT
BRANCH   7  10
ATOM     10  C   UNL     1      35.485 -21.631 -18.480  0.00  0.00    +0.066 C 
ATOM     11  C   UNL     1      36.221 -20.146 -20.261  0.00  0.00    +0.000 C 
ATOM     12  C   UNL     1      34.915 -20.161 -20.804  0.00  0.00    +0.000 C 
ATOM     13  C   UNL     1      36.490 -20.886 -19.098  0.00  0.00    +0.006 C 
ATOM     14  C   UNL     1      34.201 -21.646 -19.014  0.00  0.00    +0.006 C 
ATOM     15  C   UNL     1      33.915 -20.916 -20.169  0.00  0.00    +0.000 C 
ATOM     16  C   UNL     1      37.221 -19.391 -20.896  0.00  0.00    +0.000 C 
ATOM     17  C   UNL     1      34.646 -19.421 -21.967  0.00  0.00    +0.000 C 
ATOM     18  C   UNL     1      36.936 -18.661 -22.050  0.00  0.00    +0.000 C 
ATOM     19  C   UNL     1      35.651 -18.676 -22.584  0.00  0.00    +0.000 C 
ENDBRANCH   7  10
BRANCH   3  20
ATOM     20  S   UNL     1      37.687 -25.391 -12.314  0.00  0.00    +0.005 S 
ATOM     21  O   UNL     1      36.771 -26.077 -11.414  0.00  0.00    -0.169 OA
ATOM     22  O   UNL     1      38.816 -26.110 -12.884  0.00  0.00    -0.169 OA
BRANCH  20  23
ATOM     23  C   UNL     1      38.348 -23.982 -11.454  0.00  0.00    +0.156 C 
ATOM     24  C   UNL     1      37.267 -22.977 -11.123  0.00  0.00    +0.028 C 
ENDBRANCH  20  23
ENDBRANCH   3  20
TORSDOF 3
ENDMDL
MODEL 2
REMARK VINA RESULT:     -10.5      8.500     12.123
REMARK  Name = 25109292
REMARK  3 active torsions:
REMARK  status: ('A' for Active; 'I' for Inactive)
REMARK    1  A    between atoms: C_3  and  S_20
REMARK    2  A    between atoms: C_7  and  C_10
REMARK    3  A    between atoms: S_20  and  C_23
REMARK                            x       y       z     vdW  Elec       q    Type
REMARK                         _______ _______ _______ _____ _____    ______ ____
ROOT
ATOM      1  O   UNL     1      33.873 -13.268 -24.402  0.00  0.00    -0.425 OA
ATOM      2  N   UNL     1      34.411 -13.483 -22.211  0.00  0.00    -0.368 NA
ATOM      3  C   UNL     1      34.989 -17.023 -23.259  0.00  0.00    +0.091 C 
ATOM      4  C   UNL     1      34.549 -14.697 -22.839  0.00  0.00    +0.153 C 
ATOM      5  C   UNL     1      34.220 -14.569 -24.180  0.00  0.00    +0.174 C 
ATOM      6  C   UNL     1      34.945 -15.952 -22.354  0.00  0.00    +0.107 C 
ATOM      7  C   UNL     1      34.012 -12.686 -23.178  0.00  0.00    +0.282 C 
ATOM      8  C   UNL     1      34.648 -16.851 -24.607  0.00  0.00    +0.018 C 
ATOM      9  C   UNL     1      34.252 -15.605 -25.105  0.00  0.00    +0.041 C 
ENDROOT
BRANCH   7  10
ATOM     10  C   UNL     1      33.700 -11.278 -23.129  0.00  0.00    +0.066 C 
ATOM     11  C   UNL     1      34.309  -8.972 -23.608  0.00  0.00    +0.000 C 
ATOM     12  C   UNL     1      33.090  -8.538 -23.036  0.00  0.00    +0.000 C 
ATOM     13  C   UNL     1      34.600 -10.345 -23.647  0.00  0.00    +0.006 C 
ATOM     14  C   UNL     1      32.501 -10.852 -22.567  0.00  0.00    +0.006 C 
ATOM     15  C   UNL     1      32.196  -9.490 -22.519  0.00  0.00    +0.000 C 
ATOM     16  C   UNL     1      35.203  -8.019 -24.125  0.00  0.00    +0.000 C 
ATOM     17  C   UNL     1      32.800  -7.165 -22.997  0.00  0.00    +0.000 C 
ATOM     18  C   UNL     1      34.898  -6.659 -24.077  0.00  0.00    +0.000 C 
ATOM     19  C   UNL     1      33.700  -6.233 -23.514  0.00  0.00    +0.000 C 
ENDBRANCH   7  10
BRANCH   3  20
ATOM     20  S   UNL     1      35.478 -18.603 -22.691  0.00  0.00    +0.005 S 
ATOM     21  O   UNL     1      34.828 -19.599 -23.530  0.00  0.00    -0.169 OA
ATOM     22  O   UNL     1      36.925 -18.620 -22.536  0.00  0.00    -0.169 OA
BRANCH  20  23
ATOM     23  C   UNL     1      34.778 -18.719 -21.061  0.00  0.00    +0.156 C 
ATOM     24  C   UNL     1      34.411 -20.145 -20.715  0.00  0.00    +0.028 C 
ENDBRANCH  20  23
ENDBRANCH   3  20
TORSDOF 3
ENDMDL
MODEL 3
REMARK VINA RESULT:     -10.5      9.991     14.089
REMARK  Name = 25109292
REMARK  3 active torsions:
REMARK  status: ('A' for Active; 'I' for Inactive)
REMARK    1  A    between atoms: C_3  and  S_20
REMARK    2  A    between atoms: C_7  and  C_10
REMARK    3  A    between atoms: S_20  and  C_23
REMARK                            x       y       z     vdW  Elec       q    Type
REMARK                         _______ _______ _______ _____ _____    ______ ____
ROOT
ATOM      1  O   UNL     1      32.642 -12.874 -22.054  0.00  0.00    -0.425 OA
ATOM      2  N   UNL     1      34.080 -11.972 -23.556  0.00  0.00    -0.368 NA
ATOM      3  C   UNL     1      32.425  -8.816 -22.430  0.00  0.00    +0.091 C 
ATOM      4  C   UNL     1      33.329 -10.974 -22.983  0.00  0.00    +0.153 C 
ATOM      5  C   UNL     1      32.448 -11.523 -22.064  0.00  0.00    +0.174 C 
ATOM      6  C   UNL     1      33.327  -9.585 -23.180  0.00  0.00    +0.107 C 
ATOM      7  C   UNL     1      33.632 -13.061 -22.972  0.00  0.00    +0.282 C 
ATOM      8  C   UNL     1      31.551  -9.411 -21.511  0.00  0.00    +0.018 C 
ATOM      9  C   UNL     1      31.542 -10.794 -21.303  0.00  0.00    +0.041 C 
ENDROOT
BRANCH   7  10
ATOM     10  C   UNL     1      34.039 -14.432 -23.163  0.00  0.00    +0.066 C 
ATOM     11  C   UNL     1      34.792 -16.551 -22.235  0.00  0.00    +0.000 C 
ATOM     12  C   UNL     1      34.829 -17.101 -23.538  0.00  0.00    +0.000 C 
ATOM     13  C   UNL     1      34.395 -15.215 -22.064  0.00  0.00    +0.006 C 
ATOM     14  C   UNL     1      34.075 -14.973 -24.445  0.00  0.00    +0.006 C 
ATOM     15  C   UNL     1      34.467 -16.299 -24.633  0.00  0.00    +0.000 C 
ATOM     16  C   UNL     1      35.153 -17.353 -21.140  0.00  0.00    +0.000 C 
ATOM     17  C   UNL     1      35.226 -18.437 -23.708  0.00  0.00    +0.000 C 
ATOM     18  C   UNL     1      35.545 -18.678 -21.328  0.00  0.00    +0.000 C 
ATOM     19  C   UNL     1      35.582 -19.219 -22.609  0.00  0.00    +0.000 C 
ENDBRANCH   7  10
BRANCH   3  20
ATOM     20  S   UNL     1      32.393  -7.081 -22.648  0.00  0.00    +0.005 S 
ATOM     21  O   UNL     1      33.770  -6.613 -22.693  0.00  0.00    -0.169 OA
ATOM     22  O   UNL     1      31.484  -6.761 -23.739  0.00  0.00    -0.169 OA
BRANCH  20  23
ATOM     23  C   UNL     1      31.652  -6.464 -21.155  0.00  0.00    +0.156 C 
ATOM     24  C   UNL     1      30.522  -5.503 -21.452  0.00  0.00    +0.028 C 
ENDBRANCH  20  23
ENDBRANCH   3  20
TORSDOF 3
ENDMDL
MODEL 4
REMARK VINA RESULT:     -10.5      9.699     13.966
REMARK  Name = 25109292
REMARK  3 active torsions:
REMARK  status: ('A' for Active; 'I' for Inactive)
REMARK    1  A    between atoms: C_3  and  S_20
REMARK    2  A    between atoms: C_7  and  C_10
REMARK    3  A    between atoms: S_20  and  C_23
REMARK                            x       y       z     vdW  Elec       q    Type
REMARK                         _______ _______ _______ _____ _____    ______ ____
ROOT
ATOM      1  O   UNL     1      32.731 -13.086 -22.110  0.00  0.00    -0.425 OA
ATOM      2  N   UNL     1      34.185 -12.216 -23.615  0.00  0.00    -0.368 NA
ATOM      3  C   UNL     1      32.557  -9.031 -22.533  0.00  0.00    +0.091 C 
ATOM      4  C   UNL     1      33.442 -11.204 -23.057  0.00  0.00    +0.153 C 
ATOM      5  C   UNL     1      32.551 -11.733 -22.136  0.00  0.00    +0.174 C 
ATOM      6  C   UNL     1      33.454  -9.817 -23.270  0.00  0.00    +0.107 C 
ATOM      7  C   UNL     1      33.723 -13.293 -23.021  0.00  0.00    +0.282 C 
ATOM      8  C   UNL     1      31.673  -9.605 -21.611  0.00  0.00    +0.018 C 
ATOM      9  C   UNL     1      31.649 -10.986 -21.388  0.00  0.00    +0.041 C 
ENDROOT
BRANCH   7  10
ATOM     10  C   UNL     1      34.117 -14.671 -23.194  0.00  0.00    +0.066 C 
ATOM     11  C   UNL     1      34.858 -16.782 -22.239  0.00  0.00    +0.000 C 
ATOM     12  C   UNL     1      34.880 -17.352 -23.534  0.00  0.00    +0.000 C 
ATOM     13  C   UNL     1      34.474 -15.440 -22.086  0.00  0.00    +0.006 C 
ATOM     14  C   UNL     1      34.138 -15.231 -24.467  0.00  0.00    +0.006 C 
ATOM     15  C   UNL     1      34.518 -16.564 -24.639  0.00  0.00    +0.000 C 
ATOM     16  C   UNL     1      35.221 -17.570 -21.135  0.00  0.00    +0.000 C 
ATOM     17  C   UNL     1      35.264 -18.694 -23.687  0.00  0.00    +0.000 C 
ATOM     18  C   UNL     1      35.600 -18.902 -21.306  0.00  0.00    +0.000 C 
ATOM     19  C   UNL     1      35.623 -19.462 -22.579  0.00  0.00    +0.000 C 
ENDBRANCH   7  10
BRANCH   3  20
ATOM     20  S   UNL     1      32.544  -7.298 -22.771  0.00  0.00    +0.005 S 
ATOM     21  O   UNL     1      31.837  -7.025 -24.014  0.00  0.00    -0.169 OA
ATOM     22  O   UNL     1      32.115  -6.657 -21.538  0.00  0.00    -0.169 OA
BRANCH  20  23
ATOM     23  C   UNL     1      34.255  -6.875 -23.010  0.00  0.00    +0.156 C 
ATOM     24  C   UNL     1      34.494  -6.288 -24.384  0.00  0.00    +0.028 C 
ENDBRANCH  20  23
ENDBRANCH   3  20
TORSDOF 3
ENDMDL
MODEL 5
REMARK VINA RESULT:     -10.5      2.381      3.816
REMARK  Name = 25109292
REMARK  3 active torsions:
REMARK  status: ('A' for Active; 'I' for Inactive)
REMARK    1  A    between atoms: C_3  and  S_20
REMARK    2  A    between atoms: C_7  and  C_10
REMARK    3  A    between atoms: S_20  and  C_23
REMARK                            x       y       z     vdW  Elec       q    Type
REMARK                         _______ _______ _______ _____ _____    ______ ____
ROOT
ATOM      1  O   UNL     1      34.146 -21.148 -19.737  0.00  0.00    -0.425 OA
ATOM      2  N   UNL     1      36.310 -20.643 -19.286  0.00  0.00    -0.368 NA
ATOM      3  C   UNL     1      35.695 -22.983 -16.437  0.00  0.00    +0.091 C 
ATOM      4  C   UNL     1      35.837 -21.523 -18.341  0.00  0.00    +0.153 C 
ATOM      5  C   UNL     1      34.514 -21.833 -18.614  0.00  0.00    +0.174 C 
ATOM      6  C   UNL     1      36.455 -22.107 -17.226  0.00  0.00    +0.107 C 
ATOM      7  C   UNL     1      35.274 -20.462 -20.075  0.00  0.00    +0.282 C 
ATOM      8  C   UNL     1      34.359 -23.269 -16.747  0.00  0.00    +0.018 C 
ATOM      9  C   UNL     1      33.730 -22.695 -17.857  0.00  0.00    +0.041 C 
ENDROOT
BRANCH   7  10
ATOM     10  C   UNL     1      35.159 -19.637 -21.253  0.00  0.00    +0.066 C 
ATOM     11  C   UNL     1      34.999 -17.432 -22.269  0.00  0.00    +0.000 C 
ATOM     12  C   UNL     1      34.937 -18.034 -23.549  0.00  0.00    +0.000 C 
ATOM     13  C   UNL     1      35.110 -18.248 -21.132  0.00  0.00    +0.006 C 
ATOM     14  C   UNL     1      35.099 -20.228 -22.511  0.00  0.00    +0.006 C 
ATOM     15  C   UNL     1      34.988 -19.433 -23.653  0.00  0.00    +0.000 C 
ATOM     16  C   UNL     1      34.948 -16.032 -22.165  0.00  0.00    +0.000 C 
ATOM     17  C   UNL     1      34.826 -17.218 -24.686  0.00  0.00    +0.000 C 
ATOM     18  C   UNL     1      34.838 -15.238 -23.306  0.00  0.00    +0.000 C 
ATOM     19  C   UNL     1      34.776 -15.829 -24.564  0.00  0.00    +0.000 C 
ENDBRANCH   7  10
BRANCH   3  20
ATOM     20  S   UNL     1      36.432 -23.730 -15.038  0.00  0.00    +0.005 S 
ATOM     21  O   UNL     1      37.840 -23.944 -15.337  0.00  0.00    -0.169 OA
ATOM     22  O   UNL     1      36.049 -22.982 -13.849  0.00  0.00    -0.169 OA
BRANCH  20  23
ATOM     23  C   UNL     1      35.647 -25.322 -14.926  0.00  0.00    +0.156 C 
ATOM     24  C   UNL     1      36.665 -26.439 -14.861  0.00  0.00    +0.028 C 
ENDBRANCH  20  23
ENDBRANCH   3  20
TORSDOF 3
ENDMDL
MODEL 6
REMARK VINA RESULT:     -10.1     10.088     14.469
REMARK  Name = 25109292
REMARK  3 active torsions:
REMARK  status: ('A' for Active; 'I' for Inactive)
REMARK    1  A    between atoms: C_3  and  S_20
REMARK    2  A    between atoms: C_7  and  C_10
REMARK    3  A    between atoms: S_20  and  C_23
REMARK                            x       y       z     vdW  Elec       q    Type
REMARK                         _______ _______ _______ _____ _____    ______ ____
ROOT
ATOM      1  O   UNL     1      34.560 -11.863 -23.736  0.00  0.00    -0.425 OA
ATOM      2  N   UNL     1      32.722 -12.203 -22.452  0.00  0.00    -0.368 NA
ATOM      3  C   UNL     1      32.617  -8.469 -22.569  0.00  0.00    +0.091 C 
ATOM      4  C   UNL     1      32.904 -10.855 -22.646  0.00  0.00    +0.153 C 
ATOM      5  C   UNL     1      34.028 -10.643 -23.430  0.00  0.00    +0.174 C 
ATOM      6  C   UNL     1      32.172  -9.746 -22.197  0.00  0.00    +0.107 C 
ATOM      7  C   UNL     1      33.723 -12.741 -23.114  0.00  0.00    +0.282 C 
ATOM      8  C   UNL     1      33.759  -8.299 -23.363  0.00  0.00    +0.018 C 
ATOM      9  C   UNL     1      34.499  -9.395 -23.818  0.00  0.00    +0.041 C 
ENDROOT
BRANCH   7  10
ATOM     10  C   UNL     1      34.063 -14.133 -23.279  0.00  0.00    +0.066 C 
ATOM     11  C   UNL     1      34.745 -16.260 -22.313  0.00  0.00    +0.000 C 
ATOM     12  C   UNL     1      34.725 -16.844 -23.602  0.00  0.00    +0.000 C 
ATOM     13  C   UNL     1      34.412 -14.903 -22.169  0.00  0.00    +0.006 C 
ATOM     14  C   UNL     1      34.043 -14.708 -24.546  0.00  0.00    +0.006 C 
ATOM     15  C   UNL     1      34.372 -16.055 -24.709  0.00  0.00    +0.000 C 
ATOM     16  C   UNL     1      35.098 -17.049 -21.206  0.00  0.00    +0.000 C 
ATOM     17  C   UNL     1      35.058 -18.200 -23.746  0.00  0.00    +0.000 C 
ATOM     18  C   UNL     1      35.426 -18.395 -21.369  0.00  0.00    +0.000 C 
ATOM     19  C   UNL     1      35.407 -18.969 -22.636  0.00  0.00    +0.000 C 
ENDBRANCH   7  10
BRANCH   3  20
ATOM     20  S   UNL     1      31.729  -7.063 -22.028  0.00  0.00    +0.005 S 
ATOM     21  O   UNL     1      30.480  -7.011 -22.773  0.00  0.00    -0.169 OA
ATOM     22  O   UNL     1      31.705  -7.053 -20.573  0.00  0.00    -0.169 OA
BRANCH  20  23
ATOM     23  C   UNL     1      32.731  -5.687 -22.541  0.00  0.00    +0.156 C 
ATOM     24  C   UNL     1      32.130  -4.978 -23.735  0.00  0.00    +0.028 C 
ENDBRANCH  20  23
ENDBRANCH   3  20
TORSDOF 3
ENDMDL
MODEL 7
REMARK VINA RESULT:     -10.0      3.477      8.722
REMARK  Name = 25109292
REMARK  3 active torsions:
REMARK  status: ('A' for Active; 'I' for Inactive)
REMARK    1  A    between atoms: C_3  and  S_20
REMARK    2  A    between atoms: C_7  and  C_10
REMARK    3  A    between atoms: S_20  and  C_23
REMARK                            x       y       z     vdW  Elec       q    Type
REMARK                         _______ _______ _______ _____ _____    ______ ____
ROOT
ATOM      1  O   UNL     1      34.453 -22.384 -17.613  0.00  0.00    -0.425 OA
ATOM      2  N   UNL     1      36.626 -21.799 -17.881  0.00  0.00    -0.368 NA
ATOM      3  C   UNL     1      35.213 -19.994 -20.832  0.00  0.00    +0.091 C 
ATOM      4  C   UNL     1      35.873 -21.236 -18.883  0.00  0.00    +0.153 C 
ATOM      5  C   UNL     1      34.543 -21.593 -18.722  0.00  0.00    +0.174 C 
ATOM      6  C   UNL     1      36.229 -20.415 -19.963  0.00  0.00    +0.107 C 
ATOM      7  C   UNL     1      35.739 -22.459 -17.169  0.00  0.00    +0.282 C 
ATOM      8  C   UNL     1      33.881 -20.378 -20.635  0.00  0.00    +0.018 C 
ATOM      9  C   UNL     1      33.509 -21.195 -19.562  0.00  0.00    +0.041 C 
ENDROOT
BRANCH   7  10
ATOM     10  C   UNL     1      35.932 -23.254 -15.981  0.00  0.00    +0.066 C 
ATOM     11  C   UNL     1      37.425 -24.365 -14.413  0.00  0.00    +0.000 C 
ATOM     12  C   UNL     1      36.305 -24.801 -13.667  0.00  0.00    +0.000 C 
ATOM     13  C   UNL     1      37.222 -23.592 -15.568  0.00  0.00    +0.006 C 
ATOM     14  C   UNL     1      34.831 -23.683 -15.247  0.00  0.00    +0.006 C 
ATOM     15  C   UNL     1      35.014 -24.452 -14.097  0.00  0.00    +0.000 C 
ATOM     16  C   UNL     1      38.716 -24.713 -13.984  0.00  0.00    +0.000 C 
ATOM     17  C   UNL     1      36.509 -25.574 -12.512  0.00  0.00    +0.000 C 
ATOM     18  C   UNL     1      38.899 -25.482 -12.834  0.00  0.00    +0.000 C 
ATOM     19  C   UNL     1      37.798 -25.912 -12.101  0.00  0.00    +0.000 C 
ENDBRANCH   7  10
BRANCH   3  20
ATOM     20  S   UNL     1      35.620 -18.969 -22.190  0.00  0.00    +0.005 S 
ATOM     21  O   UNL     1      37.068 -18.979 -22.337  0.00  0.00    -0.169 OA
ATOM     22  O   UNL     1      34.776 -19.328 -23.320  0.00  0.00    -0.169 OA
BRANCH  20  23
ATOM     23  C   UNL     1      35.133 -17.340 -21.672  0.00  0.00    +0.156 C 
ATOM     24  C   UNL     1      35.063 -16.383 -22.842  0.00  0.00    +0.028 C 
ENDBRANCH  20  23
ENDBRANCH   3  20
TORSDOF 3
ENDMDL
MODEL 8
REMARK VINA RESULT:      -9.9      8.532     12.271
REMARK  Name = 25109292
REMARK  3 active torsions:
REMARK  status: ('A' for Active; 'I' for Inactive)
REMARK    1  A    between atoms: C_3  and  S_20
REMARK    2  A    between atoms: C_7  and  C_10
REMARK    3  A    between atoms: S_20  and  C_23
REMARK                            x       y       z     vdW  Elec       q    Type
REMARK                         _______ _______ _______ _____ _____    ______ ____
ROOT
ATOM      1  O   UNL     1      33.966 -13.268 -24.635  0.00  0.00    -0.425 OA
ATOM      2  N   UNL     1      34.659 -13.425 -22.482  0.00  0.00    -0.368 NA
ATOM      3  C   UNL     1      34.929 -17.037 -23.403  0.00  0.00    +0.091 C 
ATOM      4  C   UNL     1      34.671 -14.672 -23.061  0.00  0.00    +0.153 C 
ATOM      5  C   UNL     1      34.248 -14.579 -24.378  0.00  0.00    +0.174 C 
ATOM      6  C   UNL     1      35.024 -15.929 -22.549  0.00  0.00    +0.107 C 
ATOM      7  C   UNL     1      34.237 -12.645 -23.453  0.00  0.00    +0.282 C 
ATOM      8  C   UNL     1      34.496 -16.900 -24.728  0.00  0.00    +0.018 C 
ATOM      9  C   UNL     1      34.142 -15.653 -25.253  0.00  0.00    +0.041 C 
ENDROOT
BRANCH   7  10
ATOM     10  C   UNL     1      34.019 -11.219 -23.448  0.00  0.00    +0.066 C 
ATOM     11  C   UNL     1      32.617  -9.308 -22.899  0.00  0.00    +0.000 C 
ATOM     12  C   UNL     1      33.598  -8.442 -23.438  0.00  0.00    +0.000 C 
ATOM     13  C   UNL     1      32.843 -10.694 -22.912  0.00  0.00    +0.006 C 
ATOM     14  C   UNL     1      34.984 -10.367 -23.978  0.00  0.00    +0.006 C 
ATOM     15  C   UNL     1      34.776  -8.987 -23.975  0.00  0.00    +0.000 C 
ATOM     16  C   UNL     1      31.439  -8.763 -22.362  0.00  0.00    +0.000 C 
ATOM     17  C   UNL     1      33.372  -7.056 -23.425  0.00  0.00    +0.000 C 
ATOM     18  C   UNL     1      31.232  -7.384 -22.359  0.00  0.00    +0.000 C 
ATOM     19  C   UNL     1      32.195  -6.532 -22.889  0.00  0.00    +0.000 C 
ENDBRANCH   7  10
BRANCH   3  20
ATOM     20  S   UNL     1      35.361 -18.621 -22.799  0.00  0.00    +0.005 S 
ATOM     21  O   UNL     1      34.686 -19.611 -23.625  0.00  0.00    -0.169 OA
ATOM     22  O   UNL     1      36.805 -18.682 -22.629  0.00  0.00    -0.169 OA
BRANCH  20  23
ATOM     23  C   UNL     1      34.642 -18.681 -21.174  0.00  0.00    +0.156 C 
ATOM     24  C   UNL     1      34.655 -20.087 -20.614  0.00  0.00    +0.028 C 
ENDBRANCH  20  23
ENDBRANCH   3  20
TORSDOF 3
ENDMDL
MODEL 9
REMARK VINA RESULT:      -9.7      1.347      2.004
REMARK  Name = 25109292
REMARK  3 active torsions:
REMARK  status: ('A' for Active; 'I' for Inactive)
REMARK    1  A    between atoms: C_3  and  S_20
REMARK    2  A    between atoms: C_7  and  C_10
REMARK    3  A    between atoms: S_20  and  C_23
REMARK                            x       y       z     vdW  Elec       q    Type
REMARK                         _______ _______ _______ _____ _____    ______ ____
ROOT
ATOM      1  O   UNL     1      37.279 -22.364 -17.060  0.00  0.00    -0.425 OA
ATOM      2  N   UNL     1      35.158 -22.618 -16.301  0.00  0.00    -0.368 NA
ATOM      3  C   UNL     1      36.951 -24.223 -13.442  0.00  0.00    +0.091 C 
ATOM      4  C   UNL     1      36.038 -23.150 -15.390  0.00  0.00    +0.153 C 
ATOM      5  C   UNL     1      37.337 -22.997 -15.852  0.00  0.00    +0.174 C 
ATOM      6  C   UNL     1      35.827 -23.778 -14.154  0.00  0.00    +0.107 C 
ATOM      7  C   UNL     1      35.944 -22.173 -17.257  0.00  0.00    +0.282 C 
ATOM      8  C   UNL     1      38.246 -24.049 -13.945  0.00  0.00    +0.018 C 
ATOM      9  C   UNL     1      38.473 -23.424 -15.176  0.00  0.00    +0.041 C 
ENDROOT
BRANCH   7  10
ATOM     10  C   UNL     1      35.595 -21.509 -18.490  0.00  0.00    +0.066 C 
ATOM     11  C   UNL     1      36.221 -20.086 -20.361  0.00  0.00    +0.000 C 
ATOM     12  C   UNL     1      34.915 -20.219 -20.890  0.00  0.00    +0.000 C 
ATOM     13  C   UNL     1      36.545 -20.737 -19.160  0.00  0.00    +0.006 C 
ATOM     14  C   UNL     1      34.312 -21.641 -19.010  0.00  0.00    +0.006 C 
ATOM     15  C   UNL     1      33.971 -21.000 -20.203  0.00  0.00    +0.000 C 
ATOM     16  C   UNL     1      37.164 -19.306 -21.049  0.00  0.00    +0.000 C 
ATOM     17  C   UNL     1      34.591 -19.568 -22.091  0.00  0.00    +0.000 C 
ATOM     18  C   UNL     1      36.825 -18.666 -22.241  0.00  0.00    +0.000 C 
ATOM     19  C   UNL     1      35.541 -18.796 -22.761  0.00  0.00    +0.000 C 
ENDBRANCH   7  10
BRANCH   3  20
ATOM     20  S   UNL     1      36.727 -25.011 -11.897  0.00  0.00    +0.005 S 
ATOM     21  O   UNL     1      37.570 -24.332 -10.924  0.00  0.00    -0.169 OA
ATOM     22  O   UNL     1      35.301 -25.153 -11.644  0.00  0.00    -0.169 OA
BRANCH  20  23
ATOM     23  C   UNL     1      37.378 -26.647 -12.140  0.00  0.00    +0.156 C 
ATOM     24  C   UNL     1      37.095 -27.155 -13.537  0.00  0.00    +0.028 C 
ENDBRANCH  20  23
ENDBRANCH   3  20
TORSDOF 3
ENDMDL
