MODEL 1
REMARK VINA RESULT:     -11.6      0.000      0.000
REMARK  Name = 24778473
REMARK  2 active torsions:
REMARK  status: ('A' for Active; 'I' for Inactive)
REMARK    1  A    between atoms: C_11  and  C_22
REMARK    2  A    between atoms: C_17  and  N_29
REMARK                            x       y       z     vdW  Elec       q    Type
REMARK                         _______ _______ _______ _____ _____    ______ ____
ROOT
ATOM      1  O   UNL     1      32.876 -22.607 -17.834  0.00  0.00    -0.270 OA
ATOM      2  O   UNL     1      36.979 -23.071 -15.806  0.00  0.00    -0.270 OA
ATOM      3  N   UNL     1      31.273 -24.741 -13.291  0.00  0.00    -0.353 N 
ATOM      4  N   UNL     1      35.094 -22.691 -17.126  0.00  0.00    -0.248 N 
ATOM      5  C   UNL     1      32.343 -23.870 -15.050  0.00  0.00    +0.022 A 
ATOM      6  C   UNL     1      33.518 -23.468 -15.700  0.00  0.00    +0.060 C 
ATOM      7  C   UNL     1      32.519 -24.408 -13.765  0.00  0.00    +0.057 A 
ATOM      8  C   UNL     1      30.936 -23.893 -15.330  0.00  0.00    +0.018 A 
ATOM      9  C   UNL     1      34.764 -23.605 -15.090  0.00  0.00    +0.058 C 
ATOM     10  C   UNL     1      30.301 -24.441 -14.213  0.00  0.00    +0.057 A 
ATOM     11  C   UNL     1      34.924 -24.136 -13.830  0.00  0.00    +0.007 C 
ATOM     12  C   UNL     1      33.779 -24.549 -13.144  0.00  0.00    +0.017 C 
ATOM     13  C   UNL     1      33.735 -22.875 -17.019  0.00  0.00    +0.252 C 
ATOM     14  C   UNL     1      35.781 -23.104 -16.012  0.00  0.00    +0.252 C 
ATOM     15  C   UNL     1      30.126 -23.506 -16.420  0.00  0.00    +0.016 C 
ATOM     16  C   UNL     1      28.914 -24.619 -14.132  0.00  0.00    +0.018 C 
ATOM     17  C   UNL     1      28.738 -23.677 -16.355  0.00  0.00    +0.051 C 
ATOM     18  C   UNL     1      28.141 -24.226 -15.225  0.00  0.00    +0.016 C 
ATOM     19  H   UNL     1      31.102 -25.140 -12.408  0.00  0.00    +0.166 HD
ATOM     20  H   UNL     1      35.529 -22.303 -17.919  0.00  0.00    +0.158 HD
ENDROOT
BRANCH  11  22
ATOM     21 CL   UNL     1      36.648 -26.557 -14.648  0.00  0.00    -0.082 Cl
ATOM     22  C   UNL     1      36.219 -24.276 -13.199  0.00  0.00    +0.011 C 
ATOM     23  C   UNL     1      37.074 -25.335 -13.501  0.00  0.00    +0.058 C 
ATOM     24  C   UNL     1      36.604 -23.311 -12.267  0.00  0.00    +0.001 C 
ATOM     25  C   UNL     1      38.314 -25.432 -12.871  0.00  0.00    +0.011 C 
ATOM     26  C   UNL     1      37.844 -23.409 -11.636  0.00  0.00    +0.000 C 
ATOM     27  C   UNL     1      38.699 -24.468 -11.938  0.00  0.00    +0.001 C 
ENDBRANCH  11  22
BRANCH  17  29
ATOM     28  O   UNL     1      26.774 -21.385 -16.663  0.00  0.00    -0.265 OA
ATOM     29  N   UNL     1      27.944 -23.292 -17.437  0.00  0.00    -0.277 N 
ATOM     30  C   UNL     1      27.059 -22.221 -17.509  0.00  0.00    +0.303 C 
ATOM     31  H   UNL     1      28.020 -23.845 -18.247  0.00  0.00    +0.155 HD
ENDBRANCH  17  29
TORSDOF 2
ENDMDL
MODEL 2
REMARK VINA RESULT:     -10.6      1.178      1.526
REMARK  Name = 24778473
REMARK  2 active torsions:
REMARK  status: ('A' for Active; 'I' for Inactive)
REMARK    1  A    between atoms: C_11  and  C_22
REMARK    2  A    between atoms: C_17  and  N_29
REMARK                            x       y       z     vdW  Elec       q    Type
REMARK                         _______ _______ _______ _____ _____    ______ ____
ROOT
ATOM      1  O   UNL     1      33.183 -22.152 -17.640  0.00  0.00    -0.270 OA
ATOM      2  O   UNL     1      37.438 -23.106 -16.174  0.00  0.00    -0.270 OA
ATOM      3  N   UNL     1      31.935 -25.157 -13.496  0.00  0.00    -0.353 N 
ATOM      4  N   UNL     1      35.453 -22.423 -17.191  0.00  0.00    -0.248 N 
ATOM      5  C   UNL     1      32.867 -23.958 -15.137  0.00  0.00    +0.022 A 
ATOM      6  C   UNL     1      33.989 -23.452 -15.805  0.00  0.00    +0.060 C 
ATOM      7  C   UNL     1      33.142 -24.756 -14.015  0.00  0.00    +0.057 A 
ATOM      8  C   UNL     1      31.440 -23.896 -15.273  0.00  0.00    +0.018 A 
ATOM      9  C   UNL     1      35.281 -23.737 -15.365  0.00  0.00    +0.058 C 
ATOM     10  C   UNL     1      30.892 -24.654 -14.234  0.00  0.00    +0.057 A 
ATOM     11  C   UNL     1      35.539 -24.521 -14.264  0.00  0.00    +0.007 C 
ATOM     12  C   UNL     1      34.449 -25.048 -13.566  0.00  0.00    +0.017 C 
ATOM     13  C   UNL     1      34.104 -22.601 -16.988  0.00  0.00    +0.252 C 
ATOM     14  C   UNL     1      36.225 -23.073 -16.261  0.00  0.00    +0.252 C 
ATOM     15  C   UNL     1      30.546 -23.274 -16.172  0.00  0.00    +0.016 C 
ATOM     16  C   UNL     1      29.513 -24.819 -14.053  0.00  0.00    +0.018 C 
ATOM     17  C   UNL     1      29.165 -23.429 -16.004  0.00  0.00    +0.051 C 
ATOM     18  C   UNL     1      28.657 -24.191 -14.958  0.00  0.00    +0.016 C 
ATOM     19  H   UNL     1      31.832 -25.728 -12.702  0.00  0.00    +0.166 HD
ATOM     20  H   UNL     1      35.827 -21.887 -17.926  0.00  0.00    +0.158 HD
ENDROOT
BRANCH  11  22
ATOM     21 CL   UNL     1      36.544 -23.035 -11.757  0.00  0.00    -0.082 Cl
ATOM     22  C   UNL     1      36.881 -24.814 -13.808  0.00  0.00    +0.011 C 
ATOM     23  C   UNL     1      37.428 -24.196 -12.684  0.00  0.00    +0.058 C 
ATOM     24  C   UNL     1      37.630 -25.746 -14.526  0.00  0.00    +0.001 C 
ATOM     25  C   UNL     1      38.725 -24.508 -12.278  0.00  0.00    +0.011 C 
ATOM     26  C   UNL     1      38.928 -26.058 -14.120  0.00  0.00    +0.000 C 
ATOM     27  C   UNL     1      39.475 -25.439 -12.996  0.00  0.00    +0.001 C 
ENDBRANCH  11  22
BRANCH  17  29
ATOM     28  O   UNL     1      26.363 -22.336 -15.605  0.00  0.00    -0.265 OA
ATOM     29  N   UNL     1      28.288 -22.812 -16.898  0.00  0.00    -0.277 N 
ATOM     30  C   UNL     1      27.008 -22.331 -16.644  0.00  0.00    +0.303 C 
ATOM     31  H   UNL     1      28.616 -22.703 -17.819  0.00  0.00    +0.155 HD
ENDBRANCH  17  29
TORSDOF 2
ENDMDL
MODEL 3
REMARK VINA RESULT:     -10.5     13.880     15.997
REMARK  Name = 24778473
REMARK  2 active torsions:
REMARK  status: ('A' for Active; 'I' for Inactive)
REMARK    1  A    between atoms: C_11  and  C_22
REMARK    2  A    between atoms: C_17  and  N_29
REMARK                            x       y       z     vdW  Elec       q    Type
REMARK                         _______ _______ _______ _____ _____    ______ ____
ROOT
ATOM      1  O   UNL     1      31.062 -10.404 -20.098  0.00  0.00    -0.270 OA
ATOM      2  O   UNL     1      32.308 -14.690 -21.214  0.00  0.00    -0.270 OA
ATOM      3  N   UNL     1      34.297  -9.268 -24.098  0.00  0.00    -0.353 N 
ATOM      4  N   UNL     1      31.466 -12.681 -20.378  0.00  0.00    -0.248 N 
ATOM      5  C   UNL     1      33.027 -10.155 -22.486  0.00  0.00    +0.022 A 
ATOM      6  C   UNL     1      32.525 -11.257 -21.783  0.00  0.00    +0.060 C 
ATOM      7  C   UNL     1      33.915 -10.459 -23.531  0.00  0.00    +0.057 A 
ATOM      8  C   UNL     1      32.892  -8.727 -22.448  0.00  0.00    +0.018 A 
ATOM      9  C   UNL     1      32.898 -12.558 -22.117  0.00  0.00    +0.058 C 
ATOM     10  C   UNL     1      33.696  -8.208 -23.466  0.00  0.00    +0.057 A 
ATOM     11  C   UNL     1      33.770 -12.845 -23.143  0.00  0.00    +0.007 C 
ATOM     12  C   UNL     1      34.296 -11.776 -23.873  0.00  0.00    +0.017 C 
ATOM     13  C   UNL     1      31.597 -11.340 -20.656  0.00  0.00    +0.252 C 
ATOM     14  C   UNL     1      32.214 -13.477 -21.209  0.00  0.00    +0.252 C 
ATOM     15  C   UNL     1      32.168  -7.811 -21.654  0.00  0.00    +0.016 C 
ATOM     16  C   UNL     1      33.812  -6.836 -23.726  0.00  0.00    +0.018 C 
ATOM     17  C   UNL     1      32.272  -6.436 -21.901  0.00  0.00    +0.051 C 
ATOM     18  C   UNL     1      33.084  -5.957 -22.924  0.00  0.00    +0.016 C 
ATOM     19  H   UNL     1      34.919  -9.186 -24.857  0.00  0.00    +0.166 HD
ATOM     20  H   UNL     1      30.895 -13.034 -19.658  0.00  0.00    +0.158 HD
ENDROOT
BRANCH  11  22
ATOM     21 CL   UNL     1      32.918 -13.899 -25.912  0.00  0.00    -0.082 Cl
ATOM     22  C   UNL     1      34.155 -14.196 -23.488  0.00  0.00    +0.011 C 
ATOM     23  C   UNL     1      33.819 -14.765 -24.717  0.00  0.00    +0.058 C 
ATOM     24  C   UNL     1      34.883 -14.932 -22.554  0.00  0.00    +0.001 C 
ATOM     25  C   UNL     1      34.211 -16.071 -25.011  0.00  0.00    +0.011 C 
ATOM     26  C   UNL     1      35.274 -16.239 -22.848  0.00  0.00    +0.000 C 
ATOM     27  C   UNL     1      34.939 -16.808 -24.076  0.00  0.00    +0.001 C 
ENDBRANCH  11  22
BRANCH  17  29
ATOM     28  O   UNL     1      30.112  -4.435 -22.631  0.00  0.00    -0.265 OA
ATOM     29  N   UNL     1      31.554  -5.537 -21.111  0.00  0.00    -0.277 N 
ATOM     30  C   UNL     1      30.569  -4.642 -21.515  0.00  0.00    +0.303 C 
ATOM     31  H   UNL     1      31.770  -5.538 -20.151  0.00  0.00    +0.155 HD
ENDBRANCH  17  29
TORSDOF 2
ENDMDL
MODEL 4
REMARK VINA RESULT:     -10.1      2.339      7.554
REMARK  Name = 24778473
REMARK  2 active torsions:
REMARK  status: ('A' for Active; 'I' for Inactive)
REMARK    1  A    between atoms: C_11  and  C_22
REMARK    2  A    between atoms: C_17  and  N_29
REMARK                            x       y       z     vdW  Elec       q    Type
REMARK                         _______ _______ _______ _____ _____    ______ ____
ROOT
ATOM      1  O   UNL     1      36.152 -23.036 -16.787  0.00  0.00    -0.270 OA
ATOM      2  O   UNL     1      31.649 -22.434 -17.512  0.00  0.00    -0.270 OA
ATOM      3  N   UNL     1      34.356 -24.928 -12.209  0.00  0.00    -0.353 N 
ATOM      4  N   UNL     1      33.976 -22.589 -17.490  0.00  0.00    -0.248 N 
ATOM      5  C   UNL     1      34.706 -24.060 -14.240  0.00  0.00    +0.022 A 
ATOM      6  C   UNL     1      34.237 -23.505 -15.438  0.00  0.00    +0.060 C 
ATOM      7  C   UNL     1      33.715 -24.407 -13.307  0.00  0.00    +0.057 A 
ATOM      8  C   UNL     1      35.973 -24.393 -13.654  0.00  0.00    +0.018 A 
ATOM      9  C   UNL     1      32.874 -23.322 -15.664  0.00  0.00    +0.058 C 
ATOM     10  C   UNL     1      35.716 -24.932 -12.391  0.00  0.00    +0.057 A 
ATOM     11  C   UNL     1      31.911 -23.665 -14.742  0.00  0.00    +0.007 C 
ATOM     12  C   UNL     1      32.333 -24.222 -13.532  0.00  0.00    +0.017 C 
ATOM     13  C   UNL     1      34.949 -23.030 -16.623  0.00  0.00    +0.252 C 
ATOM     14  C   UNL     1      32.707 -22.729 -16.989  0.00  0.00    +0.252 C 
ATOM     15  C   UNL     1      37.321 -24.296 -14.064  0.00  0.00    +0.016 C 
ATOM     16  C   UNL     1      36.728 -25.372 -11.527  0.00  0.00    +0.018 C 
ATOM     17  C   UNL     1      38.344 -24.732 -13.212  0.00  0.00    +0.051 C 
ATOM     18  C   UNL     1      38.049 -25.262 -11.961  0.00  0.00    +0.016 C 
ATOM     19  H   UNL     1      33.900 -25.255 -11.401  0.00  0.00    +0.166 HD
ATOM     20  H   UNL     1      34.170 -22.212 -18.378  0.00  0.00    +0.158 HD
ENDROOT
BRANCH  11  22
ATOM     21 CL   UNL     1      30.317 -26.071 -15.824  0.00  0.00    -0.082 Cl
ATOM     22  C   UNL     1      30.497 -23.474 -14.979  0.00  0.00    +0.011 C 
ATOM     23  C   UNL     1      29.688 -24.501 -15.467  0.00  0.00    +0.058 C 
ATOM     24  C   UNL     1      29.946 -22.223 -14.704  0.00  0.00    +0.001 C 
ATOM     25  C   UNL     1      28.328 -24.275 -15.681  0.00  0.00    +0.011 C 
ATOM     26  C   UNL     1      28.586 -21.997 -14.919  0.00  0.00    +0.000 C 
ATOM     27  C   UNL     1      27.778 -23.023 -15.406  0.00  0.00    +0.001 C 
ENDBRANCH  11  22
BRANCH  17  29
ATOM     28  O   UNL     1      40.249 -26.824 -14.304  0.00  0.00    -0.265 OA
ATOM     29  N   UNL     1      39.674 -24.631 -13.624  0.00  0.00    -0.277 N 
ATOM     30  C   UNL     1      40.494 -25.640 -14.118  0.00  0.00    +0.303 C 
ATOM     31  H   UNL     1      40.081 -23.738 -13.557  0.00  0.00    +0.155 HD
ENDBRANCH  17  29
TORSDOF 2
ENDMDL
MODEL 5
REMARK VINA RESULT:     -10.0      3.177      5.729
REMARK  Name = 24778473
REMARK  2 active torsions:
REMARK  status: ('A' for Active; 'I' for Inactive)
REMARK    1  A    between atoms: C_11  and  C_22
REMARK    2  A    between atoms: C_17  and  N_29
REMARK                            x       y       z     vdW  Elec       q    Type
REMARK                         _______ _______ _______ _____ _____    ______ ____
ROOT
ATOM      1  O   UNL     1      32.379 -22.626 -17.723  0.00  0.00    -0.270 OA
ATOM      2  O   UNL     1      33.384 -24.721 -13.753  0.00  0.00    -0.270 OA
ATOM      3  N   UNL     1      37.551 -21.628 -17.591  0.00  0.00    -0.353 N 
ATOM      4  N   UNL     1      32.518 -23.770 -15.699  0.00  0.00    -0.248 N 
ATOM      5  C   UNL     1      35.427 -22.250 -17.277  0.00  0.00    +0.022 A 
ATOM      6  C   UNL     1      34.431 -22.892 -16.529  0.00  0.00    +0.060 C 
ATOM      7  C   UNL     1      36.719 -22.301 -16.730  0.00  0.00    +0.057 A 
ATOM      8  C   UNL     1      35.516 -21.515 -18.507  0.00  0.00    +0.018 A 
ATOM      9  C   UNL     1      34.730 -23.529 -15.326  0.00  0.00    +0.058 C 
ATOM     10  C   UNL     1      36.854 -21.144 -18.670  0.00  0.00    +0.057 A 
ATOM     11  C   UNL     1      36.001 -23.572 -14.799  0.00  0.00    +0.007 C 
ATOM     12  C   UNL     1      37.026 -22.945 -15.511  0.00  0.00    +0.017 C 
ATOM     13  C   UNL     1      32.998 -23.050 -16.768  0.00  0.00    +0.252 C 
ATOM     14  C   UNL     1      33.494 -24.096 -14.790  0.00  0.00    +0.252 C 
ATOM     15  C   UNL     1      34.600 -21.122 -19.506  0.00  0.00    +0.016 C 
ATOM     16  C   UNL     1      37.314 -20.408 -19.769  0.00  0.00    +0.018 C 
ATOM     17  C   UNL     1      35.044 -20.386 -20.612  0.00  0.00    +0.051 C 
ATOM     18  C   UNL     1      36.384 -20.035 -20.740  0.00  0.00    +0.016 C 
ATOM     19  H   UNL     1      38.518 -21.509 -17.453  0.00  0.00    +0.166 HD
ATOM     20  H   UNL     1      31.574 -24.026 -15.595  0.00  0.00    +0.158 HD
ENDROOT
BRANCH  11  22
ATOM     21 CL   UNL     1      36.920 -26.511 -14.942  0.00  0.00    -0.082 Cl
ATOM     22  C   UNL     1      36.308 -24.236 -13.550  0.00  0.00    +0.011 C 
ATOM     23  C   UNL     1      36.733 -25.563 -13.508  0.00  0.00    +0.058 C 
ATOM     24  C   UNL     1      36.172 -23.508 -12.367  0.00  0.00    +0.001 C 
ATOM     25  C   UNL     1      37.021 -26.165 -12.283  0.00  0.00    +0.011 C 
ATOM     26  C   UNL     1      36.458 -24.111 -11.142  0.00  0.00    +0.000 C 
ATOM     27  C   UNL     1      36.883 -25.438 -11.100  0.00  0.00    +0.001 C 
ENDBRANCH  11  22
BRANCH  17  29
ATOM     28  O   UNL     1      35.454 -18.935 -23.244  0.00  0.00    -0.265 OA
ATOM     29  N   UNL     1      34.132 -20.001 -21.595  0.00  0.00    -0.277 N 
ATOM     30  C   UNL     1      34.392 -19.333 -22.787  0.00  0.00    +0.303 C 
ATOM     31  H   UNL     1      33.190 -20.230 -21.425  0.00  0.00    +0.155 HD
ENDBRANCH  17  29
TORSDOF 2
ENDMDL
MODEL 6
REMARK VINA RESULT:      -9.0     12.643     15.428
REMARK  Name = 24778473
REMARK  2 active torsions:
REMARK  status: ('A' for Active; 'I' for Inactive)
REMARK    1  A    between atoms: C_11  and  C_22
REMARK    2  A    between atoms: C_17  and  N_29
REMARK                            x       y       z     vdW  Elec       q    Type
REMARK                         _______ _______ _______ _____ _____    ______ ____
ROOT
ATOM      1  O   UNL     1      32.504 -14.000 -19.785  0.00  0.00    -0.270 OA
ATOM      2  O   UNL     1      31.428  -9.551 -20.244  0.00  0.00    -0.270 OA
ATOM      3  N   UNL     1      34.420 -13.221 -24.631  0.00  0.00    -0.353 N 
ATOM      4  N   UNL     1      31.813 -11.778 -19.669  0.00  0.00    -0.248 N 
ATOM      5  C   UNL     1      33.497 -13.140 -22.596  0.00  0.00    +0.022 A 
ATOM      6  C   UNL     1      32.845 -12.448 -21.568  0.00  0.00    +0.060 C 
ATOM      7  C   UNL     1      33.788 -12.385 -23.744  0.00  0.00    +0.057 A 
ATOM      8  C   UNL     1      33.981 -14.471 -22.832  0.00  0.00    +0.018 A 
ATOM      9  C   UNL     1      32.517 -11.099 -21.701  0.00  0.00    +0.058 C 
ATOM     10  C   UNL     1      34.549 -14.484 -24.109  0.00  0.00    +0.057 A 
ATOM     11  C   UNL     1      32.806 -10.368 -22.831  0.00  0.00    +0.007 C 
ATOM     12  C   UNL     1      33.458 -11.018 -23.882  0.00  0.00    +0.017 C 
ATOM     13  C   UNL     1      32.387 -12.885 -20.250  0.00  0.00    +0.252 C 
ATOM     14  C   UNL     1      31.850 -10.668 -20.474  0.00  0.00    +0.252 C 
ATOM     15  C   UNL     1      33.998 -15.675 -22.095  0.00  0.00    +0.016 C 
ATOM     16  C   UNL     1      35.126 -15.627 -24.677  0.00  0.00    +0.018 C 
ATOM     17  C   UNL     1      34.571 -16.826 -22.649  0.00  0.00    +0.051 C 
ATOM     18  C   UNL     1      35.128 -16.800 -23.923  0.00  0.00    +0.016 C 
ATOM     19  H   UNL     1      34.737 -12.950 -25.523  0.00  0.00    +0.166 HD
ATOM     20  H   UNL     1      31.416 -11.782 -18.768  0.00  0.00    +0.158 HD
ENDROOT
BRANCH  11  22
ATOM     21 CL   UNL     1      35.119  -8.384 -23.299  0.00  0.00    -0.082 Cl
ATOM     22  C   UNL     1      32.466  -8.968 -22.965  0.00  0.00    +0.011 C 
ATOM     23  C   UNL     1      33.439  -7.992 -23.181  0.00  0.00    +0.058 C 
ATOM     24  C   UNL     1      31.122  -8.606 -22.877  0.00  0.00    +0.001 C 
ATOM     25  C   UNL     1      33.069  -6.653 -23.307  0.00  0.00    +0.011 C 
ATOM     26  C   UNL     1      30.752  -7.267 -23.002  0.00  0.00    +0.000 C 
ATOM     27  C   UNL     1      31.725  -6.291 -23.217  0.00  0.00    +0.001 C 
ENDBRANCH  11  22
BRANCH  17  29
ATOM     28  O   UNL     1      36.871 -18.389 -21.437  0.00  0.00    -0.265 OA
ATOM     29  N   UNL     1      34.583 -18.013 -21.914  0.00  0.00    -0.277 N 
ATOM     30  C   UNL     1      35.684 -18.678 -21.384  0.00  0.00    +0.303 C 
ATOM     31  H   UNL     1      33.707 -18.428 -21.750  0.00  0.00    +0.155 HD
ENDBRANCH  17  29
TORSDOF 2
ENDMDL
MODEL 7
REMARK VINA RESULT:      -8.8      4.170      8.000
REMARK  Name = 24778473
REMARK  2 active torsions:
REMARK  status: ('A' for Active; 'I' for Inactive)
REMARK    1  A    between atoms: C_11  and  C_22
REMARK    2  A    between atoms: C_17  and  N_29
REMARK                            x       y       z     vdW  Elec       q    Type
REMARK                         _______ _______ _______ _____ _____    ______ ____
ROOT
ATOM      1  O   UNL     1      32.725 -23.201 -16.640  0.00  0.00    -0.270 OA
ATOM      2  O   UNL     1      32.756 -20.648 -20.467  0.00  0.00    -0.270 OA
ATOM      3  N   UNL     1      37.905 -22.289 -16.937  0.00  0.00    -0.353 N 
ATOM      4  N   UNL     1      32.364 -21.961 -18.579  0.00  0.00    -0.248 N 
ATOM      5  C   UNL     1      35.687 -22.443 -17.167  0.00  0.00    +0.022 A 
ATOM      6  C   UNL     1      34.498 -22.152 -17.849  0.00  0.00    +0.060 C 
ATOM      7  C   UNL     1      36.854 -21.904 -17.732  0.00  0.00    +0.057 A 
ATOM      8  C   UNL     1      36.082 -23.171 -15.996  0.00  0.00    +0.018 A 
ATOM      9  C   UNL     1      34.501 -21.378 -19.008  0.00  0.00    +0.058 C 
ATOM     10  C   UNL     1      37.470 -23.053 -15.884  0.00  0.00    +0.057 A 
ATOM     11  C   UNL     1      35.651 -20.855 -19.554  0.00  0.00    +0.007 C 
ATOM     12  C   UNL     1      36.861 -21.119 -18.907  0.00  0.00    +0.017 C 
ATOM     13  C   UNL     1      33.112 -22.528 -17.573  0.00  0.00    +0.252 C 
ATOM     14  C   UNL     1      33.123 -21.256 -19.479  0.00  0.00    +0.252 C 
ATOM     15  C   UNL     1      35.406 -23.924 -15.011  0.00  0.00    +0.016 C 
ATOM     16  C   UNL     1      38.206 -23.644 -14.849  0.00  0.00    +0.018 C 
ATOM     17  C   UNL     1      36.128 -24.521 -13.969  0.00  0.00    +0.051 C 
ATOM     18  C   UNL     1      37.510 -24.381 -13.891  0.00  0.00    +0.016 C 
ATOM     19  H   UNL     1      38.845 -22.048 -17.101  0.00  0.00    +0.166 HD
ATOM     20  H   UNL     1      31.387 -22.051 -18.646  0.00  0.00    +0.158 HD
ENDROOT
BRANCH  11  22
ATOM     21 CL   UNL     1      37.717 -18.574 -19.736  0.00  0.00    -0.082 Cl
ATOM     22  C   UNL     1      35.651 -20.051 -20.757  0.00  0.00    +0.011 C 
ATOM     23  C   UNL     1      36.547 -18.997 -20.937  0.00  0.00    +0.058 C 
ATOM     24  C   UNL     1      34.724 -20.357 -21.753  0.00  0.00    +0.001 C 
ATOM     25  C   UNL     1      36.514 -18.247 -22.113  0.00  0.00    +0.011 C 
ATOM     26  C   UNL     1      34.691 -19.606 -22.928  0.00  0.00    +0.000 C 
ATOM     27  C   UNL     1      35.586 -18.552 -23.108  0.00  0.00    +0.001 C 
ENDBRANCH  11  22
BRANCH  17  29
ATOM     28  O   UNL     1      35.037 -23.720 -11.254  0.00  0.00    -0.265 OA
ATOM     29  N   UNL     1      35.453 -25.264 -12.999  0.00  0.00    -0.277 N 
ATOM     30  C   UNL     1      34.977 -24.829 -11.767  0.00  0.00    +0.303 C 
ATOM     31  H   UNL     1      35.294 -26.211 -13.214  0.00  0.00    +0.155 HD
ENDBRANCH  17  29
TORSDOF 2
ENDMDL
