MODEL 1
REMARK VINA RESULT:     -11.9      0.000      0.000
REMARK  Name = 54766013
REMARK  5 active torsions:
REMARK  status: ('A' for Active; 'I' for Inactive)
REMARK    1  A    between atoms: C_3  and  C_11
REMARK    2  A    between atoms: C_4  and  C_18
REMARK    3  A    between atoms: C_5  and  C_24
REMARK    4  A    between atoms: C_24  and  N_25
REMARK    5  A    between atoms: N_25  and  C_28
REMARK                            x       y       z     vdW  Elec       q    Type
REMARK                         _______ _______ _______ _____ _____    ______ ____
ROOT
ATOM      1  N   UNL     1      32.916 -22.717 -17.389  0.00  0.00    -0.315 N 
ATOM      2  N   UNL     1      35.135 -22.773 -17.317  0.00  0.00    -0.317 N 
ATOM      3  C   UNL     1      34.612 -23.373 -16.199  0.00  0.00    +0.063 C 
ATOM      4  C   UNL     1      33.237 -23.350 -16.222  0.00  0.00    +0.085 C 
ATOM      5  C   UNL     1      34.088 -22.389 -18.013  0.00  0.00    +0.164 C 
ATOM      6  H   UNL     1      32.008 -22.532 -17.721  0.00  0.00    +0.148 HD
ATOM      7  H   UNL     1      36.086 -22.656 -17.547  0.00  0.00    +0.148 HD
ENDROOT
BRANCH   3  11
ATOM      8  N   UNL     1      36.916 -23.632 -13.276  0.00  0.00    -0.170 N 
ATOM      9  N   UNL     1      37.585 -22.966 -12.300  0.00  0.00    -0.150 NA
ATOM     10  N   UNL     1      38.010 -25.207 -12.152  0.00  0.00    -0.206 NA
ATOM     11  C   UNL     1      35.490 -23.941 -15.158  0.00  0.00    +0.031 C 
ATOM     12  C   UNL     1      36.074 -23.116 -14.264  0.00  0.00    +0.092 C 
ATOM     13  C   UNL     1      35.777 -25.374 -15.050  0.00  0.00    +0.006 C 
ATOM     14  C   UNL     1      37.195 -24.997 -13.162  0.00  0.00    +0.157 C 
ATOM     15  C   UNL     1      36.587 -25.873 -14.099  0.00  0.00    +0.036 C 
ATOM     16  C   UNL     1      38.216 -23.953 -11.666  0.00  0.00    +0.219 C 
ENDBRANCH   3  11
BRANCH   4  18
ATOM     17  N   UNL     1      30.971 -23.772 -15.753  0.00  0.00    -0.409 NA
ATOM     18  C   UNL     1      32.243 -23.840 -15.300  0.00  0.00    +0.127 C 
ATOM     19  C   UNL     1      32.597 -24.339 -14.057  0.00  0.00    +0.086 C 
ATOM     20  C   UNL     1      30.011 -24.225 -14.917  0.00  0.00    +0.109 C 
ATOM     21  C   UNL     1      31.580 -24.797 -13.226  0.00  0.00    -0.016 C 
ATOM     22  C   UNL     1      30.260 -24.743 -13.656  0.00  0.00    +0.023 C 
ATOM     23  C   UNL     1      28.604 -24.150 -15.412  0.00  0.00    +0.066 C 
ENDBRANCH   4  18
BRANCH   5  24
ATOM     24  C   UNL     1      34.097 -21.690 -19.311  0.00  0.00    +0.128 C 
BRANCH  24  25
ATOM     25  N   UNL     1      35.303 -20.896 -19.482  0.00  0.00    -0.328 N 
ATOM     26  H   UNL     1      35.994 -20.941 -18.783  0.00  0.00    +0.147 HD
BRANCH  25  28
ATOM     27  F   UNL     1      37.702 -19.549 -19.782  0.00  0.00    -0.203 F 
ATOM     28  C   UNL     1      35.528 -20.082 -20.574  0.00  0.00    +0.073 C 
ATOM     29  C   UNL     1      36.743 -19.411 -20.708  0.00  0.00    +0.153 C 
ATOM     30  C   UNL     1      34.536 -19.930 -21.544  0.00  0.00    +0.017 C 
ATOM     31  C   UNL     1      36.968 -18.589 -21.812  0.00  0.00    +0.031 C 
ATOM     32  C   UNL     1      34.761 -19.107 -22.648  0.00  0.00    +0.001 C 
ATOM     33  C   UNL     1      35.977 -18.437 -22.782  0.00  0.00    +0.002 C 
ENDBRANCH  25  28
ENDBRANCH  24  25
ENDBRANCH   5  24
TORSDOF 5
ENDMDL
MODEL 2
REMARK VINA RESULT:     -11.9      1.361      5.057
REMARK  Name = 54766013
REMARK  5 active torsions:
REMARK  status: ('A' for Active; 'I' for Inactive)
REMARK    1  A    between atoms: C_3  and  C_11
REMARK    2  A    between atoms: C_4  and  C_18
REMARK    3  A    between atoms: C_5  and  C_24
REMARK    4  A    between atoms: C_24  and  N_25
REMARK    5  A    between atoms: N_25  and  C_28
REMARK                            x       y       z     vdW  Elec       q    Type
REMARK                         _______ _______ _______ _____ _____    ______ ____
ROOT
ATOM      1  N   UNL     1      36.812 -22.816 -16.504  0.00  0.00    -0.315 N 
ATOM      2  N   UNL     1      34.724 -22.551 -17.214  0.00  0.00    -0.317 N 
ATOM      3  C   UNL     1      34.736 -23.254 -16.036  0.00  0.00    +0.063 C 
ATOM      4  C   UNL     1      36.020 -23.430 -15.576  0.00  0.00    +0.085 C 
ATOM      5  C   UNL     1      35.990 -22.302 -17.469  0.00  0.00    +0.164 C 
ATOM      6  H   UNL     1      37.794 -22.753 -16.483  0.00  0.00    +0.148 HD
ATOM      7  H   UNL     1      33.941 -22.291 -17.751  0.00  0.00    +0.148 HD
ENDROOT
BRANCH   3  11
ATOM      8  N   UNL     1      31.107 -23.909 -15.464  0.00  0.00    -0.170 N 
ATOM      9  N   UNL     1      29.844 -23.763 -15.937  0.00  0.00    -0.150 NA
ATOM     10  N   UNL     1      29.808 -24.868 -13.938  0.00  0.00    -0.206 NA
ATOM     11  C   UNL     1      33.481 -23.721 -15.415  0.00  0.00    +0.031 C 
ATOM     12  C   UNL     1      32.308 -23.483 -16.038  0.00  0.00    +0.092 C 
ATOM     13  C   UNL     1      33.439 -24.428 -14.132  0.00  0.00    +0.006 C 
ATOM     14  C   UNL     1      31.055 -24.586 -14.243  0.00  0.00    +0.157 C 
ATOM     15  C   UNL     1      32.284 -24.838 -13.578  0.00  0.00    +0.036 C 
ATOM     16  C   UNL     1      29.117 -24.352 -14.989  0.00  0.00    +0.219 C 
ENDBRANCH   3  11
BRANCH   4  18
ATOM     17  N   UNL     1      36.666 -23.295 -13.319  0.00  0.00    -0.409 NA
ATOM     18  C   UNL     1      36.552 -24.087 -14.408  0.00  0.00    +0.127 C 
ATOM     19  C   UNL     1      36.903 -25.428 -14.434  0.00  0.00    +0.086 C 
ATOM     20  C   UNL     1      37.159 -23.878 -12.203  0.00  0.00    +0.109 C 
ATOM     21  C   UNL     1      37.406 -25.990 -13.265  0.00  0.00    -0.016 C 
ATOM     22  C   UNL     1      37.539 -25.208 -12.124  0.00  0.00    +0.023 C 
ATOM     23  C   UNL     1      37.289 -23.007 -10.997  0.00  0.00    +0.066 C 
ENDBRANCH   4  18
BRANCH   5  24
ATOM     24  C   UNL     1      36.531 -21.569 -18.628  0.00  0.00    +0.128 C 
BRANCH  24  25
ATOM     25  N   UNL     1      35.473 -20.953 -19.412  0.00  0.00    -0.328 N 
ATOM     26  H   UNL     1      34.540 -21.162 -19.181  0.00  0.00    +0.147 HD
BRANCH  25  28
ATOM     27  F   UNL     1      33.452 -20.265 -21.172  0.00  0.00    -0.203 F 
ATOM     28  C   UNL     1      35.711 -20.090 -20.463  0.00  0.00    +0.073 C 
ATOM     29  C   UNL     1      34.680 -19.755 -21.340  0.00  0.00    +0.153 C 
ATOM     30  C   UNL     1      36.986 -19.554 -20.648  0.00  0.00    +0.017 C 
ATOM     31  C   UNL     1      34.923 -18.883 -22.402  0.00  0.00    +0.031 C 
ATOM     32  C   UNL     1      37.229 -18.682 -21.710  0.00  0.00    +0.001 C 
ATOM     33  C   UNL     1      36.197 -18.347 -22.586  0.00  0.00    +0.002 C 
ENDBRANCH  25  28
ENDBRANCH  24  25
ENDBRANCH   5  24
TORSDOF 5
ENDMDL
MODEL 3
REMARK VINA RESULT:     -11.8      3.041      6.468
REMARK  Name = 54766013
REMARK  5 active torsions:
REMARK  status: ('A' for Active; 'I' for Inactive)
REMARK    1  A    between atoms: C_3  and  C_11
REMARK    2  A    between atoms: C_4  and  C_18
REMARK    3  A    between atoms: C_5  and  C_24
REMARK    4  A    between atoms: C_24  and  N_25
REMARK    5  A    between atoms: N_25  and  C_28
REMARK                            x       y       z     vdW  Elec       q    Type
REMARK                         _______ _______ _______ _____ _____    ______ ____
ROOT
ATOM      1  N   UNL     1      33.215 -22.927 -14.674  0.00  0.00    -0.315 N 
ATOM      2  N   UNL     1      33.956 -24.469 -13.258  0.00  0.00    -0.317 N 
ATOM      3  C   UNL     1      34.872 -24.269 -14.260  0.00  0.00    +0.063 C 
ATOM      4  C   UNL     1      34.434 -23.316 -15.150  0.00  0.00    +0.085 C 
ATOM      5  C   UNL     1      32.969 -23.645 -13.537  0.00  0.00    +0.164 C 
ATOM      6  H   UNL     1      32.621 -22.251 -15.075  0.00  0.00    +0.148 HD
ATOM      7  H   UNL     1      34.022 -25.092 -12.499  0.00  0.00    +0.148 HD
ENDROOT
BRANCH   3  11
ATOM      8  N   UNL     1      38.466 -25.167 -13.813  0.00  0.00    -0.170 N 
ATOM      9  N   UNL     1      39.680 -24.775 -13.350  0.00  0.00    -0.150 NA
ATOM     10  N   UNL     1      39.828 -26.864 -14.263  0.00  0.00    -0.206 NA
ATOM     11  C   UNL     1      36.138 -25.026 -14.296  0.00  0.00    +0.031 C 
ATOM     12  C   UNL     1      37.255 -24.471 -13.782  0.00  0.00    +0.092 C 
ATOM     13  C   UNL     1      36.252 -26.366 -14.881  0.00  0.00    +0.006 C 
ATOM     14  C   UNL     1      38.586 -26.444 -14.366  0.00  0.00    +0.157 C 
ATOM     15  C   UNL     1      37.417 -27.037 -14.912  0.00  0.00    +0.036 C 
ATOM     16  C   UNL     1      40.447 -25.823 -13.645  0.00  0.00    +0.219 C 
ENDBRANCH   3  11
BRANCH   4  18
ATOM     17  N   UNL     1      34.156 -22.603 -17.374  0.00  0.00    -0.409 NA
ATOM     18  C   UNL     1      35.019 -22.763 -16.346  0.00  0.00    +0.127 C 
ATOM     19  C   UNL     1      36.363 -22.429 -16.402  0.00  0.00    +0.086 C 
ATOM     20  C   UNL     1      34.668 -22.083 -18.512  0.00  0.00    +0.109 C 
ATOM     21  C   UNL     1      36.852 -21.897 -17.590  0.00  0.00    -0.016 C 
ATOM     22  C   UNL     1      35.995 -21.717 -18.670  0.00  0.00    +0.023 C 
ATOM     23  C   UNL     1      33.720 -21.905 -19.651  0.00  0.00    +0.066 C 
ENDBRANCH   4  18
BRANCH   5  24
ATOM     24  C   UNL     1      31.725 -23.464 -12.767  0.00  0.00    +0.128 C 
BRANCH  24  25
ATOM     25  N   UNL     1      30.663 -24.327 -13.256  0.00  0.00    -0.328 N 
ATOM     26  H   UNL     1      30.491 -25.171 -12.780  0.00  0.00    +0.147 HD
BRANCH  25  28
ATOM     27  F   UNL     1      29.937 -26.289 -15.068  0.00  0.00    -0.203 F 
ATOM     28  C   UNL     1      29.885 -24.025 -14.356  0.00  0.00    +0.073 C 
ATOM     29  C   UNL     1      29.529 -25.027 -15.258  0.00  0.00    +0.153 C 
ATOM     30  C   UNL     1      29.455 -22.713 -14.564  0.00  0.00    +0.017 C 
ATOM     31  C   UNL     1      28.743 -24.719 -16.368  0.00  0.00    +0.031 C 
ATOM     32  C   UNL     1      28.669 -22.406 -15.675  0.00  0.00    +0.001 C 
ATOM     33  C   UNL     1      28.313 -23.409 -16.577  0.00  0.00    +0.002 C 
ENDBRANCH  25  28
ENDBRANCH  24  25
ENDBRANCH   5  24
TORSDOF 5
ENDMDL
MODEL 4
REMARK VINA RESULT:     -11.6      1.432      1.913
REMARK  Name = 54766013
REMARK  5 active torsions:
REMARK  status: ('A' for Active; 'I' for Inactive)
REMARK    1  A    between atoms: C_3  and  C_11
REMARK    2  A    between atoms: C_4  and  C_18
REMARK    3  A    between atoms: C_5  and  C_24
REMARK    4  A    between atoms: C_24  and  N_25
REMARK    5  A    between atoms: N_25  and  C_28
REMARK                            x       y       z     vdW  Elec       q    Type
REMARK                         _______ _______ _______ _____ _____    ______ ____
ROOT
ATOM      1  N   UNL     1      32.818 -22.818 -17.774  0.00  0.00    -0.315 N 
ATOM      2  N   UNL     1      34.945 -23.019 -17.170  0.00  0.00    -0.317 N 
ATOM      3  C   UNL     1      34.124 -23.442 -16.155  0.00  0.00    +0.063 C 
ATOM      4  C   UNL     1      32.800 -23.326 -16.506  0.00  0.00    +0.085 C 
ATOM      5  C   UNL     1      34.127 -22.650 -18.131  0.00  0.00    +0.164 C 
ATOM      6  H   UNL     1      32.032 -22.610 -18.330  0.00  0.00    +0.148 HD
ATOM      7  H   UNL     1      35.930 -22.997 -17.177  0.00  0.00    +0.148 HD
ENDROOT
BRANCH   3  11
ATOM      8  N   UNL     1      36.215 -25.343 -13.717  0.00  0.00    -0.170 N 
ATOM      9  N   UNL     1      37.209 -26.251 -13.547  0.00  0.00    -0.150 NA
ATOM     10  N   UNL     1      36.435 -25.548 -11.515  0.00  0.00    -0.206 NA
ATOM     11  C   UNL     1      34.682 -23.941 -14.883  0.00  0.00    +0.031 C 
ATOM     12  C   UNL     1      35.678 -24.851 -14.910  0.00  0.00    +0.092 C 
ATOM     13  C   UNL     1      34.196 -23.504 -13.571  0.00  0.00    +0.006 C 
ATOM     14  C   UNL     1      35.761 -24.932 -12.461  0.00  0.00    +0.157 C 
ATOM     15  C   UNL     1      34.711 -23.977 -12.422  0.00  0.00    +0.036 C 
ATOM     16  C   UNL     1      37.295 -26.331 -12.220  0.00  0.00    +0.219 C 
ENDBRANCH   3  11
BRANCH   4  18
ATOM     17  N   UNL     1      30.483 -22.999 -16.278  0.00  0.00    -0.409 NA
ATOM     18  C   UNL     1      31.579 -23.631 -15.804  0.00  0.00    +0.127 C 
ATOM     19  C   UNL     1      31.564 -24.512 -14.734  0.00  0.00    +0.086 C 
ATOM     20  C   UNL     1      29.317 -23.262 -15.646  0.00  0.00    +0.109 C 
ATOM     21  C   UNL     1      30.346 -24.757 -14.110  0.00  0.00    -0.016 C 
ATOM     22  C   UNL     1      29.196 -24.125 -14.569  0.00  0.00    +0.023 C 
ATOM     23  C   UNL     1      28.103 -22.564 -16.164  0.00  0.00    +0.066 C 
ENDBRANCH   4  18
BRANCH   5  24
ATOM     24  C   UNL     1      34.500 -22.113 -19.452  0.00  0.00    +0.128 C 
BRANCH  24  25
ATOM     25  N   UNL     1      35.421 -20.994 -19.334  0.00  0.00    -0.328 N 
ATOM     26  H   UNL     1      35.868 -20.847 -18.470  0.00  0.00    +0.147 HD
BRANCH  25  28
ATOM     27  F   UNL     1      33.445 -20.229 -21.115  0.00  0.00    -0.203 F 
ATOM     28  C   UNL     1      35.698 -20.127 -20.371  0.00  0.00    +0.073 C 
ATOM     29  C   UNL     1      34.690 -19.752 -21.260  0.00  0.00    +0.153 C 
ATOM     30  C   UNL     1      36.991 -19.626 -20.532  0.00  0.00    +0.017 C 
ATOM     31  C   UNL     1      34.972 -18.877 -22.307  0.00  0.00    +0.031 C 
ATOM     32  C   UNL     1      37.273 -18.749 -21.581  0.00  0.00    +0.001 C 
ATOM     33  C   UNL     1      36.264 -18.375 -22.468  0.00  0.00    +0.002 C 
ENDBRANCH  25  28
ENDBRANCH  24  25
ENDBRANCH   5  24
TORSDOF 5
ENDMDL
MODEL 5
REMARK VINA RESULT:     -11.2      1.295      4.898
REMARK  Name = 54766013
REMARK  5 active torsions:
REMARK  status: ('A' for Active; 'I' for Inactive)
REMARK    1  A    between atoms: C_3  and  C_11
REMARK    2  A    between atoms: C_4  and  C_18
REMARK    3  A    between atoms: C_5  and  C_24
REMARK    4  A    between atoms: C_24  and  N_25
REMARK    5  A    between atoms: N_25  and  C_28
REMARK                            x       y       z     vdW  Elec       q    Type
REMARK                         _______ _______ _______ _____ _____    ______ ____
ROOT
ATOM      1  N   UNL     1      36.544 -22.593 -16.986  0.00  0.00    -0.315 N 
ATOM      2  N   UNL     1      34.438 -22.448 -17.676  0.00  0.00    -0.317 N 
ATOM      3  C   UNL     1      34.489 -23.037 -16.438  0.00  0.00    +0.063 C 
ATOM      4  C   UNL     1      35.785 -23.138 -15.989  0.00  0.00    +0.085 C 
ATOM      5  C   UNL     1      35.692 -22.193 -17.978  0.00  0.00    +0.164 C 
ATOM      6  H   UNL     1      37.525 -22.505 -16.990  0.00  0.00    +0.148 HD
ATOM      7  H   UNL     1      33.639 -22.258 -18.220  0.00  0.00    +0.148 HD
ENDROOT
BRANCH   3  11
ATOM      8  N   UNL     1      30.883 -23.641 -15.695  0.00  0.00    -0.170 N 
ATOM      9  N   UNL     1      29.601 -23.496 -16.118  0.00  0.00    -0.150 NA
ATOM     10  N   UNL     1      29.642 -24.546 -14.089  0.00  0.00    -0.206 NA
ATOM     11  C   UNL     1      33.258 -23.474 -15.752  0.00  0.00    +0.031 C 
ATOM     12  C   UNL     1      32.061 -23.243 -16.331  0.00  0.00    +0.092 C 
ATOM     13  C   UNL     1      33.265 -24.145 -14.449  0.00  0.00    +0.006 C 
ATOM     14  C   UNL     1      30.877 -24.283 -14.454  0.00  0.00    +0.157 C 
ATOM     15  C   UNL     1      32.131 -24.529 -13.835  0.00  0.00    +0.036 C 
ATOM     16  C   UNL     1      28.911 -24.052 -15.124  0.00  0.00    +0.219 C 
ENDBRANCH   3  11
BRANCH   4  18
ATOM     17  N   UNL     1      36.591 -25.000 -14.800  0.00  0.00    -0.409 NA
ATOM     18  C   UNL     1      36.354 -23.669 -14.776  0.00  0.00    +0.127 C 
ATOM     19  C   UNL     1      36.629 -22.852 -13.691  0.00  0.00    +0.086 C 
ATOM     20  C   UNL     1      37.127 -25.534 -13.680  0.00  0.00    +0.109 C 
ATOM     21  C   UNL     1      37.181 -23.439 -12.558  0.00  0.00    -0.016 C 
ATOM     22  C   UNL     1      37.438 -24.804 -12.544  0.00  0.00    +0.023 C 
ATOM     23  C   UNL     1      37.389 -27.004 -13.700  0.00  0.00    +0.066 C 
ENDBRANCH   4  18
BRANCH   5  24
ATOM     24  C   UNL     1      36.194 -21.557 -19.210  0.00  0.00    +0.128 C 
BRANCH  24  25
ATOM     25  N   UNL     1      35.342 -20.455 -19.628  0.00  0.00    -0.328 N 
ATOM     26  H   UNL     1      34.622 -20.167 -19.022  0.00  0.00    +0.147 HD
BRANCH  25  28
ATOM     27  F   UNL     1      37.601 -18.944 -20.149  0.00  0.00    -0.203 F 
ATOM     28  C   UNL     1      35.492 -19.794 -20.830  0.00  0.00    +0.073 C 
ATOM     29  C   UNL     1      36.637 -19.037 -21.075  0.00  0.00    +0.153 C 
ATOM     30  C   UNL     1      34.493 -19.883 -21.801  0.00  0.00    +0.017 C 
ATOM     31  C   UNL     1      36.786 -18.369 -22.290  0.00  0.00    +0.031 C 
ATOM     32  C   UNL     1      34.642 -19.215 -23.017  0.00  0.00    +0.001 C 
ATOM     33  C   UNL     1      35.788 -18.458 -23.262  0.00  0.00    +0.002 C 
ENDBRANCH  25  28
ENDBRANCH  24  25
ENDBRANCH   5  24
TORSDOF 5
ENDMDL
MODEL 6
REMARK VINA RESULT:     -11.1      2.883      7.516
REMARK  Name = 54766013
REMARK  5 active torsions:
REMARK  status: ('A' for Active; 'I' for Inactive)
REMARK    1  A    between atoms: C_3  and  C_11
REMARK    2  A    between atoms: C_4  and  C_18
REMARK    3  A    between atoms: C_5  and  C_24
REMARK    4  A    between atoms: C_24  and  N_25
REMARK    5  A    between atoms: N_25  and  C_28
REMARK                            x       y       z     vdW  Elec       q    Type
REMARK                         _______ _______ _______ _____ _____    ______ ____
ROOT
ATOM      1  N   UNL     1      33.963 -24.858 -12.886  0.00  0.00    -0.315 N 
ATOM      2  N   UNL     1      33.104 -23.964 -14.729  0.00  0.00    -0.317 N 
ATOM      3  C   UNL     1      34.461 -23.759 -14.692  0.00  0.00    +0.063 C 
ATOM      4  C   UNL     1      35.015 -24.305 -13.559  0.00  0.00    +0.085 C 
ATOM      5  C   UNL     1      32.836 -24.628 -13.626  0.00  0.00    +0.164 C 
ATOM      6  H   UNL     1      34.006 -25.335 -12.026  0.00  0.00    +0.148 HD
ATOM      7  H   UNL     1      32.471 -23.676 -15.426  0.00  0.00    +0.148 HD
ENDROOT
BRANCH   3  11
ATOM      8  N   UNL     1      35.168 -22.201 -18.009  0.00  0.00    -0.170 N 
ATOM      9  N   UNL     1      34.708 -21.948 -19.260  0.00  0.00    -0.150 NA
ATOM     10  N   UNL     1      36.810 -21.086 -19.009  0.00  0.00    -0.206 NA
ATOM     11  C   UNL     1      35.150 -23.034 -15.777  0.00  0.00    +0.031 C 
ATOM     12  C   UNL     1      34.530 -22.877 -16.966  0.00  0.00    +0.092 C 
ATOM     13  C   UNL     1      36.499 -22.478 -15.636  0.00  0.00    +0.006 C 
ATOM     14  C   UNL     1      36.452 -21.665 -17.885  0.00  0.00    +0.157 C 
ATOM     15  C   UNL     1      37.115 -21.827 -16.639  0.00  0.00    +0.036 C 
ATOM     16  C   UNL     1      35.725 -21.284 -19.806  0.00  0.00    +0.219 C 
ENDBRANCH   3  11
BRANCH   4  18
ATOM     17  N   UNL     1      37.191 -25.172 -13.764  0.00  0.00    -0.409 NA
ATOM     18  C   UNL     1      36.369 -24.356 -13.068  0.00  0.00    +0.127 C 
ATOM     19  C   UNL     1      36.765 -23.611 -11.968  0.00  0.00    +0.086 C 
ATOM     20  C   UNL     1      38.471 -25.244 -13.335  0.00  0.00    +0.109 C 
ATOM     21  C   UNL     1      38.090 -23.711 -11.558  0.00  0.00    -0.016 C 
ATOM     22  C   UNL     1      38.966 -24.540 -12.248  0.00  0.00    +0.023 C 
ATOM     23  C   UNL     1      39.383 -26.145 -14.099  0.00  0.00    +0.066 C 
ENDBRANCH   4  18
BRANCH   5  24
ATOM     24  C   UNL     1      31.513 -25.101 -13.179  0.00  0.00    +0.128 C 
BRANCH  24  25
ATOM     25  N   UNL     1      30.506 -24.060 -13.299  0.00  0.00    -0.328 N 
ATOM     26  H   UNL     1      30.357 -23.464 -12.530  0.00  0.00    +0.147 HD
BRANCH  25  28
ATOM     27  F   UNL     1      29.470 -26.208 -14.702  0.00  0.00    -0.203 F 
ATOM     28  C   UNL     1      29.747 -23.865 -14.435  0.00  0.00    +0.073 C 
ATOM     29  C   UNL     1      29.233 -24.960 -15.130  0.00  0.00    +0.153 C 
ATOM     30  C   UNL     1      29.496 -22.570 -14.890  0.00  0.00    +0.017 C 
ATOM     31  C   UNL     1      28.468 -24.762 -16.278  0.00  0.00    +0.031 C 
ATOM     32  C   UNL     1      28.729 -22.372 -16.039  0.00  0.00    +0.001 C 
ATOM     33  C   UNL     1      28.215 -23.467 -16.733  0.00  0.00    +0.002 C 
ENDBRANCH  25  28
ENDBRANCH  24  25
ENDBRANCH   5  24
TORSDOF 5
ENDMDL
MODEL 7
REMARK VINA RESULT:     -10.7      2.962      6.461
REMARK  Name = 54766013
REMARK  5 active torsions:
REMARK  status: ('A' for Active; 'I' for Inactive)
REMARK    1  A    between atoms: C_3  and  C_11
REMARK    2  A    between atoms: C_4  and  C_18
REMARK    3  A    between atoms: C_5  and  C_24
REMARK    4  A    between atoms: C_24  and  N_25
REMARK    5  A    between atoms: N_25  and  C_28
REMARK                            x       y       z     vdW  Elec       q    Type
REMARK                         _______ _______ _______ _____ _____    ______ ____
ROOT
ATOM      1  N   UNL     1      33.134 -23.857 -14.860  0.00  0.00    -0.315 N 
ATOM      2  N   UNL     1      34.069 -24.945 -13.166  0.00  0.00    -0.317 N 
ATOM      3  C   UNL     1      35.039 -24.428 -13.987  0.00  0.00    +0.063 C 
ATOM      4  C   UNL     1      34.483 -23.747 -15.045  0.00  0.00    +0.085 C 
ATOM      5  C   UNL     1      32.933 -24.584 -13.720  0.00  0.00    +0.164 C 
ATOM      6  H   UNL     1      32.434 -23.480 -15.441  0.00  0.00    +0.148 HD
ATOM      7  H   UNL     1      34.195 -25.472 -12.343  0.00  0.00    +0.148 HD
ENDROOT
BRANCH   3  11
ATOM      8  N   UNL     1      38.575 -25.589 -14.258  0.00  0.00    -0.170 N 
ATOM      9  N   UNL     1      39.476 -26.310 -14.971  0.00  0.00    -0.150 NA
ATOM     10  N   UNL     1      40.483 -25.393 -13.136  0.00  0.00    -0.206 NA
ATOM     11  C   UNL     1      36.471 -24.626 -13.691  0.00  0.00    +0.031 C 
ATOM     12  C   UNL     1      37.219 -25.381 -14.523  0.00  0.00    +0.092 C 
ATOM     13  C   UNL     1      37.133 -24.049 -12.518  0.00  0.00    +0.006 C 
ATOM     14  C   UNL     1      39.216 -25.042 -13.144  0.00  0.00    +0.157 C 
ATOM     15  C   UNL     1      38.438 -24.248 -12.260  0.00  0.00    +0.036 C 
ATOM     16  C   UNL     1      40.590 -26.156 -14.257  0.00  0.00    +0.219 C 
ENDBRANCH   3  11
BRANCH   4  18
ATOM     17  N   UNL     1      34.235 -22.864 -17.210  0.00  0.00    -0.409 NA
ATOM     18  C   UNL     1      35.065 -23.040 -16.158  0.00  0.00    +0.127 C 
ATOM     19  C   UNL     1      36.374 -22.586 -16.118  0.00  0.00    +0.086 C 
ATOM     20  C   UNL     1      34.745 -22.202 -18.273  0.00  0.00    +0.109 C 
ATOM     21  C   UNL     1      36.861 -21.909 -17.230  0.00  0.00    -0.016 C 
ATOM     22  C   UNL     1      36.038 -21.708 -18.332  0.00  0.00    +0.023 C 
ATOM     23  C   UNL     1      33.833 -22.006 -19.438  0.00  0.00    +0.066 C 
ENDBRANCH   4  18
BRANCH   5  24
ATOM     24  C   UNL     1      31.575 -24.886 -13.232  0.00  0.00    +0.128 C 
BRANCH  24  25
ATOM     25  N   UNL     1      30.707 -25.332 -14.309  0.00  0.00    -0.328 N 
ATOM     26  H   UNL     1      30.764 -26.272 -14.595  0.00  0.00    +0.147 HD
BRANCH  25  28
ATOM     27  F   UNL     1      30.381 -22.700 -13.518  0.00  0.00    -0.203 F 
ATOM     28  C   UNL     1      29.808 -24.505 -14.951  0.00  0.00    +0.073 C 
ATOM     29  C   UNL     1      29.656 -23.181 -14.539  0.00  0.00    +0.153 C 
ATOM     30  C   UNL     1      29.047 -24.996 -16.014  0.00  0.00    +0.017 C 
ATOM     31  C   UNL     1      28.747 -22.347 -15.189  0.00  0.00    +0.031 C 
ATOM     32  C   UNL     1      28.138 -24.161 -16.664  0.00  0.00    +0.001 C 
ATOM     33  C   UNL     1      27.988 -22.837 -16.252  0.00  0.00    +0.002 C 
ENDBRANCH  25  28
ENDBRANCH  24  25
ENDBRANCH   5  24
TORSDOF 5
ENDMDL
MODEL 8
REMARK VINA RESULT:     -10.7      2.652      6.841
REMARK  Name = 54766013
REMARK  5 active torsions:
REMARK  status: ('A' for Active; 'I' for Inactive)
REMARK    1  A    between atoms: C_3  and  C_11
REMARK    2  A    between atoms: C_4  and  C_18
REMARK    3  A    between atoms: C_5  and  C_24
REMARK    4  A    between atoms: C_24  and  N_25
REMARK    5  A    between atoms: N_25  and  C_28
REMARK                            x       y       z     vdW  Elec       q    Type
REMARK                         _______ _______ _______ _____ _____    ______ ____
ROOT
ATOM      1  N   UNL     1      33.599 -23.986 -12.577  0.00  0.00    -0.315 N 
ATOM      2  N   UNL     1      35.470 -23.567 -13.698  0.00  0.00    -0.317 N 
ATOM      3  C   UNL     1      34.382 -23.412 -14.520  0.00  0.00    +0.063 C 
ATOM      4  C   UNL     1      33.210 -23.666 -13.846  0.00  0.00    +0.085 C 
ATOM      5  C   UNL     1      34.964 -23.913 -12.535  0.00  0.00    +0.164 C 
ATOM      6  H   UNL     1      33.006 -24.225 -11.828  0.00  0.00    +0.148 HD
ATOM      7  H   UNL     1      36.420 -23.447 -13.928  0.00  0.00    +0.148 HD
ENDROOT
BRANCH   3  11
ATOM      8  N   UNL     1      35.842 -21.992 -17.647  0.00  0.00    -0.170 N 
ATOM      9  N   UNL     1      36.894 -21.347 -18.212  0.00  0.00    -0.150 NA
ATOM     10  N   UNL     1      35.296 -21.772 -19.789  0.00  0.00    -0.206 NA
ATOM     11  C   UNL     1      34.546 -23.020 -15.933  0.00  0.00    +0.031 C 
ATOM     12  C   UNL     1      35.671 -22.380 -16.315  0.00  0.00    +0.092 C 
ATOM     13  C   UNL     1      33.530 -23.281 -16.958  0.00  0.00    +0.006 C 
ATOM     14  C   UNL     1      34.883 -22.238 -18.632  0.00  0.00    +0.157 C 
ATOM     15  C   UNL     1      33.694 -22.909 -18.240  0.00  0.00    +0.036 C 
ATOM     16  C   UNL     1      36.512 -21.244 -19.484  0.00  0.00    +0.219 C 
ENDBRANCH   3  11
BRANCH   4  18
ATOM     17  N   UNL     1      31.217 -24.845 -14.253  0.00  0.00    -0.409 NA
ATOM     18  C   UNL     1      31.829 -23.641 -14.257  0.00  0.00    +0.127 C 
ATOM     19  C   UNL     1      31.207 -22.455 -14.616  0.00  0.00    +0.086 C 
ATOM     20  C   UNL     1      29.918 -24.860 -14.630  0.00  0.00    +0.109 C 
ATOM     21  C   UNL     1      29.870 -22.512 -14.997  0.00  0.00    -0.016 C 
ATOM     22  C   UNL     1      29.207 -23.733 -15.007  0.00  0.00    +0.023 C 
ATOM     23  C   UNL     1      29.238 -26.189 -14.630  0.00  0.00    +0.066 C 
ENDBRANCH   4  18
BRANCH   5  24
ATOM     24  C   UNL     1      35.711 -24.202 -11.297  0.00  0.00    +0.128 C 
BRANCH  24  25
ATOM     25  N   UNL     1      36.453 -25.447 -11.398  0.00  0.00    -0.328 N 
ATOM     26  H   UNL     1      36.262 -26.159 -10.745  0.00  0.00    +0.147 HD
BRANCH  25  28
ATOM     27  F   UNL     1      38.835 -24.039 -11.409  0.00  0.00    -0.203 F 
ATOM     28  C   UNL     1      37.412 -25.683 -12.362  0.00  0.00    +0.073 C 
ATOM     29  C   UNL     1      38.607 -24.963 -12.353  0.00  0.00    +0.153 C 
ATOM     30  C   UNL     1      37.185 -26.643 -13.350  0.00  0.00    +0.017 C 
ATOM     31  C   UNL     1      39.574 -25.202 -13.328  0.00  0.00    +0.031 C 
ATOM     32  C   UNL     1      38.153 -26.882 -14.326  0.00  0.00    +0.001 C 
ATOM     33  C   UNL     1      39.348 -26.162 -14.315  0.00  0.00    +0.002 C 
ENDBRANCH  25  28
ENDBRANCH  24  25
ENDBRANCH   5  24
TORSDOF 5
ENDMDL
MODEL 9
REMARK VINA RESULT:     -10.1      1.675      5.297
REMARK  Name = 54766013
REMARK  5 active torsions:
REMARK  status: ('A' for Active; 'I' for Inactive)
REMARK    1  A    between atoms: C_3  and  C_11
REMARK    2  A    between atoms: C_4  and  C_18
REMARK    3  A    between atoms: C_5  and  C_24
REMARK    4  A    between atoms: C_24  and  N_25
REMARK    5  A    between atoms: N_25  and  C_28
REMARK                            x       y       z     vdW  Elec       q    Type
REMARK                         _______ _______ _______ _____ _____    ______ ____
ROOT
ATOM      1  N   UNL     1      37.612 -22.533 -15.952  0.00  0.00    -0.315 N 
ATOM      2  N   UNL     1      35.495 -22.356 -16.599  0.00  0.00    -0.317 N 
ATOM      3  C   UNL     1      35.576 -23.091 -15.444  0.00  0.00    +0.063 C 
ATOM      4  C   UNL     1      36.879 -23.214 -15.023  0.00  0.00    +0.085 C 
ATOM      5  C   UNL     1      36.739 -22.034 -16.879  0.00  0.00    +0.164 C 
ATOM      6  H   UNL     1      38.591 -22.420 -15.954  0.00  0.00    +0.148 HD
ATOM      7  H   UNL     1      34.685 -22.120 -17.108  0.00  0.00    +0.148 HD
ENDROOT
BRANCH   3  11
ATOM      8  N   UNL     1      32.015 -24.038 -14.849  0.00  0.00    -0.170 N 
ATOM      9  N   UNL     1      30.746 -24.023 -15.328  0.00  0.00    -0.150 NA
ATOM     10  N   UNL     1      30.799 -25.044 -13.285  0.00  0.00    -0.206 NA
ATOM     11  C   UNL     1      34.363 -23.640 -14.806  0.00  0.00    +0.031 C 
ATOM     12  C   UNL     1      33.177 -23.533 -15.439  0.00  0.00    +0.092 C 
ATOM     13  C   UNL     1      34.378 -24.295 -13.494  0.00  0.00    +0.006 C 
ATOM     14  C   UNL     1      32.017 -24.666 -13.601  0.00  0.00    +0.157 C 
ATOM     15  C   UNL     1      33.261 -24.782 -12.925  0.00  0.00    +0.036 C 
ATOM     16  C   UNL     1      30.069 -24.634 -14.357  0.00  0.00    +0.219 C 
ENDBRANCH   3  11
BRANCH   4  18
ATOM     17  N   UNL     1      38.455 -24.754 -14.201  0.00  0.00    -0.409 NA
ATOM     18  C   UNL     1      37.475 -23.877 -13.890  0.00  0.00    +0.127 C 
ATOM     19  C   UNL     1      37.056 -23.609 -12.597  0.00  0.00    +0.086 C 
ATOM     20  C   UNL     1      39.041 -25.393 -13.163  0.00  0.00    +0.109 C 
ATOM     21  C   UNL     1      37.683 -24.286 -11.556  0.00  0.00    -0.016 C 
ATOM     22  C   UNL     1      38.695 -25.196 -11.836  0.00  0.00    +0.023 C 
ATOM     23  C   UNL     1      40.123 -26.365 -13.502  0.00  0.00    +0.066 C 
ENDBRANCH   4  18
BRANCH   5  24
ATOM     24  C   UNL     1      37.210 -21.240 -18.028  0.00  0.00    +0.128 C 
BRANCH  24  25
ATOM     25  N   UNL     1      36.578 -21.664 -19.266  0.00  0.00    -0.328 N 
ATOM     26  H   UNL     1      37.021 -22.361 -19.802  0.00  0.00    +0.147 HD
BRANCH  25  28
ATOM     27  F   UNL     1      36.555 -19.521 -21.017  0.00  0.00    -0.203 F 
ATOM     28  C   UNL     1      35.388 -21.139 -19.729  0.00  0.00    +0.073 C 
ATOM     29  C   UNL     1      35.396 -20.058 -20.611  0.00  0.00    +0.153 C 
ATOM     30  C   UNL     1      34.175 -21.690 -19.312  0.00  0.00    +0.017 C 
ATOM     31  C   UNL     1      34.193 -19.529 -21.078  0.00  0.00    +0.031 C 
ATOM     32  C   UNL     1      32.972 -21.160 -19.779  0.00  0.00    +0.001 C 
ATOM     33  C   UNL     1      32.980 -20.080 -20.662  0.00  0.00    +0.002 C 
ENDBRANCH  25  28
ENDBRANCH  24  25
ENDBRANCH   5  24
TORSDOF 5
ENDMDL
