MODEL 1
REMARK VINA RESULT:      -9.9      0.000      0.000
REMARK  Name = 135565554
REMARK  0 active torsions:
REMARK  status: ('A' for Active; 'I' for Inactive)
REMARK                            x       y       z     vdW  Elec       q    Type
REMARK                         _______ _______ _______ _____ _____    ______ ____
ROOT
ATOM      1  F   UNL     1      35.956 -22.065 -18.866  0.00  0.00    -0.204 F 
ATOM      2  O   UNL     1      36.676 -23.381 -14.142  0.00  0.00    -0.268 OA
ATOM      3  N   UNL     1      29.967 -24.316 -13.827  0.00  0.00    +0.397 N 
ATOM      4  N   UNL     1      31.580 -22.881 -16.892  0.00  0.00    -0.358 N 
ATOM      5  N   UNL     1      33.408 -23.873 -12.759  0.00  0.00    -0.185 NA
ATOM      6  N   UNL     1      34.714 -23.755 -13.091  0.00  0.00    -0.203 N 
ATOM      7  C   UNL     1      29.870 -23.535 -15.089  0.00  0.00    -0.007 C 
ATOM      8  C   UNL     1      29.059 -24.491 -15.967  0.00  0.00    -0.016 C 
ATOM      9  C   UNL     1      31.245 -23.266 -15.623  0.00  0.00    +0.017 A 
ATOM     10  C   UNL     1      30.096 -25.738 -14.171  0.00  0.00    -0.076 C 
ATOM     11  C   UNL     1      29.559 -25.878 -15.589  0.00  0.00    -0.024 C 
ATOM     12  C   UNL     1      30.988 -23.858 -12.869  0.00  0.00    -0.028 C 
ATOM     13  C   UNL     1      32.406 -23.358 -14.891  0.00  0.00    +0.024 A 
ATOM     14  C   UNL     1      29.116 -22.220 -14.869  0.00  0.00    -0.015 C 
ATOM     15  C   UNL     1      32.371 -23.715 -13.511  0.00  0.00    +0.056 C 
ATOM     16  C   UNL     1      33.481 -23.074 -15.731  0.00  0.00    +0.022 A 
ATOM     17  C   UNL     1      32.951 -22.766 -16.986  0.00  0.00    +0.059 A 
ATOM     18  C   UNL     1      34.856 -23.055 -15.521  0.00  0.00    +0.059 C 
ATOM     19  C   UNL     1      33.758 -22.418 -18.073  0.00  0.00    +0.047 C 
ATOM     20  C   UNL     1      35.442 -23.404 -14.215  0.00  0.00    +0.265 C 
ATOM     21  C   UNL     1      35.680 -22.706 -16.608  0.00  0.00    +0.034 C 
ATOM     22  C   UNL     1      35.138 -22.392 -17.856  0.00  0.00    +0.142 C 
ATOM     23  H   UNL     1      29.103 -24.157 -13.306  0.00  0.00    -0.078 HD
ATOM     24  H   UNL     1      30.942 -22.715 -17.623  0.00  0.00    +0.166 HD
ATOM     25  H   UNL     1      35.301 -23.975 -12.333  0.00  0.00    +0.178 HD
ENDROOT
TORSDOF 0
ENDMDL
MODEL 2
REMARK VINA RESULT:      -9.2      2.428      4.848
REMARK  Name = 135565554
REMARK  0 active torsions:
REMARK  status: ('A' for Active; 'I' for Inactive)
REMARK                            x       y       z     vdW  Elec       q    Type
REMARK                         _______ _______ _______ _____ _____    ______ ____
ROOT
ATOM      1  F   UNL     1      34.334 -21.184 -19.923  0.00  0.00    -0.204 F 
ATOM      2  O   UNL     1      30.634 -22.424 -16.867  0.00  0.00    -0.268 OA
ATOM      3  N   UNL     1      35.430 -24.863 -12.740  0.00  0.00    +0.397 N 
ATOM      4  N   UNL     1      36.288 -23.565 -16.151  0.00  0.00    -0.358 N 
ATOM      5  N   UNL     1      32.157 -24.238 -14.180  0.00  0.00    -0.185 NA
ATOM      6  N   UNL     1      31.400 -23.574 -15.083  0.00  0.00    -0.203 N 
ATOM      7  C   UNL     1      36.359 -24.800 -13.900  0.00  0.00    -0.007 C 
ATOM      8  C   UNL     1      37.520 -23.997 -13.306  0.00  0.00    -0.016 C 
ATOM      9  C   UNL     1      35.689 -24.107 -15.048  0.00  0.00    +0.017 A 
ATOM     10  C   UNL     1      35.519 -23.593 -12.007  0.00  0.00    -0.076 C 
ATOM     11  C   UNL     1      36.854 -22.974 -12.397  0.00  0.00    -0.024 C 
ATOM     12  C   UNL     1      34.045 -25.254 -13.052  0.00  0.00    -0.028 C 
ATOM     13  C   UNL     1      34.332 -23.919 -15.170  0.00  0.00    +0.024 A 
ATOM     14  C   UNL     1      36.819 -26.202 -14.316  0.00  0.00    -0.015 C 
ATOM     15  C   UNL     1      33.436 -24.409 -14.175  0.00  0.00    +0.056 C 
ATOM     16  C   UNL     1      34.088 -23.207 -16.342  0.00  0.00    +0.022 A 
ATOM     17  C   UNL     1      35.325 -22.996 -16.959  0.00  0.00    +0.059 A 
ATOM     18  C   UNL     1      32.920 -22.727 -16.924  0.00  0.00    +0.059 C 
ATOM     19  C   UNL     1      35.448 -22.316 -18.174  0.00  0.00    +0.047 C 
ATOM     20  C   UNL     1      31.607 -22.911 -16.280  0.00  0.00    +0.265 C 
ATOM     21  C   UNL     1      33.030 -22.041 -18.148  0.00  0.00    +0.034 C 
ATOM     22  C   UNL     1      34.271 -21.844 -18.759  0.00  0.00    +0.142 C 
ATOM     23  H   UNL     1      35.738 -25.634 -12.147  0.00  0.00    -0.078 HD
ATOM     24  H   UNL     1      37.254 -23.578 -16.338  0.00  0.00    +0.166 HD
ATOM     25  H   UNL     1      30.452 -23.559 -14.819  0.00  0.00    +0.178 HD
ENDROOT
TORSDOF 0
ENDMDL
MODEL 3
REMARK VINA RESULT:      -9.1      8.666     11.335
REMARK  Name = 135565554
REMARK  0 active torsions:
REMARK  status: ('A' for Active; 'I' for Inactive)
REMARK                            x       y       z     vdW  Elec       q    Type
REMARK                         _______ _______ _______ _____ _____    ______ ____
ROOT
ATOM      1  F   UNL     1      32.628 -12.048 -20.689  0.00  0.00    -0.204 F 
ATOM      2  O   UNL     1      33.054 -13.650 -25.360  0.00  0.00    -0.268 OA
ATOM      3  N   UNL     1      35.598 -19.355 -22.720  0.00  0.00    +0.397 N 
ATOM      4  N   UNL     1      34.802 -16.404 -20.549  0.00  0.00    -0.358 N 
ATOM      5  N   UNL     1      34.735 -16.807 -25.157  0.00  0.00    -0.185 NA
ATOM      6  N   UNL     1      34.087 -15.656 -25.444  0.00  0.00    -0.203 N 
ATOM      7  C   UNL     1      35.780 -18.601 -21.450  0.00  0.00    -0.007 C 
ATOM      8  C   UNL     1      35.067 -19.521 -20.456  0.00  0.00    -0.016 C 
ATOM      9  C   UNL     1      35.141 -17.250 -21.567  0.00  0.00    +0.017 A 
ATOM     10  C   UNL     1      34.276 -19.994 -22.693  0.00  0.00    -0.076 C 
ATOM     11  C   UNL     1      33.875 -20.070 -21.226  0.00  0.00    -0.024 C 
ATOM     12  C   UNL     1      35.847 -18.593 -23.955  0.00  0.00    -0.028 C 
ATOM     13  C   UNL     1      34.800 -16.641 -22.752  0.00  0.00    +0.024 A 
ATOM     14  C   UNL     1      37.265 -18.461 -21.098  0.00  0.00    -0.015 C 
ATOM     15  C   UNL     1      35.062 -17.278 -24.001  0.00  0.00    +0.056 C 
ATOM     16  C   UNL     1      34.197 -15.419 -22.464  0.00  0.00    +0.022 A 
ATOM     17  C   UNL     1      34.210 -15.273 -21.074  0.00  0.00    +0.059 A 
ATOM     18  C   UNL     1      33.643 -14.431 -23.271  0.00  0.00    +0.059 C 
ATOM     19  C   UNL     1      33.689 -14.144 -20.436  0.00  0.00    +0.047 C 
ATOM     20  C   UNL     1      33.590 -14.574 -24.736  0.00  0.00    +0.265 C 
ATOM     21  C   UNL     1      33.115 -13.289 -22.641  0.00  0.00    +0.034 C 
ATOM     22  C   UNL     1      33.142 -13.150 -21.251  0.00  0.00    +0.142 C 
ATOM     23  H   UNL     1      36.332 -20.063 -22.758  0.00  0.00    -0.078 HD
ATOM     24  H   UNL     1      34.955 -16.575 -19.591  0.00  0.00    +0.166 HD
ATOM     25  H   UNL     1      33.925 -15.562 -26.410  0.00  0.00    +0.178 HD
ENDROOT
TORSDOF 0
ENDMDL
MODEL 4
REMARK VINA RESULT:      -9.0      2.913      5.391
REMARK  Name = 135565554
REMARK  0 active torsions:
REMARK  status: ('A' for Active; 'I' for Inactive)
REMARK                            x       y       z     vdW  Elec       q    Type
REMARK                         _______ _______ _______ _____ _____    ______ ____
ROOT
ATOM      1  F   UNL     1      36.760 -20.968 -19.226  0.00  0.00    -0.204 F 
ATOM      2  O   UNL     1      32.484 -22.635 -17.354  0.00  0.00    -0.268 OA
ATOM      3  N   UNL     1      36.132 -24.775 -12.054  0.00  0.00    +0.397 N 
ATOM      4  N   UNL     1      37.789 -23.291 -15.072  0.00  0.00    -0.358 N 
ATOM      5  N   UNL     1      33.353 -24.396 -14.358  0.00  0.00    -0.185 NA
ATOM      6  N   UNL     1      32.822 -23.772 -15.434  0.00  0.00    -0.203 N 
ATOM      7  C   UNL     1      37.340 -24.591 -12.902  0.00  0.00    -0.007 C 
ATOM      8  C   UNL     1      38.205 -23.708 -11.998  0.00  0.00    -0.016 C 
ATOM      9  C   UNL     1      36.958 -23.922 -14.188  0.00  0.00    +0.017 A 
ATOM     10  C   UNL     1      35.890 -23.528 -11.316  0.00  0.00    -0.076 C 
ATOM     11  C   UNL     1      37.216 -22.780 -11.308  0.00  0.00    -0.024 C 
ATOM     12  C   UNL     1      34.935 -25.278 -12.749  0.00  0.00    -0.028 C 
ATOM     13  C   UNL     1      35.679 -23.851 -14.689  0.00  0.00    +0.024 A 
ATOM     14  C   UNL     1      38.029 -25.931 -13.181  0.00  0.00    -0.015 C 
ATOM     15  C   UNL     1      34.589 -24.452 -13.993  0.00  0.00    +0.056 C 
ATOM     16  C   UNL     1      35.709 -23.124 -15.877  0.00  0.00    +0.022 A 
ATOM     17  C   UNL     1      37.043 -22.783 -16.116  0.00  0.00    +0.059 A 
ATOM     18  C   UNL     1      34.711 -22.731 -16.763  0.00  0.00    +0.059 C 
ATOM     19  C   UNL     1      37.438 -22.054 -17.241  0.00  0.00    +0.047 C 
ATOM     20  C   UNL     1      33.294 -23.052 -16.519  0.00  0.00    +0.265 C 
ATOM     21  C   UNL     1      35.096 -21.996 -17.900  0.00  0.00    +0.034 C 
ATOM     22  C   UNL     1      36.434 -21.669 -18.132  0.00  0.00    +0.142 C 
ATOM     23  H   UNL     1      36.333 -25.535 -11.404  0.00  0.00    -0.078 HD
ATOM     24  H   UNL     1      38.766 -23.211 -14.978  0.00  0.00    +0.166 HD
ATOM     25  H   UNL     1      31.841 -23.850 -15.450  0.00  0.00    +0.178 HD
ENDROOT
TORSDOF 0
ENDMDL
MODEL 5
REMARK VINA RESULT:      -8.2     13.251     15.204
REMARK  Name = 135565554
REMARK  0 active torsions:
REMARK  status: ('A' for Active; 'I' for Inactive)
REMARK                            x       y       z     vdW  Elec       q    Type
REMARK                         _______ _______ _______ _____ _____    ______ ____
ROOT
ATOM      1  F   UNL     1      35.750  -6.467 -24.262  0.00  0.00    -0.204 F 
ATOM      2  O   UNL     1      32.054  -7.033 -21.009  0.00  0.00    -0.268 OA
ATOM      3  N   UNL     1      32.673 -13.695 -22.112  0.00  0.00    +0.397 N 
ATOM      4  N   UNL     1      34.663 -11.211 -24.093  0.00  0.00    -0.358 N 
ATOM      5  N   UNL     1      31.272 -10.529 -21.021  0.00  0.00    -0.185 NA
ATOM      6  N   UNL     1      31.421  -9.194 -20.860  0.00  0.00    -0.203 N 
ATOM      7  C   UNL     1      33.464 -13.348 -23.323  0.00  0.00    -0.007 C 
ATOM      8  C   UNL     1      34.731 -14.178 -23.096  0.00  0.00    -0.016 C 
ATOM      9  C   UNL     1      33.723 -11.872 -23.353  0.00  0.00    +0.017 A 
ATOM     10  C   UNL     1      33.599 -13.849 -20.983  0.00  0.00    -0.076 C 
ATOM     11  C   UNL     1      34.968 -14.114 -21.594  0.00  0.00    -0.024 C 
ATOM     12  C   UNL     1      31.540 -12.802 -21.813  0.00  0.00    -0.028 C 
ATOM     13  C   UNL     1      33.025 -10.936 -22.626  0.00  0.00    +0.024 A 
ATOM     14  C   UNL     1      32.741 -13.790 -24.600  0.00  0.00    -0.015 C 
ATOM     15  C   UNL     1      31.950 -11.327 -21.774  0.00  0.00    +0.056 C 
ATOM     16  C   UNL     1      33.571  -9.680 -22.882  0.00  0.00    +0.022 A 
ATOM     17  C   UNL     1      34.597  -9.862 -23.814  0.00  0.00    +0.059 A 
ATOM     18  C   UNL     1      33.276  -8.411 -22.397  0.00  0.00    +0.059 C 
ATOM     19  C   UNL     1      35.356  -8.797 -24.306  0.00  0.00    +0.047 C 
ATOM     20  C   UNL     1      32.219  -8.196 -21.393  0.00  0.00    +0.265 C 
ATOM     21  C   UNL     1      34.033  -7.329 -22.885  0.00  0.00    +0.034 C 
ATOM     22  C   UNL     1      35.051  -7.522 -23.823  0.00  0.00    +0.142 C 
ATOM     23  H   UNL     1      32.200 -14.579 -22.303  0.00  0.00    -0.078 HD
ATOM     24  H   UNL     1      35.290 -11.633 -24.725  0.00  0.00    +0.166 HD
ATOM     25  H   UNL     1      30.798  -8.839 -20.186  0.00  0.00    +0.178 HD
ENDROOT
TORSDOF 0
ENDMDL
MODEL 6
REMARK VINA RESULT:      -8.0     13.431     15.429
REMARK  Name = 135565554
REMARK  0 active torsions:
REMARK  status: ('A' for Active; 'I' for Inactive)
REMARK                            x       y       z     vdW  Elec       q    Type
REMARK                         _______ _______ _______ _____ _____    ______ ____
ROOT
ATOM      1  F   UNL     1      34.125 -14.644 -24.686  0.00  0.00    -0.204 F 
ATOM      2  O   UNL     1      31.828 -13.925 -20.353  0.00  0.00    -0.268 OA
ATOM      3  N   UNL     1      32.144  -7.301 -21.773  0.00  0.00    +0.397 N 
ATOM      4  N   UNL     1      33.798  -9.837 -23.984  0.00  0.00    -0.358 N 
ATOM      5  N   UNL     1      31.714 -10.374 -19.889  0.00  0.00    -0.185 NA
ATOM      6  N   UNL     1      31.643 -11.725 -19.883  0.00  0.00    -0.203 N 
ATOM      7  C   UNL     1      33.154  -7.645 -22.811  0.00  0.00    -0.007 C 
ATOM      8  C   UNL     1      32.552  -6.966 -24.044  0.00  0.00    -0.016 C 
ATOM      9  C   UNL     1      33.252  -9.135 -22.946  0.00  0.00    +0.017 A 
ATOM     10  C   UNL     1      30.815  -7.318 -22.397  0.00  0.00    -0.076 C 
ATOM     11  C   UNL     1      31.050  -7.154 -23.893  0.00  0.00    -0.024 C 
ATOM     12  C   UNL     1      32.210  -8.092 -20.532  0.00  0.00    -0.028 C 
ATOM     13  C   UNL     1      32.804 -10.041 -22.014  0.00  0.00    +0.024 A 
ATOM     14  C   UNL     1      34.523  -7.047 -22.468  0.00  0.00    -0.015 C 
ATOM     15  C   UNL     1      32.206  -9.601 -20.797  0.00  0.00    +0.056 C 
ATOM     16  C   UNL     1      33.031 -11.326 -22.503  0.00  0.00    +0.022 A 
ATOM     17  C   UNL     1      33.667 -11.188 -23.740  0.00  0.00    +0.059 A 
ATOM     18  C   UNL     1      32.749 -12.588 -21.992  0.00  0.00    +0.059 C 
ATOM     19  C   UNL     1      34.053 -12.290 -24.508  0.00  0.00    +0.047 C 
ATOM     20  C   UNL     1      32.054 -12.761 -20.704  0.00  0.00    +0.265 C 
ATOM     21  C   UNL     1      33.133 -13.706 -22.756  0.00  0.00    +0.034 C 
ATOM     22  C   UNL     1      33.775 -13.555 -23.988  0.00  0.00    +0.142 C 
ATOM     23  H   UNL     1      32.364  -6.363 -21.437  0.00  0.00    -0.078 HD
ATOM     24  H   UNL     1      34.219  -9.440 -24.782  0.00  0.00    +0.166 HD
ATOM     25  H   UNL     1      31.175 -12.059 -19.084  0.00  0.00    +0.178 HD
ENDROOT
TORSDOF 0
ENDMDL
MODEL 7
REMARK VINA RESULT:      -7.9     14.196     16.116
REMARK  Name = 135565554
REMARK  0 active torsions:
REMARK  status: ('A' for Active; 'I' for Inactive)
REMARK                            x       y       z     vdW  Elec       q    Type
REMARK                         _______ _______ _______ _____ _____    ______ ____
ROOT
ATOM      1  F   UNL     1      32.358 -14.315 -21.958  0.00  0.00    -0.204 F 
ATOM      2  O   UNL     1      31.206 -11.442 -18.087  0.00  0.00    -0.268 OA
ATOM      3  N   UNL     1      32.569  -6.175 -22.136  0.00  0.00    +0.397 N 
ATOM      4  N   UNL     1      33.174  -9.697 -23.270  0.00  0.00    -0.358 N 
ATOM      5  N   UNL     1      31.919  -8.086 -19.119  0.00  0.00    -0.185 NA
ATOM      6  N   UNL     1      31.576  -9.263 -18.549  0.00  0.00    -0.203 N 
ATOM      7  C   UNL     1      33.249  -7.140 -23.042  0.00  0.00    -0.007 C 
ATOM      8  C   UNL     1      32.557  -6.833 -24.373  0.00  0.00    -0.016 C 
ATOM      9  C   UNL     1      33.010  -8.539 -22.561  0.00  0.00    +0.017 A 
ATOM     10  C   UNL     1      31.164  -6.063 -22.550  0.00  0.00    -0.076 C 
ATOM     11  C   UNL     1      31.112  -6.537 -23.997  0.00  0.00    -0.024 C 
ATOM     12  C   UNL     1      32.727  -6.433 -20.695  0.00  0.00    -0.028 C 
ATOM     13  C   UNL     1      32.589  -8.876 -21.296  0.00  0.00    +0.024 A 
ATOM     14  C   UNL     1      34.752  -6.852 -23.127  0.00  0.00    -0.015 C 
ATOM     15  C   UNL     1      32.360  -7.870 -20.312  0.00  0.00    +0.056 C 
ATOM     16  C   UNL     1      32.443 -10.260 -21.233  0.00  0.00    +0.022 A 
ATOM     17  C   UNL     1      32.822 -10.770 -22.478  0.00  0.00    +0.059 A 
ATOM     18  C   UNL     1      32.020 -11.115 -20.220  0.00  0.00    +0.059 C 
ATOM     19  C   UNL     1      32.808 -12.139 -22.760  0.00  0.00    +0.047 C 
ATOM     20  C   UNL     1      31.587 -10.600 -18.909  0.00  0.00    +0.265 C 
ATOM     21  C   UNL     1      32.001 -12.496 -20.492  0.00  0.00    +0.034 C 
ATOM     22  C   UNL     1      32.391 -12.994 -21.738  0.00  0.00    +0.142 C 
ATOM     23  H   UNL     1      33.040  -5.277 -22.243  0.00  0.00    -0.078 HD
ATOM     24  H   UNL     1      33.492  -9.755 -24.201  0.00  0.00    +0.166 HD
ATOM     25  H   UNL     1      31.226  -9.136 -17.638  0.00  0.00    +0.178 HD
ENDROOT
TORSDOF 0
ENDMDL
MODEL 8
REMARK VINA RESULT:      -7.8     18.393     20.148
REMARK  Name = 135565554
REMARK  0 active torsions:
REMARK  status: ('A' for Active; 'I' for Inactive)
REMARK                            x       y       z     vdW  Elec       q    Type
REMARK                         _______ _______ _______ _____ _____    ______ ____
ROOT
ATOM      1  F   UNL     1      36.257  -4.584 -27.218  0.00  0.00    -0.204 F 
ATOM      2  O   UNL     1      32.212  -1.996 -25.990  0.00  0.00    -0.268 OA
ATOM      3  N   UNL     1      31.125  -6.749 -21.276  0.00  0.00    +0.397 N 
ATOM      4  N   UNL     1      33.917  -7.084 -23.755  0.00  0.00    -0.358 N 
ATOM      5  N   UNL     1      30.521  -3.951 -23.510  0.00  0.00    -0.185 NA
ATOM      6  N   UNL     1      31.007  -3.067 -24.410  0.00  0.00    -0.203 N 
ATOM      7  C   UNL     1      32.108  -7.595 -22.005  0.00  0.00    -0.007 C 
ATOM      8  C   UNL     1      33.071  -7.969 -20.874  0.00  0.00    -0.016 C 
ATOM      9  C   UNL     1      32.758  -6.792 -23.092  0.00  0.00    +0.017 A 
ATOM     10  C   UNL     1      31.845  -5.976 -20.256  0.00  0.00    -0.076 C 
ATOM     11  C   UNL     1      33.151  -6.720 -20.008  0.00  0.00    -0.024 C 
ATOM     12  C   UNL     1      30.250  -5.917 -22.120  0.00  0.00    -0.028 C 
ATOM     13  C   UNL     1      32.263  -5.616 -23.605  0.00  0.00    +0.024 A 
ATOM     14  C   UNL     1      31.438  -8.842 -22.589  0.00  0.00    -0.015 C 
ATOM     15  C   UNL     1      31.037  -5.070 -23.125  0.00  0.00    +0.056 C 
ATOM     16  C   UNL     1      33.154  -5.144 -24.567  0.00  0.00    +0.022 A 
ATOM     17  C   UNL     1      34.188  -6.080 -24.662  0.00  0.00    +0.059 A 
ATOM     18  C   UNL     1      33.161  -4.002 -25.360  0.00  0.00    +0.059 C 
ATOM     19  C   UNL     1      35.256  -5.925 -25.550  0.00  0.00    +0.047 C 
ATOM     20  C   UNL     1      32.098  -2.987 -25.259  0.00  0.00    +0.265 C 
ATOM     21  C   UNL     1      34.231  -3.834 -26.259  0.00  0.00    +0.034 C 
ATOM     22  C   UNL     1      35.255  -4.780 -26.350  0.00  0.00    +0.142 C 
ATOM     23  H   UNL     1      30.455  -7.378 -20.833  0.00  0.00    -0.078 HD
ATOM     24  H   UNL     1      34.472  -7.884 -23.608  0.00  0.00    +0.166 HD
ATOM     25  H   UNL     1      30.433  -2.271 -24.482  0.00  0.00    +0.178 HD
ENDROOT
TORSDOF 0
ENDMDL
MODEL 9
REMARK VINA RESULT:      -7.7     12.976     15.103
REMARK  Name = 135565554
REMARK  0 active torsions:
REMARK  status: ('A' for Active; 'I' for Inactive)
REMARK                            x       y       z     vdW  Elec       q    Type
REMARK                         _______ _______ _______ _____ _____    ______ ____
ROOT
ATOM      1  F   UNL     1      31.931 -15.128 -19.502  0.00  0.00    -0.204 F 
ATOM      2  O   UNL     1      34.859 -14.241 -23.402  0.00  0.00    -0.268 OA
ATOM      3  N   UNL     1      32.858  -7.781 -22.893  0.00  0.00    +0.397 N 
ATOM      4  N   UNL     1      31.364 -10.448 -20.722  0.00  0.00    -0.358 N 
ATOM      5  N   UNL     1      34.307 -10.810 -24.273  0.00  0.00    -0.185 NA
ATOM      6  N   UNL     1      34.664 -12.103 -24.099  0.00  0.00    -0.203 N 
ATOM      7  C   UNL     1      31.754  -8.267 -22.021  0.00  0.00    -0.007 C 
ATOM      8  C   UNL     1      31.932  -7.371 -20.793  0.00  0.00    -0.016 C 
ATOM      9  C   UNL     1      31.949  -9.723 -21.722  0.00  0.00    +0.017 A 
ATOM     10  C   UNL     1      34.004  -7.439 -22.041  0.00  0.00    -0.076 C 
ATOM     11  C   UNL     1      33.439  -7.215 -20.644  0.00  0.00    -0.024 C 
ATOM     12  C   UNL     1      33.217  -8.662 -24.018  0.00  0.00    -0.028 C 
ATOM     13  C   UNL     1      32.761 -10.572 -22.438  0.00  0.00    +0.024 A 
ATOM     14  C   UNL     1      30.389  -8.034 -22.677  0.00  0.00    -0.015 C 
ATOM     15  C   UNL     1      33.487 -10.102 -23.572  0.00  0.00    +0.056 C 
ATOM     16  C   UNL     1      32.716 -11.831 -21.844  0.00  0.00    +0.022 A 
ATOM     17  C   UNL     1      31.827 -11.747 -20.769  0.00  0.00    +0.059 A 
ATOM     18  C   UNL     1      33.359 -13.030 -22.135  0.00  0.00    +0.059 C 
ATOM     19  C   UNL     1      31.535 -12.843 -19.954  0.00  0.00    +0.047 C 
ATOM     20  C   UNL     1      34.323 -13.138 -23.244  0.00  0.00    +0.265 C 
ATOM     21  C   UNL     1      33.073 -14.142 -21.321  0.00  0.00    +0.034 C 
ATOM     22  C   UNL     1      32.176 -14.047 -20.255  0.00  0.00    +0.142 C 
ATOM     23  H   UNL     1      32.517  -6.950 -23.376  0.00  0.00    -0.078 HD
ATOM     24  H   UNL     1      30.715 -10.098 -20.069  0.00  0.00    +0.166 HD
ATOM     25  H   UNL     1      35.345 -12.382 -24.752  0.00  0.00    +0.178 HD
ENDROOT
TORSDOF 0
ENDMDL
