MODEL 1
REMARK VINA RESULT:     -11.4      0.000      0.000
REMARK  Name = 44177328
REMARK  2 active torsions:
REMARK  status: ('A' for Active; 'I' for Inactive)
REMARK    1  A    between atoms: N_1  and  C_15
REMARK    2  A    between atoms: C_6  and  C_23
REMARK                            x       y       z     vdW  Elec       q    Type
REMARK                         _______ _______ _______ _____ _____    ______ ____
ROOT
ATOM      1  N   UNL     1      32.570 -22.686 -17.858  0.00  0.00    -0.286 N 
ATOM      2  N   UNL     1      33.551 -23.572 -15.894  0.00  0.00    -0.386 NA
ATOM      3  N   UNL     1      31.021 -23.636 -14.685  0.00  0.00    -0.246 NA
ATOM      4  N   UNL     1      30.067 -22.748 -16.667  0.00  0.00    -0.340 N 
ATOM      5  C   UNL     1      32.441 -23.160 -16.539  0.00  0.00    +0.214 C 
ATOM      6  C   UNL     1      33.373 -24.016 -14.634  0.00  0.00    +0.135 C 
ATOM      7  C   UNL     1      31.198 -23.191 -15.946  0.00  0.00    +0.166 C 
ATOM      8  C   UNL     1      32.130 -24.047 -14.041  0.00  0.00    +0.185 C 
ATOM      9  H   UNL     1      31.773 -22.841 -18.414  0.00  0.00    +0.155 HD
ATOM     10  H   UNL     1      29.176 -22.768 -16.248  0.00  0.00    +0.144 HD
ATOM     11  H   UNL     1      30.170 -22.419 -17.589  0.00  0.00    +0.144 HD
ENDROOT
BRANCH   1  15
ATOM     12  N   UNL     1      36.506 -19.989 -20.657  0.00  0.00    -0.312 N 
ATOM     13  C   UNL     1      34.368 -20.426 -20.193  0.00  0.00    +0.016 C 
ATOM     14  C   UNL     1      35.685 -20.757 -19.863  0.00  0.00    +0.048 C 
ATOM     15  C   UNL     1      33.620 -22.031 -18.540  0.00  0.00    +0.050 C 
ATOM     16  C   UNL     1      33.316 -21.077 -19.518  0.00  0.00    +0.016 C 
ATOM     17  C   UNL     1      36.002 -21.707 -18.886  0.00  0.00    +0.016 C 
ATOM     18  C   UNL     1      34.942 -22.340 -18.230  0.00  0.00    +0.016 C 
ATOM     19  C   UNL     1      34.430 -19.436 -21.213  0.00  0.00    +0.017 C 
ATOM     20  C   UNL     1      35.757 -19.188 -21.477  0.00  0.00    +0.062 C 
ATOM     21  H   UNL     1      37.490 -20.014 -20.639  0.00  0.00    +0.152 HD
ENDBRANCH   1  15
BRANCH   6  23
ATOM     22  N   UNL     1      36.866 -25.299 -12.610  0.00  0.00    -0.242 NA
ATOM     23  C   UNL     1      34.561 -24.453 -13.946  0.00  0.00    +0.031 C 
ATOM     24  C   UNL     1      35.617 -25.009 -14.660  0.00  0.00    +0.023 C 
ATOM     25  C   UNL     1      34.657 -24.318 -12.565  0.00  0.00    +0.023 C 
ATOM     26  C   UNL     1      36.737 -25.413 -13.951  0.00  0.00    +0.099 C 
ATOM     27  C   UNL     1      35.820 -24.753 -11.950  0.00  0.00    +0.099 C 
ENDBRANCH   6  23
TORSDOF 2
ENDMDL
MODEL 2
REMARK VINA RESULT:     -10.7      6.232     10.297
REMARK  Name = 44177328
REMARK  2 active torsions:
REMARK  status: ('A' for Active; 'I' for Inactive)
REMARK    1  A    between atoms: N_1  and  C_15
REMARK    2  A    between atoms: C_6  and  C_23
REMARK                            x       y       z     vdW  Elec       q    Type
REMARK                         _______ _______ _______ _____ _____    ______ ____
ROOT
ATOM      1  N   UNL     1      33.801 -14.121 -23.484  0.00  0.00    -0.286 N 
ATOM      2  N   UNL     1      34.644 -16.236 -22.838  0.00  0.00    -0.386 NA
ATOM      3  N   UNL     1      34.617 -17.044 -25.524  0.00  0.00    -0.246 NA
ATOM      4  N   UNL     1      33.773 -14.914 -26.141  0.00  0.00    -0.340 N 
ATOM      5  C   UNL     1      34.230 -15.417 -23.825  0.00  0.00    +0.214 C 
ATOM      6  C   UNL     1      35.045 -17.466 -23.217  0.00  0.00    +0.135 C 
ATOM      7  C   UNL     1      34.217 -15.813 -25.145  0.00  0.00    +0.166 C 
ATOM      8  C   UNL     1      35.031 -17.862 -24.537  0.00  0.00    +0.185 C 
ATOM      9  H   UNL     1      33.957 -13.454 -24.191  0.00  0.00    +0.155 HD
ATOM     10  H   UNL     1      33.762 -15.192 -27.086  0.00  0.00    +0.144 HD
ATOM     11  H   UNL     1      33.475 -14.010 -25.890  0.00  0.00    +0.144 HD
ENDROOT
BRANCH   1  15
ATOM     12  N   UNL     1      31.371 -11.825 -19.076  0.00  0.00    -0.312 N 
ATOM     13  C   UNL     1      32.113 -11.748 -21.179  0.00  0.00    +0.016 C 
ATOM     14  C   UNL     1      31.994 -12.568 -20.054  0.00  0.00    +0.048 C 
ATOM     15  C   UNL     1      33.189 -13.590 -22.327  0.00  0.00    +0.050 C 
ATOM     16  C   UNL     1      32.723 -12.271 -22.337  0.00  0.00    +0.016 C 
ATOM     17  C   UNL     1      32.455 -13.889 -20.030  0.00  0.00    +0.016 C 
ATOM     18  C   UNL     1      33.057 -14.385 -21.191  0.00  0.00    +0.016 C 
ATOM     19  C   UNL     1      31.542 -10.490 -20.841  0.00  0.00    +0.017 C 
ATOM     20  C   UNL     1      31.095 -10.568 -19.542  0.00  0.00    +0.062 C 
ATOM     21  H   UNL     1      31.158 -12.151 -18.172  0.00  0.00    +0.152 HD
ENDBRANCH   1  15
BRANCH   6  23
ATOM     22  N   UNL     1      36.336 -20.035 -20.107  0.00  0.00    -0.242 NA
ATOM     23  C   UNL     1      35.484 -18.340 -22.160  0.00  0.00    +0.031 C 
ATOM     24  C   UNL     1      34.609 -19.276 -21.619  0.00  0.00    +0.023 C 
ATOM     25  C   UNL     1      36.785 -18.252 -21.676  0.00  0.00    +0.023 C 
ATOM     26  C   UNL     1      35.080 -20.092 -20.604  0.00  0.00    +0.099 C 
ATOM     27  C   UNL     1      37.158 -19.114 -20.658  0.00  0.00    +0.099 C 
ENDBRANCH   6  23
TORSDOF 2
ENDMDL
MODEL 3
REMARK VINA RESULT:     -10.7      1.070      1.185
REMARK  Name = 44177328
REMARK  2 active torsions:
REMARK  status: ('A' for Active; 'I' for Inactive)
REMARK    1  A    between atoms: N_1  and  C_15
REMARK    2  A    between atoms: C_6  and  C_23
REMARK                            x       y       z     vdW  Elec       q    Type
REMARK                         _______ _______ _______ _____ _____    ______ ____
ROOT
ATOM      1  N   UNL     1      33.169 -23.128 -17.314  0.00  0.00    -0.286 N 
ATOM      2  N   UNL     1      34.533 -23.630 -15.446  0.00  0.00    -0.386 NA
ATOM      3  N   UNL     1      32.228 -24.106 -13.919  0.00  0.00    -0.246 NA
ATOM      4  N   UNL     1      30.888 -23.599 -15.810  0.00  0.00    -0.340 N 
ATOM      5  C   UNL     1      33.295 -23.507 -15.965  0.00  0.00    +0.214 C 
ATOM      6  C   UNL     1      34.598 -23.995 -14.150  0.00  0.00    +0.135 C 
ATOM      7  C   UNL     1      32.163 -23.741 -15.216  0.00  0.00    +0.166 C 
ATOM      8  C   UNL     1      33.466 -24.229 -13.401  0.00  0.00    +0.185 C 
ATOM      9  H   UNL     1      32.365 -23.488 -17.753  0.00  0.00    +0.155 HD
ATOM     10  H   UNL     1      30.076 -23.764 -15.279  0.00  0.00    +0.144 HD
ATOM     11  H   UNL     1      30.813 -23.333 -16.755  0.00  0.00    +0.144 HD
ENDROOT
BRANCH   1  15
ATOM     12  N   UNL     1      36.099 -19.923 -20.742  0.00  0.00    -0.312 N 
ATOM     13  C   UNL     1      34.168 -20.725 -19.964  0.00  0.00    +0.016 C 
ATOM     14  C   UNL     1      35.556 -20.779 -19.811  0.00  0.00    +0.048 C 
ATOM     15  C   UNL     1      33.972 -22.332 -18.162  0.00  0.00    +0.050 C 
ATOM     16  C   UNL     1      33.362 -21.517 -19.123  0.00  0.00    +0.016 C 
ATOM     17  C   UNL     1      36.178 -21.587 -18.854  0.00  0.00    +0.016 C 
ATOM     18  C   UNL     1      35.358 -22.365 -18.031  0.00  0.00    +0.016 C 
ATOM     19  C   UNL     1      33.900 -19.808 -21.019  0.00  0.00    +0.017 C 
ATOM     20  C   UNL     1      35.107 -19.332 -21.477  0.00  0.00    +0.062 C 
ATOM     21  H   UNL     1      37.063 -19.761 -20.863  0.00  0.00    +0.152 HD
ENDBRANCH   1  15
BRANCH   6  23
ATOM     22  N   UNL     1      38.491 -24.369 -12.522  0.00  0.00    -0.242 NA
ATOM     23  C   UNL     1      35.922 -24.122 -13.597  0.00  0.00    +0.031 C 
ATOM     24  C   UNL     1      36.915 -24.790 -14.306  0.00  0.00    +0.023 C 
ATOM     25  C   UNL     1      36.213 -23.577 -12.351  0.00  0.00    +0.023 C 
ATOM     26  C   UNL     1      38.171 -24.885 -13.731  0.00  0.00    +0.099 C 
ATOM     27  C   UNL     1      37.501 -23.727 -11.862  0.00  0.00    +0.099 C 
ENDBRANCH   6  23
TORSDOF 2
ENDMDL
MODEL 4
REMARK VINA RESULT:     -10.5     10.522     13.911
REMARK  Name = 44177328
REMARK  2 active torsions:
REMARK  status: ('A' for Active; 'I' for Inactive)
REMARK    1  A    between atoms: N_1  and  C_15
REMARK    2  A    between atoms: C_6  and  C_23
REMARK                            x       y       z     vdW  Elec       q    Type
REMARK                         _______ _______ _______ _____ _____    ______ ____
ROOT
ATOM      1  N   UNL     1      31.665 -10.214 -21.492  0.00  0.00    -0.286 N 
ATOM      2  N   UNL     1      32.473 -12.163 -22.565  0.00  0.00    -0.386 NA
ATOM      3  N   UNL     1      32.276 -13.555 -20.138  0.00  0.00    -0.246 NA
ATOM      4  N   UNL     1      31.467 -11.586 -19.091  0.00  0.00    -0.340 N 
ATOM      5  C   UNL     1      32.034 -11.571 -21.437  0.00  0.00    +0.214 C 
ATOM      6  C   UNL     1      32.813 -13.463 -22.459  0.00  0.00    +0.135 C 
ATOM      7  C   UNL     1      31.936 -12.254 -20.245  0.00  0.00    +0.166 C 
ATOM      8  C   UNL     1      32.716 -14.146 -21.266  0.00  0.00    +0.185 C 
ATOM      9  H   UNL     1      30.960  -9.969 -20.850  0.00  0.00    +0.155 HD
ATOM     10  H   UNL     1      31.396 -12.069 -18.236  0.00  0.00    +0.144 HD
ATOM     11  H   UNL     1      31.213 -10.636 -19.142  0.00  0.00    +0.144 HD
ENDROOT
BRANCH   1  15
ATOM     12  N   UNL     1      33.646  -6.053 -24.554  0.00  0.00    -0.312 N 
ATOM     13  C   UNL     1      33.919  -7.816 -23.213  0.00  0.00    +0.016 C 
ATOM     14  C   UNL     1      32.963  -7.020 -23.850  0.00  0.00    +0.048 C 
ATOM     15  C   UNL     1      32.110  -9.135 -22.288  0.00  0.00    +0.050 C 
ATOM     16  C   UNL     1      33.482  -8.894 -22.417  0.00  0.00    +0.016 C 
ATOM     17  C   UNL     1      31.589  -7.251 -23.731  0.00  0.00    +0.016 C 
ATOM     18  C   UNL     1      31.179  -8.325 -22.935  0.00  0.00    +0.016 C 
ATOM     19  C   UNL     1      35.196  -7.292 -23.559  0.00  0.00    +0.017 C 
ATOM     20  C   UNL     1      34.995  -6.209 -24.384  0.00  0.00    +0.062 C 
ATOM     21  H   UNL     1      33.224  -5.351 -25.099  0.00  0.00    +0.152 HD
ENDBRANCH   1  15
BRANCH   6  23
ATOM     22  N   UNL     1      34.204 -15.313 -26.006  0.00  0.00    -0.242 NA
ATOM     23  C   UNL     1      33.286 -14.091 -23.665  0.00  0.00    +0.031 C 
ATOM     24  C   UNL     1      32.958 -13.557 -24.906  0.00  0.00    +0.023 C 
ATOM     25  C   UNL     1      34.073 -15.236 -23.593  0.00  0.00    +0.023 C 
ATOM     26  C   UNL     1      33.438 -14.199 -26.036  0.00  0.00    +0.099 C 
ATOM     27  C   UNL     1      34.502 -15.804 -24.782  0.00  0.00    +0.099 C 
ENDBRANCH   6  23
TORSDOF 2
ENDMDL
MODEL 5
REMARK VINA RESULT:     -10.1      1.793      6.636
REMARK  Name = 44177328
REMARK  2 active torsions:
REMARK  status: ('A' for Active; 'I' for Inactive)
REMARK    1  A    between atoms: N_1  and  C_15
REMARK    2  A    between atoms: C_6  and  C_23
REMARK                            x       y       z     vdW  Elec       q    Type
REMARK                         _______ _______ _______ _____ _____    ______ ____
ROOT
ATOM      1  N   UNL     1      34.826 -24.526 -13.418  0.00  0.00    -0.286 N 
ATOM      2  N   UNL     1      34.627 -23.449 -15.517  0.00  0.00    -0.386 NA
ATOM      3  N   UNL     1      31.857 -23.880 -15.452  0.00  0.00    -0.246 NA
ATOM      4  N   UNL     1      32.087 -24.953 -13.349  0.00  0.00    -0.340 N 
ATOM      5  C   UNL     1      34.027 -24.078 -14.487  0.00  0.00    +0.214 C 
ATOM      6  C   UNL     1      33.818 -23.039 -16.514  0.00  0.00    +0.135 C 
ATOM      7  C   UNL     1      32.666 -24.289 -14.454  0.00  0.00    +0.166 C 
ATOM      8  C   UNL     1      32.457 -23.252 -16.481  0.00  0.00    +0.185 C 
ATOM      9  H   UNL     1      34.359 -24.536 -12.552  0.00  0.00    +0.155 HD
ATOM     10  H   UNL     1      31.115 -25.108 -13.320  0.00  0.00    +0.144 HD
ATOM     11  H   UNL     1      32.656 -25.263 -12.607  0.00  0.00    +0.144 HD
ENDROOT
BRANCH   1  15
ATOM     12  N   UNL     1      40.119 -26.134 -13.361  0.00  0.00    -0.312 N 
ATOM     13  C   UNL     1      38.381 -25.112 -14.317  0.00  0.00    +0.016 C 
ATOM     14  C   UNL     1      38.787 -25.829 -13.189  0.00  0.00    +0.048 C 
ATOM     15  C   UNL     1      36.167 -24.965 -13.346  0.00  0.00    +0.050 C 
ATOM     16  C   UNL     1      37.044 -24.672 -14.396  0.00  0.00    +0.016 C 
ATOM     17  C   UNL     1      37.921 -26.127 -12.132  0.00  0.00    +0.016 C 
ATOM     18  C   UNL     1      36.599 -25.681 -12.233  0.00  0.00    +0.016 C 
ATOM     19  C   UNL     1      39.514 -24.999 -15.171  0.00  0.00    +0.017 C 
ATOM     20  C   UNL     1      40.567 -25.638 -14.556  0.00  0.00    +0.062 C 
ATOM     21  H   UNL     1      40.668 -26.638 -12.719  0.00  0.00    +0.152 HD
ENDBRANCH   1  15
BRANCH   6  23
ATOM     22  N   UNL     1      35.713 -21.074 -19.752  0.00  0.00    -0.242 NA
ATOM     23  C   UNL     1      34.463 -22.371 -17.615  0.00  0.00    +0.031 C 
ATOM     24  C   UNL     1      35.842 -22.192 -17.612  0.00  0.00    +0.023 C 
ATOM     25  C   UNL     1      33.708 -21.903 -18.685  0.00  0.00    +0.023 C 
ATOM     26  C   UNL     1      36.413 -21.543 -18.695  0.00  0.00    +0.099 C 
ATOM     27  C   UNL     1      34.375 -21.266 -19.720  0.00  0.00    +0.099 C 
ENDBRANCH   6  23
TORSDOF 2
ENDMDL
MODEL 6
REMARK VINA RESULT:     -10.0      1.572      3.976
REMARK  Name = 44177328
REMARK  2 active torsions:
REMARK  status: ('A' for Active; 'I' for Inactive)
REMARK    1  A    between atoms: N_1  and  C_15
REMARK    2  A    between atoms: C_6  and  C_23
REMARK                            x       y       z     vdW  Elec       q    Type
REMARK                         _______ _______ _______ _____ _____    ______ ____
ROOT
ATOM      1  N   UNL     1      36.723 -22.381 -16.718  0.00  0.00    -0.286 N 
ATOM      2  N   UNL     1      34.879 -23.194 -15.476  0.00  0.00    -0.386 NA
ATOM      3  N   UNL     1      36.593 -24.956 -14.125  0.00  0.00    -0.246 NA
ATOM      4  N   UNL     1      38.422 -24.120 -15.384  0.00  0.00    -0.340 N 
ATOM      5  C   UNL     1      36.200 -23.244 -15.737  0.00  0.00    +0.214 C 
ATOM      6  C   UNL     1      34.429 -24.040 -14.528  0.00  0.00    +0.135 C 
ATOM      7  C   UNL     1      37.043 -24.109 -15.073  0.00  0.00    +0.166 C 
ATOM      8  C   UNL     1      35.272 -24.906 -13.865  0.00  0.00    +0.185 C 
ATOM      9  H   UNL     1      37.657 -22.117 -16.555  0.00  0.00    +0.155 HD
ATOM     10  H   UNL     1      39.028 -24.736 -14.913  0.00  0.00    +0.144 HD
ATOM     11  H   UNL     1      38.775 -23.511 -16.073  0.00  0.00    +0.144 HD
ENDROOT
BRANCH   1  15
ATOM     12  N   UNL     1      34.771 -20.062 -21.346  0.00  0.00    -0.312 N 
ATOM     13  C   UNL     1      36.375 -20.381 -19.828  0.00  0.00    +0.016 C 
ATOM     14  C   UNL     1      35.070 -20.733 -20.181  0.00  0.00    +0.048 C 
ATOM     15  C   UNL     1      36.169 -21.820 -17.890  0.00  0.00    +0.050 C 
ATOM     16  C   UNL     1      36.934 -20.936 -18.659  0.00  0.00    +0.016 C 
ATOM     17  C   UNL     1      34.295 -21.617 -19.423  0.00  0.00    +0.016 C 
ATOM     18  C   UNL     1      34.870 -22.154 -18.267  0.00  0.00    +0.016 C 
ATOM     19  C   UNL     1      36.847 -19.476 -20.819  0.00  0.00    +0.017 C 
ATOM     20  C   UNL     1      35.838 -19.300 -21.739  0.00  0.00    +0.062 C 
ATOM     21  H   UNL     1      33.914 -20.121 -21.825  0.00  0.00    +0.152 HD
ENDBRANCH   1  15
BRANCH   6  23
ATOM     22  N   UNL     1      30.274 -23.885 -13.722  0.00  0.00    -0.242 NA
ATOM     23  C   UNL     1      33.016 -23.987 -14.255  0.00  0.00    +0.031 C 
ATOM     24  C   UNL     1      32.237 -22.972 -14.799  0.00  0.00    +0.023 C 
ATOM     25  C   UNL     1      32.426 -24.952 -13.445  0.00  0.00    +0.023 C 
ATOM     26  C   UNL     1      30.883 -22.966 -14.505  0.00  0.00    +0.099 C 
ATOM     27  C   UNL     1      31.063 -24.857 -13.212  0.00  0.00    +0.099 C 
ENDBRANCH   6  23
TORSDOF 2
ENDMDL
MODEL 7
REMARK VINA RESULT:     -10.0      1.772      6.793
REMARK  Name = 44177328
REMARK  2 active torsions:
REMARK  status: ('A' for Active; 'I' for Inactive)
REMARK    1  A    between atoms: N_1  and  C_15
REMARK    2  A    between atoms: C_6  and  C_23
REMARK                            x       y       z     vdW  Elec       q    Type
REMARK                         _______ _______ _______ _____ _____    ______ ____
ROOT
ATOM      1  N   UNL     1      34.247 -24.485 -14.114  0.00  0.00    -0.286 N 
ATOM      2  N   UNL     1      35.070 -23.221 -15.939  0.00  0.00    -0.386 NA
ATOM      3  N   UNL     1      37.488 -22.853 -14.566  0.00  0.00    -0.246 NA
ATOM      4  N   UNL     1      36.636 -24.124 -12.753  0.00  0.00    -0.340 N 
ATOM      5  C   UNL     1      35.280 -23.739 -14.713  0.00  0.00    +0.214 C 
ATOM      6  C   UNL     1      36.090 -22.516 -16.467  0.00  0.00    +0.135 C 
ATOM      7  C   UNL     1      36.467 -23.559 -14.038  0.00  0.00    +0.166 C 
ATOM      8  C   UNL     1      37.277 -22.335 -15.792  0.00  0.00    +0.185 C 
ATOM      9  H   UNL     1      34.568 -25.188 -13.505  0.00  0.00    +0.155 HD
ATOM     10  H   UNL     1      37.482 -23.998 -12.266  0.00  0.00    +0.144 HD
ATOM     11  H   UNL     1      35.905 -24.644 -12.345  0.00  0.00    +0.144 HD
ENDROOT
BRANCH   1  15
ATOM     12  N   UNL     1      28.762 -24.073 -14.712  0.00  0.00    -0.312 N 
ATOM     13  C   UNL     1      30.851 -23.535 -15.281  0.00  0.00    +0.016 C 
ATOM     14  C   UNL     1      30.084 -24.310 -14.408  0.00  0.00    +0.048 C 
ATOM     15  C   UNL     1      32.839 -24.421 -14.218  0.00  0.00    +0.050 C 
ATOM     16  C   UNL     1      32.256 -23.592 -15.183  0.00  0.00    +0.016 C 
ATOM     17  C   UNL     1      30.654 -25.144 -13.441  0.00  0.00    +0.016 C 
ATOM     18  C   UNL     1      32.050 -25.184 -13.361  0.00  0.00    +0.016 C 
ATOM     19  C   UNL     1      29.944 -22.824 -16.117  0.00  0.00    +0.017 C 
ATOM     20  C   UNL     1      28.668 -23.176 -15.742  0.00  0.00    +0.062 C 
ATOM     21  H   UNL     1      27.997 -24.487 -14.253  0.00  0.00    +0.152 HD
ENDBRANCH   1  15
BRANCH   6  23
ATOM     22  N   UNL     1      35.416 -20.884 -20.318  0.00  0.00    -0.242 NA
ATOM     23  C   UNL     1      35.861 -21.961 -17.777  0.00  0.00    +0.031 C 
ATOM     24  C   UNL     1      36.908 -21.371 -18.478  0.00  0.00    +0.023 C 
ATOM     25  C   UNL     1      34.593 -22.014 -18.345  0.00  0.00    +0.023 C 
ATOM     26  C   UNL     1      36.636 -20.852 -19.733  0.00  0.00    +0.099 C 
ATOM     27  C   UNL     1      34.424 -21.465 -19.607  0.00  0.00    +0.099 C 
ENDBRANCH   6  23
TORSDOF 2
ENDMDL
MODEL 8
REMARK VINA RESULT:     -10.0      1.940      3.121
REMARK  Name = 44177328
REMARK  2 active torsions:
REMARK  status: ('A' for Active; 'I' for Inactive)
REMARK    1  A    between atoms: N_1  and  C_15
REMARK    2  A    between atoms: C_6  and  C_23
REMARK                            x       y       z     vdW  Elec       q    Type
REMARK                         _______ _______ _______ _____ _____    ______ ____
ROOT
ATOM      1  N   UNL     1      34.059 -23.528 -16.074  0.00  0.00    -0.286 N 
ATOM      2  N   UNL     1      36.082 -24.269 -15.094  0.00  0.00    -0.386 NA
ATOM      3  N   UNL     1      34.732 -24.687 -12.672  0.00  0.00    -0.246 NA
ATOM      4  N   UNL     1      32.719 -23.941 -13.682  0.00  0.00    -0.340 N 
ATOM      5  C   UNL     1      34.766 -24.016 -14.959  0.00  0.00    +0.214 C 
ATOM      6  C   UNL     1      36.713 -24.734 -13.998  0.00  0.00    +0.135 C 
ATOM      7  C   UNL     1      34.101 -24.222 -13.770  0.00  0.00    +0.166 C 
ATOM      8  C   UNL     1      36.049 -24.939 -12.808  0.00  0.00    +0.185 C 
ATOM      9  H   UNL     1      33.111 -23.794 -16.089  0.00  0.00    +0.155 HD
ATOM     10  H   UNL     1      32.240 -24.086 -12.834  0.00  0.00    +0.144 HD
ATOM     11  H   UNL     1      32.236 -23.600 -14.469  0.00  0.00    +0.144 HD
ENDROOT
BRANCH   1  15
ATOM     12  N   UNL     1      35.321 -20.384 -20.447  0.00  0.00    -0.312 N 
ATOM     13  C   UNL     1      33.853 -21.417 -19.123  0.00  0.00    +0.016 C 
ATOM     14  C   UNL     1      35.214 -21.175 -19.325  0.00  0.00    +0.048 C 
ATOM     15  C   UNL     1      34.444 -22.732 -17.175  0.00  0.00    +0.050 C 
ATOM     16  C   UNL     1      33.462 -22.212 -18.026  0.00  0.00    +0.016 C 
ATOM     17  C   UNL     1      36.205 -21.687 -18.482  0.00  0.00    +0.016 C 
ATOM     18  C   UNL     1      35.794 -22.473 -17.402  0.00  0.00    +0.016 C 
ATOM     19  C   UNL     1      33.149 -20.746 -20.162  0.00  0.00    +0.017 C 
ATOM     20  C   UNL     1      34.079 -20.120 -20.960  0.00  0.00    +0.062 C 
ATOM     21  H   UNL     1      36.168 -20.057 -20.827  0.00  0.00    +0.152 HD
ENDBRANCH   1  15
BRANCH   6  23
ATOM     22  N   UNL     1      40.853 -25.517 -14.429  0.00  0.00    -0.242 NA
ATOM     23  C   UNL     1      38.121 -25.000 -14.144  0.00  0.00    +0.031 C 
ATOM     24  C   UNL     1      38.857 -24.344 -15.125  0.00  0.00    +0.023 C 
ATOM     25  C   UNL     1      38.749 -25.913 -13.305  0.00  0.00    +0.023 C 
ATOM     26  C   UNL     1      40.207 -24.635 -15.225  0.00  0.00    +0.099 C 
ATOM     27  C   UNL     1      40.105 -26.134 -13.487  0.00  0.00    +0.099 C 
ENDBRANCH   6  23
TORSDOF 2
ENDMDL
MODEL 9
REMARK VINA RESULT:     -10.0     10.509     13.845
REMARK  Name = 44177328
REMARK  2 active torsions:
REMARK  status: ('A' for Active; 'I' for Inactive)
REMARK    1  A    between atoms: N_1  and  C_15
REMARK    2  A    between atoms: C_6  and  C_23
REMARK                            x       y       z     vdW  Elec       q    Type
REMARK                         _______ _______ _______ _____ _____    ______ ____
ROOT
ATOM      1  N   UNL     1      32.253 -10.085 -21.989  0.00  0.00    -0.286 N 
ATOM      2  N   UNL     1      32.877 -12.234 -22.764  0.00  0.00    -0.386 NA
ATOM      3  N   UNL     1      32.061 -13.331 -20.315  0.00  0.00    -0.246 NA
ATOM      4  N   UNL     1      31.443 -11.166 -19.567  0.00  0.00    -0.340 N 
ATOM      5  C   UNL     1      32.371 -11.472 -21.774  0.00  0.00    +0.214 C 
ATOM      6  C   UNL     1      32.969 -13.553 -22.508  0.00  0.00    +0.135 C 
ATOM      7  C   UNL     1      31.969 -12.010 -20.571  0.00  0.00    +0.166 C 
ATOM      8  C   UNL     1      32.568 -14.092 -21.305  0.00  0.00    +0.185 C 
ATOM      9  H   UNL     1      31.507  -9.671 -21.499  0.00  0.00    +0.155 HD
ATOM     10  H   UNL     1      31.155 -11.545 -18.705  0.00  0.00    +0.144 HD
ATOM     11  H   UNL     1      31.366 -10.198 -19.729  0.00  0.00    +0.144 HD
ENDROOT
BRANCH   1  15
ATOM     12  N   UNL     1      34.976  -6.345 -25.022  0.00  0.00    -0.312 N 
ATOM     13  C   UNL     1      33.212  -7.003 -23.825  0.00  0.00    +0.016 C 
ATOM     14  C   UNL     1      34.464  -7.400 -24.299  0.00  0.00    +0.048 C 
ATOM     15  C   UNL     1      32.996  -9.173 -22.770  0.00  0.00    +0.050 C 
ATOM     16  C   UNL     1      32.464  -7.909 -23.045  0.00  0.00    +0.016 C 
ATOM     17  C   UNL     1      35.009  -8.660 -24.031  0.00  0.00    +0.016 C 
ATOM     18  C   UNL     1      34.249  -9.542 -23.256  0.00  0.00    +0.016 C 
ATOM     19  C   UNL     1      32.991  -5.676 -24.288  0.00  0.00    +0.017 C 
ATOM     20  C   UNL     1      34.092  -5.299 -25.021  0.00  0.00    +0.062 C 
ATOM     21  H   UNL     1      35.850  -6.344 -25.475  0.00  0.00    +0.152 HD
ENDBRANCH   1  15
BRANCH   6  23
ATOM     22  N   UNL     1      34.572 -15.940 -25.618  0.00  0.00    -0.242 NA
ATOM     23  C   UNL     1      33.514 -14.365 -23.566  0.00  0.00    +0.031 C 
ATOM     24  C   UNL     1      33.140 -14.135 -24.885  0.00  0.00    +0.023 C 
ATOM     25  C   UNL     1      34.417 -15.380 -23.271  0.00  0.00    +0.023 C 
ATOM     26  C   UNL     1      33.693 -14.943 -25.866  0.00  0.00    +0.099 C 
ATOM     27  C   UNL     1      34.913 -16.133 -24.324  0.00  0.00    +0.099 C 
ENDBRANCH   6  23
TORSDOF 2
ENDMDL
