MODEL 1
REMARK VINA RESULT:     -13.0      0.000      0.000
REMARK  Name = 25171648
REMARK  8 active torsions:
REMARK  status: ('A' for Active; 'I' for Inactive)
REMARK    1  A    between atoms: C_1  and  C_12
REMARK    2  A    between atoms: C_2  and  C_23
REMARK    3  A    between atoms: C_9  and  O_13
REMARK    4  A    between atoms: O_13  and  C_14
REMARK    5  A    between atoms: C_14  and  C_16
REMARK    6  A    between atoms: C_23  and  N_25
REMARK    7  A    between atoms: C_27  and  C_31
REMARK    8  A    between atoms: C_34  and  C_38
REMARK                            x       y       z     vdW  Elec       q    Type
REMARK                         _______ _______ _______ _____ _____    ______ ____
ROOT
ATOM      1  C   UNL     1      35.562 -20.849 -19.612  0.00  0.00    +0.062 C 
ATOM      2  C   UNL     1      34.548 -22.547 -18.223  0.00  0.00    +0.000 C 
ATOM      3  C   UNL     1      34.475 -21.667 -19.304  0.00  0.00    +0.007 C 
ATOM      4  C   UNL     1      36.721 -20.910 -18.839  0.00  0.00    +0.010 C 
ATOM      5  C   UNL     1      35.708 -22.608 -17.451  0.00  0.00    -0.003 C 
ATOM      6  C   UNL     1      36.795 -21.790 -17.759  0.00  0.00    +0.000 C 
ENDROOT
BRANCH   1  12
ATOM      7  N   UNL     1      34.426 -20.080 -21.544  0.00  0.00    -0.212 NA
ATOM      8  N   UNL     1      36.484 -19.043 -20.840  0.00  0.00    -0.190 NA
ATOM      9  C   UNL     1      35.346 -18.247 -22.806  0.00  0.00    +0.161 C 
ATOM     10  C   UNL     1      34.387 -19.214 -22.578  0.00  0.00    +0.201 C 
ATOM     11  C   UNL     1      36.381 -18.208 -21.894  0.00  0.00    +0.144 C 
ATOM     12  C   UNL     1      35.486 -19.941 -20.727  0.00  0.00    +0.031 C 
BRANCH   9  13
ATOM     13  O   UNL     1      35.273 -17.381 -23.868  0.00  0.00    -0.476 OA
BRANCH  13  14
ATOM     14  C   UNL     1      35.527 -16.015 -23.604  0.00  0.00    +0.205 C 
BRANCH  14  16
ATOM     15  N   UNL     1      32.993 -13.239 -21.476  0.00  0.00    +0.386 N 
ATOM     16  C   UNL     1      34.273 -15.395 -22.996  0.00  0.00    +0.040 C 
ATOM     17  C   UNL     1      33.992 -14.015 -23.602  0.00  0.00    -0.019 C 
ATOM     18  C   UNL     1      34.397 -15.276 -21.474  0.00  0.00    -0.019 C 
ATOM     19  C   UNL     1      32.794 -13.343 -22.928  0.00  0.00    -0.077 C 
ATOM     20  C   UNL     1      33.185 -14.564 -20.870  0.00  0.00    -0.077 C 
ATOM     21  C   UNL     1      31.863 -12.549 -20.853  0.00  0.00    -0.101 C 
ATOM     22  H   UNL     1      33.839 -12.693 -21.313  0.00  0.00    -0.080 HD
ENDBRANCH  14  16
ENDBRANCH  13  14
ENDBRANCH   9  13
ENDBRANCH   1  12
BRANCH   2  23
ATOM     23  C   UNL     1      33.386 -23.422 -17.893  0.00  0.00    +0.146 C 
BRANCH  23  25
ATOM     24  O   UNL     1      30.955 -22.512 -16.680  0.00  0.00    -0.268 OA
ATOM     25  N   UNL     1      33.082 -23.424 -16.472  0.00  0.00    -0.173 N 
ATOM     26  N   UNL     1      34.082 -23.904 -15.675  0.00  0.00    -0.175 NA
ATOM     27  C   UNL     1      33.885 -23.929 -14.395  0.00  0.00    +0.099 C 
ATOM     28  C   UNL     1      31.868 -22.961 -15.987  0.00  0.00    +0.268 C 
ATOM     29  C   UNL     1      32.640 -23.496 -13.733  0.00  0.00    +0.025 C 
ATOM     30  C   UNL     1      31.676 -23.028 -14.523  0.00  0.00    +0.061 C 
BRANCH  27  31
ATOM     31  C   UNL     1      34.967 -24.444 -13.515  0.00  0.00    +0.020 C 
ATOM     32  C   UNL     1      36.062 -25.107 -14.070  0.00  0.00    +0.012 C 
ATOM     33  C   UNL     1      34.888 -24.263 -12.134  0.00  0.00    +0.002 C 
ATOM     34  C   UNL     1      37.077 -25.590 -13.243  0.00  0.00    +0.068 C 
ATOM     35  C   UNL     1      35.903 -24.746 -11.307  0.00  0.00    +0.001 C 
ATOM     36  C   UNL     1      36.998 -25.409 -11.862  0.00  0.00    +0.010 C 
BRANCH  34  38
ATOM     37  N   UNL     1      39.109 -26.823 -14.272  0.00  0.00    -0.191 NA
ATOM     38  C   UNL     1      38.199 -26.270 -13.811  0.00  0.00    +0.100 C 
ENDBRANCH  34  38
ENDBRANCH  27  31
ENDBRANCH  23  25
ENDBRANCH   2  23
TORSDOF 8
ENDMDL
MODEL 2
REMARK VINA RESULT:     -12.9      1.568      2.245
REMARK  Name = 25171648
REMARK  8 active torsions:
REMARK  status: ('A' for Active; 'I' for Inactive)
REMARK    1  A    between atoms: C_1  and  C_12
REMARK    2  A    between atoms: C_2  and  C_23
REMARK    3  A    between atoms: C_9  and  O_13
REMARK    4  A    between atoms: O_13  and  C_14
REMARK    5  A    between atoms: C_14  and  C_16
REMARK    6  A    between atoms: C_23  and  N_25
REMARK    7  A    between atoms: C_27  and  C_31
REMARK    8  A    between atoms: C_34  and  C_38
REMARK                            x       y       z     vdW  Elec       q    Type
REMARK                         _______ _______ _______ _____ _____    ______ ____
ROOT
ATOM      1  C   UNL     1      35.176 -20.007 -20.458  0.00  0.00    +0.062 C 
ATOM      2  C   UNL     1      33.994 -21.665 -19.156  0.00  0.00    +0.000 C 
ATOM      3  C   UNL     1      33.977 -20.560 -20.009  0.00  0.00    +0.007 C 
ATOM      4  C   UNL     1      36.392 -20.558 -20.054  0.00  0.00    +0.010 C 
ATOM      5  C   UNL     1      35.210 -22.215 -18.753  0.00  0.00    -0.003 C 
ATOM      6  C   UNL     1      36.409 -21.662 -19.202  0.00  0.00    +0.000 C 
ENDROOT
BRANCH   1  12
ATOM      7  N   UNL     1      35.279 -17.659 -20.759  0.00  0.00    -0.212 NA
ATOM      8  N   UNL     1      35.023 -19.126 -22.653  0.00  0.00    -0.190 NA
ATOM      9  C   UNL     1      35.125 -16.743 -22.980  0.00  0.00    +0.161 C 
ATOM     10  C   UNL     1      35.258 -16.614 -21.612  0.00  0.00    +0.201 C 
ATOM     11  C   UNL     1      35.011 -18.036 -23.449  0.00  0.00    +0.144 C 
ATOM     12  C   UNL     1      35.158 -18.868 -21.338  0.00  0.00    +0.031 C 
BRANCH   9  13
ATOM     13  O   UNL     1      35.109 -15.657 -23.819  0.00  0.00    -0.476 OA
BRANCH  13  14
ATOM     14  C   UNL     1      33.861 -15.024 -24.029  0.00  0.00    +0.205 C 
BRANCH  14  16
ATOM     15  N   UNL     1      32.700 -11.006 -22.950  0.00  0.00    +0.386 N 
ATOM     16  C   UNL     1      33.893 -13.653 -23.360  0.00  0.00    +0.040 C 
ATOM     17  C   UNL     1      32.648 -13.437 -22.491  0.00  0.00    -0.019 C 
ATOM     18  C   UNL     1      33.998 -12.533 -24.400  0.00  0.00    -0.019 C 
ATOM     19  C   UNL     1      32.622 -12.027 -21.896  0.00  0.00    -0.077 C 
ATOM     20  C   UNL     1      33.928 -11.153 -23.742  0.00  0.00    -0.077 C 
ATOM     21  C   UNL     1      32.622  -9.665 -22.369  0.00  0.00    -0.101 C 
ATOM     22  H   UNL     1      31.904 -11.139 -23.574  0.00  0.00    -0.080 HD
ENDBRANCH  14  16
ENDBRANCH  13  14
ENDBRANCH   9  13
ENDBRANCH   1  12
BRANCH   2  23
ATOM     23  C   UNL     1      32.712 -22.257 -18.676  0.00  0.00    +0.146 C 
BRANCH  23  25
ATOM     24  O   UNL     1      30.507 -22.354 -16.848  0.00  0.00    -0.268 OA
ATOM     25  N   UNL     1      32.773 -22.643 -17.276  0.00  0.00    -0.173 N 
ATOM     26  N   UNL     1      34.020 -22.975 -16.828  0.00  0.00    -0.175 NA
ATOM     27  C   UNL     1      34.152 -23.323 -15.588  0.00  0.00    +0.099 C 
ATOM     28  C   UNL     1      31.640 -22.658 -16.476  0.00  0.00    +0.268 C 
ATOM     29  C   UNL     1      33.041 -23.412 -14.623  0.00  0.00    +0.025 C 
ATOM     30  C   UNL     1      31.832 -23.083 -15.073  0.00  0.00    +0.061 C 
BRANCH  27  31
ATOM     31  C   UNL     1      35.506 -23.681 -15.087  0.00  0.00    +0.020 C 
ATOM     32  C   UNL     1      35.643 -24.568 -14.019  0.00  0.00    +0.012 C 
ATOM     33  C   UNL     1      36.639 -23.130 -15.686  0.00  0.00    +0.002 C 
ATOM     34  C   UNL     1      36.913 -24.903 -13.550  0.00  0.00    +0.068 C 
ATOM     35  C   UNL     1      37.909 -23.466 -15.217  0.00  0.00    +0.001 C 
ATOM     36  C   UNL     1      38.046 -24.353 -14.149  0.00  0.00    +0.010 C 
BRANCH  34  38
ATOM     37  N   UNL     1      37.169 -26.548 -11.566  0.00  0.00    -0.191 NA
ATOM     38  C   UNL     1      37.054 -25.811 -12.455  0.00  0.00    +0.100 C 
ENDBRANCH  34  38
ENDBRANCH  27  31
ENDBRANCH  23  25
ENDBRANCH   2  23
TORSDOF 8
ENDMDL
MODEL 3
REMARK VINA RESULT:     -12.8      4.513     14.076
REMARK  Name = 25171648
REMARK  8 active torsions:
REMARK  status: ('A' for Active; 'I' for Inactive)
REMARK    1  A    between atoms: C_1  and  C_12
REMARK    2  A    between atoms: C_2  and  C_23
REMARK    3  A    between atoms: C_9  and  O_13
REMARK    4  A    between atoms: O_13  and  C_14
REMARK    5  A    between atoms: C_14  and  C_16
REMARK    6  A    between atoms: C_23  and  N_25
REMARK    7  A    between atoms: C_27  and  C_31
REMARK    8  A    between atoms: C_34  and  C_38
REMARK                            x       y       z     vdW  Elec       q    Type
REMARK                         _______ _______ _______ _____ _____    ______ ____
ROOT
ATOM      1  C   UNL     1      33.956 -14.024 -22.716  0.00  0.00    +0.062 C 
ATOM      2  C   UNL     1      32.528 -12.128 -22.264  0.00  0.00    +0.000 C 
ATOM      3  C   UNL     1      32.981 -13.406 -21.933  0.00  0.00    +0.007 C 
ATOM      4  C   UNL     1      34.478 -13.365 -23.829  0.00  0.00    +0.010 C 
ATOM      5  C   UNL     1      33.051 -11.470 -23.377  0.00  0.00    -0.003 C 
ATOM      6  C   UNL     1      34.026 -12.088 -24.158  0.00  0.00    +0.000 C 
ENDROOT
BRANCH   1  12
ATOM      7  N   UNL     1      34.452 -15.650 -21.065  0.00  0.00    -0.212 NA
ATOM      8  N   UNL     1      34.785 -16.137 -23.401  0.00  0.00    -0.190 NA
ATOM      9  C   UNL     1      35.294 -17.802 -21.740  0.00  0.00    +0.161 C 
ATOM     10  C   UNL     1      34.895 -16.893 -20.781  0.00  0.00    +0.201 C 
ATOM     11  C   UNL     1      35.216 -17.365 -23.046  0.00  0.00    +0.144 C 
ATOM     12  C   UNL     1      34.424 -15.343 -22.375  0.00  0.00    +0.031 C 
BRANCH   9  13
ATOM     13  O   UNL     1      35.739 -19.060 -21.414  0.00  0.00    -0.476 OA
BRANCH  13  14
ATOM     14  C   UNL     1      34.774 -20.094 -21.376  0.00  0.00    +0.205 C 
BRANCH  14  16
ATOM     15  N   UNL     1      34.438 -22.824 -18.047  0.00  0.00    +0.386 N 
ATOM     16  C   UNL     1      34.655 -20.597 -19.941  0.00  0.00    +0.040 C 
ATOM     17  C   UNL     1      35.852 -21.478 -19.566  0.00  0.00    -0.019 C 
ATOM     18  C   UNL     1      33.353 -21.378 -19.736  0.00  0.00    -0.019 C 
ATOM     19  C   UNL     1      35.693 -22.068 -18.163  0.00  0.00    -0.077 C 
ATOM     20  C   UNL     1      33.276 -21.970 -18.327  0.00  0.00    -0.077 C 
ATOM     21  C   UNL     1      34.325 -23.424 -16.717  0.00  0.00    -0.101 C 
ATOM     22  H   UNL     1      34.456 -23.570 -18.741  0.00  0.00    -0.080 HD
ENDBRANCH  14  16
ENDBRANCH  13  14
ENDBRANCH   9  13
ENDBRANCH   1  12
BRANCH   2  23
ATOM     23  C   UNL     1      31.485 -11.467 -21.427  0.00  0.00    +0.146 C 
BRANCH  23  25
ATOM     24  O   UNL     1      31.259 -10.405 -18.775  0.00  0.00    -0.268 OA
ATOM     25  N   UNL     1      31.884 -10.137 -20.998  0.00  0.00    -0.173 N 
ATOM     26  N   UNL     1      32.401  -9.348 -21.985  0.00  0.00    -0.175 NA
ATOM     27  C   UNL     1      32.771  -8.146 -21.678  0.00  0.00    +0.099 C 
ATOM     28  C   UNL     1      31.732  -9.721 -19.683  0.00  0.00    +0.268 C 
ATOM     29  C   UNL     1      32.697  -7.570 -20.322  0.00  0.00    +0.025 C 
ATOM     30  C   UNL     1      32.188  -8.351 -19.370  0.00  0.00    +0.061 C 
BRANCH  27  31
ATOM     31  C   UNL     1      33.332  -7.275 -22.745  0.00  0.00    +0.020 C 
ATOM     32  C   UNL     1      32.602  -6.180 -23.207  0.00  0.00    +0.012 C 
ATOM     33  C   UNL     1      34.589  -7.553 -23.283  0.00  0.00    +0.002 C 
ATOM     34  C   UNL     1      33.129  -5.364 -24.208  0.00  0.00    +0.068 C 
ATOM     35  C   UNL     1      35.116  -6.737 -24.284  0.00  0.00    +0.001 C 
ATOM     36  C   UNL     1      34.386  -5.642 -24.746  0.00  0.00    +0.010 C 
BRANCH  34  38
ATOM     37  N   UNL     1      31.775  -3.331 -25.070  0.00  0.00    -0.191 NA
ATOM     38  C   UNL     1      32.382  -4.242 -24.684  0.00  0.00    +0.100 C 
ENDBRANCH  34  38
ENDBRANCH  27  31
ENDBRANCH  23  25
ENDBRANCH   2  23
TORSDOF 8
ENDMDL
MODEL 4
REMARK VINA RESULT:     -12.6      4.529     14.108
REMARK  Name = 25171648
REMARK  8 active torsions:
REMARK  status: ('A' for Active; 'I' for Inactive)
REMARK    1  A    between atoms: C_1  and  C_12
REMARK    2  A    between atoms: C_2  and  C_23
REMARK    3  A    between atoms: C_9  and  O_13
REMARK    4  A    between atoms: O_13  and  C_14
REMARK    5  A    between atoms: C_14  and  C_16
REMARK    6  A    between atoms: C_23  and  N_25
REMARK    7  A    between atoms: C_27  and  C_31
REMARK    8  A    between atoms: C_34  and  C_38
REMARK                            x       y       z     vdW  Elec       q    Type
REMARK                         _______ _______ _______ _____ _____    ______ ____
ROOT
ATOM      1  C   UNL     1      33.883 -13.675 -22.713  0.00  0.00    +0.062 C 
ATOM      2  C   UNL     1      32.390 -11.833 -22.248  0.00  0.00    +0.000 C 
ATOM      3  C   UNL     1      32.857 -13.114 -21.952  0.00  0.00    +0.007 C 
ATOM      4  C   UNL     1      34.441 -12.955 -23.770  0.00  0.00    +0.010 C 
ATOM      5  C   UNL     1      32.948 -11.114 -23.305  0.00  0.00    -0.003 C 
ATOM      6  C   UNL     1      33.974 -11.674 -24.065  0.00  0.00    +0.000 C 
ENDROOT
BRANCH   1  12
ATOM      7  N   UNL     1      34.419 -15.331 -21.105  0.00  0.00    -0.212 NA
ATOM      8  N   UNL     1      34.715 -15.766 -23.456  0.00  0.00    -0.190 NA
ATOM      9  C   UNL     1      35.265 -17.462 -21.839  0.00  0.00    +0.161 C 
ATOM     10  C   UNL     1      34.875 -16.576 -20.855  0.00  0.00    +0.201 C 
ATOM     11  C   UNL     1      35.162 -16.998 -23.134  0.00  0.00    +0.144 C 
ATOM     12  C   UNL     1      34.366 -14.997 -22.408  0.00  0.00    +0.031 C 
BRANCH   9  13
ATOM     13  O   UNL     1      35.725 -18.722 -21.547  0.00  0.00    -0.476 OA
BRANCH  13  14
ATOM     14  C   UNL     1      34.791 -19.782 -21.628  0.00  0.00    +0.205 C 
BRANCH  14  16
ATOM     15  N   UNL     1      33.998 -22.612 -18.463  0.00  0.00    +0.386 N 
ATOM     16  C   UNL     1      34.564 -20.339 -20.226  0.00  0.00    +0.040 C 
ATOM     17  C   UNL     1      35.622 -21.391 -19.873  0.00  0.00    -0.019 C 
ATOM     18  C   UNL     1      33.165 -20.948 -20.093  0.00  0.00    -0.019 C 
ATOM     19  C   UNL     1      35.344 -22.025 -18.509  0.00  0.00    -0.077 C 
ATOM     20  C   UNL     1      32.968 -21.597 -18.722  0.00  0.00    -0.077 C 
ATOM     21  C   UNL     1      33.766 -23.260 -17.171  0.00  0.00    -0.101 C 
ATOM     22  H   UNL     1      33.937 -23.317 -19.198  0.00  0.00    -0.080 HD
ENDBRANCH  14  16
ENDBRANCH  13  14
ENDBRANCH   9  13
ENDBRANCH   1  12
BRANCH   2  23
ATOM     23  C   UNL     1      31.292 -11.233 -21.435  0.00  0.00    +0.146 C 
BRANCH  23  25
ATOM     24  O   UNL     1      31.806 -10.624 -18.682  0.00  0.00    -0.268 OA
ATOM     25  N   UNL     1      31.653  -9.932 -20.896  0.00  0.00    -0.173 N 
ATOM     26  N   UNL     1      31.733  -8.932 -21.822  0.00  0.00    -0.175 NA
ATOM     27  C   UNL     1      32.042  -7.743 -21.414  0.00  0.00    +0.099 C 
ATOM     28  C   UNL     1      31.883  -9.745 -19.541  0.00  0.00    +0.268 C 
ATOM     29  C   UNL     1      32.340  -7.393 -20.012  0.00  0.00    +0.025 C 
ATOM     30  C   UNL     1      32.255  -8.378 -19.121  0.00  0.00    +0.061 C 
BRANCH  27  31
ATOM     31  C   UNL     1      32.128  -6.644 -22.411  0.00  0.00    +0.020 C 
ATOM     32  C   UNL     1      33.201  -6.590 -23.301  0.00  0.00    +0.012 C 
ATOM     33  C   UNL     1      31.133  -5.666 -22.458  0.00  0.00    +0.002 C 
ATOM     34  C   UNL     1      33.280  -5.559 -24.237  0.00  0.00    +0.068 C 
ATOM     35  C   UNL     1      31.212  -4.634 -23.394  0.00  0.00    +0.001 C 
ATOM     36  C   UNL     1      32.285  -4.581 -24.284  0.00  0.00    +0.010 C 
BRANCH  34  38
ATOM     37  N   UNL     1      35.272  -5.457 -25.888  0.00  0.00    -0.191 NA
ATOM     38  C   UNL     1      34.379  -5.503 -25.148  0.00  0.00    +0.100 C 
ENDBRANCH  34  38
ENDBRANCH  27  31
ENDBRANCH  23  25
ENDBRANCH   2  23
TORSDOF 8
ENDMDL
MODEL 5
REMARK VINA RESULT:     -12.6      4.628      9.346
REMARK  Name = 25171648
REMARK  8 active torsions:
REMARK  status: ('A' for Active; 'I' for Inactive)
REMARK    1  A    between atoms: C_1  and  C_12
REMARK    2  A    between atoms: C_2  and  C_23
REMARK    3  A    between atoms: C_9  and  O_13
REMARK    4  A    between atoms: O_13  and  C_14
REMARK    5  A    between atoms: C_14  and  C_16
REMARK    6  A    between atoms: C_23  and  N_25
REMARK    7  A    between atoms: C_27  and  C_31
REMARK    8  A    between atoms: C_34  and  C_38
REMARK                            x       y       z     vdW  Elec       q    Type
REMARK                         _______ _______ _______ _____ _____    ______ ____
ROOT
ATOM      1  C   UNL     1      32.953 -13.055 -21.580  0.00  0.00    +0.062 C 
ATOM      2  C   UNL     1      34.356 -14.976 -22.002  0.00  0.00    +0.000 C 
ATOM      3  C   UNL     1      33.972 -13.670 -22.307  0.00  0.00    +0.007 C 
ATOM      4  C   UNL     1      32.318 -13.747 -20.548  0.00  0.00    +0.010 C 
ATOM      5  C   UNL     1      33.721 -15.667 -20.971  0.00  0.00    -0.003 C 
ATOM      6  C   UNL     1      32.702 -15.052 -20.243  0.00  0.00    +0.000 C 
ENDROOT
BRANCH   1  12
ATOM      7  N   UNL     1      31.536 -11.198 -21.181  0.00  0.00    -0.212 NA
ATOM      8  N   UNL     1      33.249 -11.090 -22.872  0.00  0.00    -0.190 NA
ATOM      9  C   UNL     1      31.819  -9.193 -22.482  0.00  0.00    +0.161 C 
ATOM     10  C   UNL     1      31.191  -9.934 -21.502  0.00  0.00    +0.201 C 
ATOM     11  C   UNL     1      32.852  -9.829 -23.140  0.00  0.00    +0.144 C 
ATOM     12  C   UNL     1      32.557 -11.707 -21.895  0.00  0.00    +0.031 C 
BRANCH   9  13
ATOM     13  O   UNL     1      31.442  -7.907 -22.781  0.00  0.00    -0.476 OA
BRANCH  13  14
ATOM     14  C   UNL     1      31.774  -6.904 -21.841  0.00  0.00    +0.205 C 
BRANCH  14  16
ATOM     15  N   UNL     1      32.001  -3.825 -24.861  0.00  0.00    +0.386 N 
ATOM     16  C   UNL     1      32.256  -5.669 -22.596  0.00  0.00    +0.040 C 
ATOM     17  C   UNL     1      31.154  -4.606 -22.672  0.00  0.00    -0.019 C 
ATOM     18  C   UNL     1      32.721  -6.033 -24.009  0.00  0.00    -0.019 C 
ATOM     19  C   UNL     1      31.594  -3.406 -23.513  0.00  0.00    -0.077 C 
ATOM     20  C   UNL     1      33.111  -4.786 -24.806  0.00  0.00    -0.077 C 
ATOM     21  C   UNL     1      32.370  -2.662 -25.669  0.00  0.00    -0.101 C 
ATOM     22  H   UNL     1      31.205  -4.288 -25.300  0.00  0.00    -0.080 HD
ENDBRANCH  14  16
ENDBRANCH  13  14
ENDBRANCH   9  13
ENDBRANCH   1  12
BRANCH   2  23
ATOM     23  C   UNL     1      35.446 -15.635 -22.779  0.00  0.00    +0.146 C 
BRANCH  23  25
ATOM     24  O   UNL     1      34.558 -16.803 -25.241  0.00  0.00    -0.268 OA
ATOM     25  N   UNL     1      35.182 -17.044 -23.015  0.00  0.00    -0.173 N 
ATOM     26  N   UNL     1      35.378 -17.852 -21.932  0.00  0.00    -0.175 NA
ATOM     27  C   UNL     1      35.155 -19.120 -22.066  0.00  0.00    +0.099 C 
ATOM     28  C   UNL     1      34.755 -17.507 -24.251  0.00  0.00    +0.268 C 
ATOM     29  C   UNL     1      34.724 -19.765 -23.320  0.00  0.00    +0.025 C 
ATOM     30  C   UNL     1      34.534 -18.964 -24.367  0.00  0.00    +0.061 C 
BRANCH  27  31
ATOM     31  C   UNL     1      35.360 -20.010 -20.892  0.00  0.00    +0.020 C 
ATOM     32  C   UNL     1      34.263 -20.594 -20.258  0.00  0.00    +0.012 C 
ATOM     33  C   UNL     1      36.651 -20.262 -20.425  0.00  0.00    +0.002 C 
ATOM     34  C   UNL     1      34.458 -21.429 -19.157  0.00  0.00    +0.068 C 
ATOM     35  C   UNL     1      36.845 -21.097 -19.325  0.00  0.00    +0.001 C 
ATOM     36  C   UNL     1      35.748 -21.681 -18.691  0.00  0.00    +0.010 C 
BRANCH  34  38
ATOM     37  N   UNL     1      32.422 -22.512 -17.978  0.00  0.00    -0.191 NA
ATOM     38  C   UNL     1      33.334 -22.027 -18.507  0.00  0.00    +0.100 C 
ENDBRANCH  34  38
ENDBRANCH  27  31
ENDBRANCH  23  25
ENDBRANCH   2  23
TORSDOF 8
ENDMDL
MODEL 6
REMARK VINA RESULT:     -12.6      2.376      4.232
REMARK  Name = 25171648
REMARK  8 active torsions:
REMARK  status: ('A' for Active; 'I' for Inactive)
REMARK    1  A    between atoms: C_1  and  C_12
REMARK    2  A    between atoms: C_2  and  C_23
REMARK    3  A    between atoms: C_9  and  O_13
REMARK    4  A    between atoms: O_13  and  C_14
REMARK    5  A    between atoms: C_14  and  C_16
REMARK    6  A    between atoms: C_23  and  N_25
REMARK    7  A    between atoms: C_27  and  C_31
REMARK    8  A    between atoms: C_34  and  C_38
REMARK                            x       y       z     vdW  Elec       q    Type
REMARK                         _______ _______ _______ _____ _____    ______ ____
ROOT
ATOM      1  C   UNL     1      34.548 -19.943 -20.436  0.00  0.00    +0.062 C 
ATOM      2  C   UNL     1      35.439 -21.643 -18.967  0.00  0.00    +0.000 C 
ATOM      3  C   UNL     1      35.635 -20.533 -19.791  0.00  0.00    +0.007 C 
ATOM      4  C   UNL     1      33.266 -20.463 -20.258  0.00  0.00    +0.010 C 
ATOM      5  C   UNL     1      34.157 -22.161 -18.790  0.00  0.00    -0.003 C 
ATOM      6  C   UNL     1      33.070 -21.571 -19.434  0.00  0.00    +0.000 C 
ENDROOT
BRANCH   1  12
ATOM      7  N   UNL     1      34.835 -17.603 -20.674  0.00  0.00    -0.212 NA
ATOM      8  N   UNL     1      34.836 -19.040 -22.609  0.00  0.00    -0.190 NA
ATOM      9  C   UNL     1      35.129 -16.665 -22.872  0.00  0.00    +0.161 C 
ATOM     10  C   UNL     1      35.025 -16.554 -21.500  0.00  0.00    +0.201 C 
ATOM     11  C   UNL     1      35.027 -17.946 -23.375  0.00  0.00    +0.144 C 
ATOM     12  C   UNL     1      34.751 -18.799 -21.286  0.00  0.00    +0.031 C 
BRANCH   9  13
ATOM     13  O   UNL     1      35.323 -15.574 -23.682  0.00  0.00    -0.476 OA
BRANCH  13  14
ATOM     14  C   UNL     1      34.167 -14.895 -24.135  0.00  0.00    +0.205 C 
BRANCH  14  16
ATOM     15  N   UNL     1      32.663 -11.032 -22.921  0.00  0.00    +0.386 N 
ATOM     16  C   UNL     1      34.071 -13.559 -23.406  0.00  0.00    +0.040 C 
ATOM     17  C   UNL     1      32.788 -13.478 -22.571  0.00  0.00    -0.019 C 
ATOM     18  C   UNL     1      34.121 -12.387 -24.392  0.00  0.00    -0.019 C 
ATOM     19  C   UNL     1      32.634 -12.104 -21.916  0.00  0.00    -0.077 C 
ATOM     20  C   UNL     1      33.923 -11.048 -23.677  0.00  0.00    -0.077 C 
ATOM     21  C   UNL     1      32.464  -9.729 -22.286  0.00  0.00    -0.101 C 
ATOM     22  H   UNL     1      31.900 -11.196 -23.578  0.00  0.00    -0.080 HD
ENDBRANCH  14  16
ENDBRANCH  13  14
ENDBRANCH   9  13
ENDBRANCH   1  12
BRANCH   2  23
ATOM     23  C   UNL     1      36.601 -22.274 -18.277  0.00  0.00    +0.146 C 
BRANCH  23  25
ATOM     24  O   UNL     1      38.501 -22.065 -16.141  0.00  0.00    -0.268 OA
ATOM     25  N   UNL     1      36.340 -22.518 -16.868  0.00  0.00    -0.173 N 
ATOM     26  N   UNL     1      35.058 -22.890 -16.580  0.00  0.00    -0.175 NA
ATOM     27  C   UNL     1      34.754 -23.131 -15.345  0.00  0.00    +0.099 C 
ATOM     28  C   UNL     1      37.335 -22.386 -15.910  0.00  0.00    +0.268 C 
ATOM     29  C   UNL     1      35.693 -23.010 -14.214  0.00  0.00    +0.025 C 
ATOM     30  C   UNL     1      36.939 -22.649 -14.511  0.00  0.00    +0.061 C 
BRANCH  27  31
ATOM     31  C   UNL     1      33.362 -23.542 -15.019  0.00  0.00    +0.020 C 
ATOM     32  C   UNL     1      32.288 -22.974 -15.703  0.00  0.00    +0.012 C 
ATOM     33  C   UNL     1      33.131 -24.496 -14.028  0.00  0.00    +0.002 C 
ATOM     34  C   UNL     1      30.983 -23.360 -15.396  0.00  0.00    +0.068 C 
ATOM     35  C   UNL     1      31.826 -24.883 -13.721  0.00  0.00    +0.001 C 
ATOM     36  C   UNL     1      30.752 -24.315 -14.405  0.00  0.00    +0.010 C 
BRANCH  34  38
ATOM     37  N   UNL     1      28.987 -22.305 -16.666  0.00  0.00    -0.191 NA
ATOM     38  C   UNL     1      29.881 -22.778 -16.097  0.00  0.00    +0.100 C 
ENDBRANCH  34  38
ENDBRANCH  27  31
ENDBRANCH  23  25
ENDBRANCH   2  23
TORSDOF 8
ENDMDL
MODEL 7
REMARK VINA RESULT:     -12.5      1.908      4.075
REMARK  Name = 25171648
REMARK  8 active torsions:
REMARK  status: ('A' for Active; 'I' for Inactive)
REMARK    1  A    between atoms: C_1  and  C_12
REMARK    2  A    between atoms: C_2  and  C_23
REMARK    3  A    between atoms: C_9  and  O_13
REMARK    4  A    between atoms: O_13  and  C_14
REMARK    5  A    between atoms: C_14  and  C_16
REMARK    6  A    between atoms: C_23  and  N_25
REMARK    7  A    between atoms: C_27  and  C_31
REMARK    8  A    between atoms: C_34  and  C_38
REMARK                            x       y       z     vdW  Elec       q    Type
REMARK                         _______ _______ _______ _____ _____    ______ ____
ROOT
ATOM      1  C   UNL     1      35.028 -21.356 -19.229  0.00  0.00    +0.062 C 
ATOM      2  C   UNL     1      35.657 -22.512 -17.202  0.00  0.00    +0.000 C 
ATOM      3  C   UNL     1      35.938 -21.570 -18.194  0.00  0.00    +0.007 C 
ATOM      4  C   UNL     1      33.838 -22.083 -19.273  0.00  0.00    +0.010 C 
ATOM      5  C   UNL     1      34.467 -23.238 -17.247  0.00  0.00    -0.003 C 
ATOM      6  C   UNL     1      33.557 -23.023 -18.282  0.00  0.00    +0.000 C 
ENDROOT
BRANCH   1  12
ATOM      7  N   UNL     1      34.379 -20.214 -21.201  0.00  0.00    -0.212 NA
ATOM      8  N   UNL     1      36.498 -19.743 -20.154  0.00  0.00    -0.190 NA
ATOM      9  C   UNL     1      35.858 -18.572 -22.157  0.00  0.00    +0.161 C 
ATOM     10  C   UNL     1      34.683 -19.296 -22.143  0.00  0.00    +0.201 C 
ATOM     11  C   UNL     1      36.736 -18.839 -21.127  0.00  0.00    +0.144 C 
ATOM     12  C   UNL     1      35.317 -20.384 -20.251  0.00  0.00    +0.031 C 
BRANCH   9  13
ATOM     13  O   UNL     1      36.133 -17.645 -23.132  0.00  0.00    -0.476 OA
BRANCH  13  14
ATOM     14  C   UNL     1      35.036 -17.141 -23.870  0.00  0.00    +0.205 C 
BRANCH  14  16
ATOM     15  N   UNL     1      32.977 -13.613 -22.465  0.00  0.00    +0.386 N 
ATOM     16  C   UNL     1      34.792 -15.694 -23.453  0.00  0.00    +0.040 C 
ATOM     17  C   UNL     1      34.357 -15.610 -21.985  0.00  0.00    -0.019 C 
ATOM     18  C   UNL     1      33.735 -15.033 -24.344  0.00  0.00    -0.019 C 
ATOM     19  C   UNL     1      34.014 -14.173 -21.587  0.00  0.00    -0.077 C 
ATOM     20  C   UNL     1      33.413 -13.615 -23.868  0.00  0.00    -0.077 C 
ATOM     21  C   UNL     1      32.624 -12.258 -22.040  0.00  0.00    -0.101 C 
ATOM     22  H   UNL     1      32.150 -14.205 -22.392  0.00  0.00    -0.080 HD
ENDBRANCH  14  16
ENDBRANCH  13  14
ENDBRANCH   9  13
ENDBRANCH   1  12
BRANCH   2  23
ATOM     23  C   UNL     1      36.630 -22.742 -16.095  0.00  0.00    +0.146 C 
BRANCH  23  25
ATOM     24  O   UNL     1      37.898 -23.168 -13.561  0.00  0.00    -0.268 OA
ATOM     25  N   UNL     1      35.981 -23.189 -14.874  0.00  0.00    -0.173 N 
ATOM     26  N   UNL     1      34.641 -23.426 -14.992  0.00  0.00    -0.175 NA
ATOM     27  C   UNL     1      33.997 -23.834 -13.946  0.00  0.00    +0.099 C 
ATOM     28  C   UNL     1      36.690 -23.362 -13.695  0.00  0.00    +0.268 C 
ATOM     29  C   UNL     1      34.605 -24.040 -12.619  0.00  0.00    +0.025 C 
ATOM     30  C   UNL     1      35.912 -23.807 -12.519  0.00  0.00    +0.061 C 
BRANCH  27  31
ATOM     31  C   UNL     1      32.538 -24.101 -14.064  0.00  0.00    +0.020 C 
ATOM     32  C   UNL     1      31.757 -23.342 -14.935  0.00  0.00    +0.012 C 
ATOM     33  C   UNL     1      31.952 -25.112 -13.302  0.00  0.00    +0.002 C 
ATOM     34  C   UNL     1      30.390 -23.593 -15.044  0.00  0.00    +0.068 C 
ATOM     35  C   UNL     1      30.584 -25.363 -13.411  0.00  0.00    +0.001 C 
ATOM     36  C   UNL     1      29.803 -24.604 -14.283  0.00  0.00    +0.010 C 
BRANCH  34  38
ATOM     37  N   UNL     1      28.938 -22.183 -16.660  0.00  0.00    -0.191 NA
ATOM     38  C   UNL     1      29.589 -22.815 -15.936  0.00  0.00    +0.100 C 
ENDBRANCH  34  38
ENDBRANCH  27  31
ENDBRANCH  23  25
ENDBRANCH   2  23
TORSDOF 8
ENDMDL
MODEL 8
REMARK VINA RESULT:     -11.8      4.726     14.642
REMARK  Name = 25171648
REMARK  8 active torsions:
REMARK  status: ('A' for Active; 'I' for Inactive)
REMARK    1  A    between atoms: C_1  and  C_12
REMARK    2  A    between atoms: C_2  and  C_23
REMARK    3  A    between atoms: C_9  and  O_13
REMARK    4  A    between atoms: O_13  and  C_14
REMARK    5  A    between atoms: C_14  and  C_16
REMARK    6  A    between atoms: C_23  and  N_25
REMARK    7  A    between atoms: C_27  and  C_31
REMARK    8  A    between atoms: C_34  and  C_38
REMARK                            x       y       z     vdW  Elec       q    Type
REMARK                         _______ _______ _______ _____ _____    ______ ____
ROOT
ATOM      1  C   UNL     1      34.186 -14.608 -23.810  0.00  0.00    +0.062 C 
ATOM      2  C   UNL     1      34.184 -12.208 -24.088  0.00  0.00    +0.000 C 
ATOM      3  C   UNL     1      34.555 -13.340 -23.361  0.00  0.00    +0.007 C 
ATOM      4  C   UNL     1      33.445 -14.744 -24.984  0.00  0.00    +0.010 C 
ATOM      5  C   UNL     1      33.443 -12.344 -25.261  0.00  0.00    -0.003 C 
ATOM      6  C   UNL     1      33.074 -13.612 -25.710  0.00  0.00    +0.000 C 
ENDROOT
BRANCH   1  12
ATOM      7  N   UNL     1      34.915 -16.862 -23.776  0.00  0.00    -0.212 NA
ATOM      8  N   UNL     1      34.543 -15.664 -21.718  0.00  0.00    -0.190 NA
ATOM      9  C   UNL     1      35.284 -17.954 -21.662  0.00  0.00    +0.161 C 
ATOM     10  C   UNL     1      35.269 -17.938 -23.042  0.00  0.00    +0.201 C 
ATOM     11  C   UNL     1      34.909 -16.776 -21.047  0.00  0.00    +0.144 C 
ATOM     12  C   UNL     1      34.569 -15.776 -23.060  0.00  0.00    +0.031 C 
BRANCH   9  13
ATOM     13  O   UNL     1      35.651 -19.067 -20.947  0.00  0.00    -0.476 OA
BRANCH  13  14
ATOM     14  C   UNL     1      34.787 -20.186 -21.010  0.00  0.00    +0.205 C 
BRANCH  14  16
ATOM     15  N   UNL     1      34.434 -23.026 -17.775  0.00  0.00    +0.386 N 
ATOM     16  C   UNL     1      34.600 -20.737 -19.600  0.00  0.00    +0.040 C 
ATOM     17  C   UNL     1      35.838 -21.518 -19.146  0.00  0.00    -0.019 C 
ATOM     18  C   UNL     1      33.362 -21.636 -19.519  0.00  0.00    -0.019 C 
ATOM     19  C   UNL     1      35.620 -22.158 -17.773  0.00  0.00    -0.077 C 
ATOM     20  C   UNL     1      33.225 -22.271 -18.133  0.00  0.00    -0.077 C 
ATOM     21  C   UNL     1      34.269 -23.670 -16.472  0.00  0.00    -0.101 C 
ATOM     22  H   UNL     1      34.575 -23.748 -18.481  0.00  0.00    -0.080 HD
ENDBRANCH  14  16
ENDBRANCH  13  14
ENDBRANCH   9  13
ENDBRANCH   1  12
BRANCH   2  23
ATOM     23  C   UNL     1      34.578 -10.851 -23.609  0.00  0.00    +0.146 C 
BRANCH  23  25
ATOM     24  O   UNL     1      32.414 -11.777 -21.975  0.00  0.00    -0.268 OA
ATOM     25  N   UNL     1      33.436 -10.067 -23.170  0.00  0.00    -0.173 N 
ATOM     26  N   UNL     1      33.428  -8.774 -23.609  0.00  0.00    -0.175 NA
ATOM     27  C   UNL     1      32.437  -8.016 -23.264  0.00  0.00    +0.099 C 
ATOM     28  C   UNL     1      32.440 -10.614 -22.375  0.00  0.00    +0.268 C 
ATOM     29  C   UNL     1      31.318  -8.445 -22.404  0.00  0.00    +0.025 C 
ATOM     30  C   UNL     1      31.338  -9.709 -21.986  0.00  0.00    +0.061 C 
BRANCH  27  31
ATOM     31  C   UNL     1      32.414  -6.607 -23.740  0.00  0.00    +0.020 C 
ATOM     32  C   UNL     1      31.595  -5.671 -23.110  0.00  0.00    +0.012 C 
ATOM     33  C   UNL     1      33.213  -6.222 -24.817  0.00  0.00    +0.002 C 
ATOM     34  C   UNL     1      31.574  -4.349 -23.557  0.00  0.00    +0.068 C 
ATOM     35  C   UNL     1      33.193  -4.901 -25.264  0.00  0.00    +0.001 C 
ATOM     36  C   UNL     1      32.374  -3.964 -24.634  0.00  0.00    +0.010 C 
BRANCH  34  38
ATOM     37  N   UNL     1      30.053  -2.609 -22.389  0.00  0.00    -0.191 NA
ATOM     38  C   UNL     1      30.735  -3.389 -22.913  0.00  0.00    +0.100 C 
ENDBRANCH  34  38
ENDBRANCH  27  31
ENDBRANCH  23  25
ENDBRANCH   2  23
TORSDOF 8
ENDMDL
MODEL 9
REMARK VINA RESULT:     -11.7      4.516      9.137
REMARK  Name = 25171648
REMARK  8 active torsions:
REMARK  status: ('A' for Active; 'I' for Inactive)
REMARK    1  A    between atoms: C_1  and  C_12
REMARK    2  A    between atoms: C_2  and  C_23
REMARK    3  A    between atoms: C_9  and  O_13
REMARK    4  A    between atoms: O_13  and  C_14
REMARK    5  A    between atoms: C_14  and  C_16
REMARK    6  A    between atoms: C_23  and  N_25
REMARK    7  A    between atoms: C_27  and  C_31
REMARK    8  A    between atoms: C_34  and  C_38
REMARK                            x       y       z     vdW  Elec       q    Type
REMARK                         _______ _______ _______ _____ _____    ______ ____
ROOT
ATOM      1  C   UNL     1      32.874 -13.030 -21.274  0.00  0.00    +0.062 C 
ATOM      2  C   UNL     1      34.269 -14.964 -21.670  0.00  0.00    +0.000 C 
ATOM      3  C   UNL     1      33.928 -13.641 -21.955  0.00  0.00    +0.007 C 
ATOM      4  C   UNL     1      32.162 -13.743 -20.309  0.00  0.00    +0.010 C 
ATOM      5  C   UNL     1      33.556 -15.675 -20.704  0.00  0.00    -0.003 C 
ATOM      6  C   UNL     1      32.504 -15.064 -20.023  0.00  0.00    +0.000 C 
ENDROOT
BRANCH   1  12
ATOM      7  N   UNL     1      31.810 -11.013 -20.631  0.00  0.00    -0.212 NA
ATOM      8  N   UNL     1      32.943 -11.178 -22.751  0.00  0.00    -0.190 NA
ATOM      9  C   UNL     1      31.868  -9.120 -22.117  0.00  0.00    +0.161 C 
ATOM     10  C   UNL     1      31.498  -9.737 -20.940  0.00  0.00    +0.201 C 
ATOM     11  C   UNL     1      32.597  -9.897 -22.994  0.00  0.00    +0.144 C 
ATOM     12  C   UNL     1      32.523 -11.666 -21.568  0.00  0.00    +0.031 C 
BRANCH   9  13
ATOM     13  O   UNL     1      31.533  -7.819 -22.397  0.00  0.00    -0.476 OA
BRANCH  13  14
ATOM     14  C   UNL     1      32.568  -6.857 -22.319  0.00  0.00    +0.205 C 
BRANCH  14  16
ATOM     15  N   UNL     1      34.443  -4.713 -25.567  0.00  0.00    +0.386 N 
ATOM     16  C   UNL     1      33.004  -6.495 -23.736  0.00  0.00    +0.040 C 
ATOM     17  C   UNL     1      34.532  -6.502 -23.860  0.00  0.00    -0.019 C 
ATOM     18  C   UNL     1      32.458  -5.124 -24.148  0.00  0.00    -0.019 C 
ATOM     19  C   UNL     1      34.980  -6.043 -25.249  0.00  0.00    -0.077 C 
ATOM     20  C   UNL     1      32.974  -4.712 -25.529  0.00  0.00    -0.077 C 
ATOM     21  C   UNL     1      34.922  -4.267 -26.875  0.00  0.00    -0.101 C 
ATOM     22  H   UNL     1      34.777  -4.062 -24.857  0.00  0.00    -0.080 HD
ENDBRANCH  14  16
ENDBRANCH  13  14
ENDBRANCH   9  13
ENDBRANCH   1  12
BRANCH   2  23
ATOM     23  C   UNL     1      35.395 -15.618 -22.397  0.00  0.00    +0.146 C 
BRANCH  23  25
ATOM     24  O   UNL     1      35.082 -16.599 -25.072  0.00  0.00    -0.268 OA
ATOM     25  N   UNL     1      35.085 -16.985 -22.780  0.00  0.00    -0.173 N 
ATOM     26  N   UNL     1      34.926 -17.850 -21.734  0.00  0.00    -0.175 NA
ATOM     27  C   UNL     1      34.641 -19.084 -21.999  0.00  0.00    +0.099 C 
ATOM     28  C   UNL     1      34.957 -17.357 -24.110  0.00  0.00    +0.268 C 
ATOM     29  C   UNL     1      34.498 -19.635 -23.359  0.00  0.00    +0.025 C 
ATOM     30  C   UNL     1      34.653 -18.781 -24.368  0.00  0.00    +0.061 C 
BRANCH  27  31
ATOM     31  C   UNL     1      34.460 -20.034 -20.869  0.00  0.00    +0.020 C 
ATOM     32  C   UNL     1      35.560 -20.434 -20.110  0.00  0.00    +0.012 C 
ATOM     33  C   UNL     1      33.190 -20.525 -20.567  0.00  0.00    +0.002 C 
ATOM     34  C   UNL     1      35.390 -21.325 -19.050  0.00  0.00    +0.068 C 
ATOM     35  C   UNL     1      33.019 -21.416 -19.507  0.00  0.00    +0.001 C 
ATOM     36  C   UNL     1      34.119 -21.815 -18.748  0.00  0.00    +0.010 C 
BRANCH  34  38
ATOM     37  N   UNL     1      37.431 -22.069 -17.641  0.00  0.00    -0.191 NA
ATOM     38  C   UNL     1      36.516 -21.735 -18.272  0.00  0.00    +0.100 C 
ENDBRANCH  34  38
ENDBRANCH  27  31
ENDBRANCH  23  25
ENDBRANCH   2  23
TORSDOF 8
ENDMDL
