MODEL 1
REMARK VINA RESULT:     -11.8      0.000      0.000
REMARK  Name = 54713659
REMARK  4 active torsions:
REMARK  status: ('A' for Active; 'I' for Inactive)
REMARK    1  A    between atoms: C_14  and  O_30
REMARK    2  A    between atoms: C_15  and  C_19
REMARK    3  A    between atoms: N_18  and  C_21
REMARK    4  A    between atoms: C_21  and  C_24
REMARK                            x       y       z     vdW  Elec       q    Type
REMARK                         _______ _______ _______ _____ _____    ______ ____
ROOT
ATOM      1  O   UNL     1      31.892 -12.306 -19.534  0.00  0.00    -0.334 OA
ATOM      2  O   UNL     1      33.357 -11.514 -23.812  0.00  0.00    -0.268 OA
ATOM      3  O   UNL     1      34.766 -16.172 -25.412  0.00  0.00    -0.283 OA
ATOM      4  N   UNL     1      32.533 -12.047 -21.731  0.00  0.00    -0.251 N 
ATOM      5  N   UNL     1      33.750 -14.529 -21.844  0.00  0.00    -0.275 N 
ATOM      6  C   UNL     1      32.219 -13.030 -20.728  0.00  0.00    +0.215 C 
ATOM      7  C   UNL     1      32.138 -10.735 -21.282  0.00  0.00    +0.107 C 
ATOM      8  C   UNL     1      33.405 -13.952 -20.539  0.00  0.00    +0.147 C 
ATOM      9  C   UNL     1      32.200 -10.918 -19.775  0.00  0.00    +0.164 C 
ATOM     10  C   UNL     1      33.160 -12.341 -22.924  0.00  0.00    +0.268 C 
ATOM     11  C   UNL     1      33.644 -13.772 -23.026  0.00  0.00    +0.143 C 
ATOM     12  C   UNL     1      30.737 -10.383 -21.771  0.00  0.00    +0.024 C 
ATOM     13  C   UNL     1      34.244 -15.823 -21.926  0.00  0.00    +0.074 C 
ATOM     14  C   UNL     1      33.971 -14.264 -24.240  0.00  0.00    +0.191 C 
ATOM     15  C   UNL     1      34.605 -16.434 -23.061  0.00  0.00    +0.110 C 
ATOM     16  C   UNL     1      34.472 -15.672 -24.330  0.00  0.00    +0.236 C 
ENDROOT
BRANCH  15  19
ATOM     17  O   UNL     1      35.007 -18.572 -23.947  0.00  0.00    -0.270 OA
ATOM     18  N   UNL     1      35.667 -18.114 -21.759  0.00  0.00    -0.297 N 
ATOM     19  C   UNL     1      35.104 -17.807 -22.986  0.00  0.00    +0.251 C 
ATOM     20  H   UNL     1      35.687 -17.414 -21.067  0.00  0.00    +0.150 HD
BRANCH  18  21
ATOM     21  C   UNL     1      36.228 -19.407 -21.439  0.00  0.00    +0.119 C 
BRANCH  21  24
ATOM     22  F   UNL     1      37.158 -21.384 -19.641  0.00  0.00    -0.204 F 
ATOM     23  F   UNL     1      32.782 -22.452 -18.190  0.00  0.00    -0.204 F 
ATOM     24  C   UNL     1      35.311 -20.220 -20.573  0.00  0.00    +0.025 C 
ATOM     25  C   UNL     1      35.834 -21.180 -19.707  0.00  0.00    +0.140 C 
ATOM     26  C   UNL     1      33.931 -20.014 -20.633  0.00  0.00    +0.002 C 
ATOM     27  C   UNL     1      34.981 -21.934 -18.902  0.00  0.00    +0.059 C 
ATOM     28  C   UNL     1      33.078 -20.769 -19.829  0.00  0.00    +0.030 C 
ATOM     29  C   UNL     1      33.602 -21.728 -18.963  0.00  0.00    +0.142 C 
ENDBRANCH  21  24
ENDBRANCH  18  21
ENDBRANCH  15  19
BRANCH  14  30
ATOM     30  O   UNL     1      33.861 -13.552 -25.414  0.00  0.00    -0.502 OA
ATOM     31  H   UNL     1      33.183 -12.913 -25.513  0.00  0.00    +0.292 HD
ENDBRANCH  14  30
TORSDOF 4
ENDMDL
MODEL 2
REMARK VINA RESULT:     -11.4      4.958      9.869
REMARK  Name = 54713659
REMARK  4 active torsions:
REMARK  status: ('A' for Active; 'I' for Inactive)
REMARK    1  A    between atoms: C_14  and  O_30
REMARK    2  A    between atoms: C_15  and  C_19
REMARK    3  A    between atoms: N_18  and  C_21
REMARK    4  A    between atoms: C_21  and  C_24
REMARK                            x       y       z     vdW  Elec       q    Type
REMARK                         _______ _______ _______ _____ _____    ______ ____
ROOT
ATOM      1  O   UNL     1      38.286 -23.545 -14.623  0.00  0.00    -0.334 OA
ATOM      2  O   UNL     1      33.804 -23.432 -15.609  0.00  0.00    -0.268 OA
ATOM      3  O   UNL     1      33.720 -21.336 -20.282  0.00  0.00    -0.283 OA
ATOM      4  N   UNL     1      36.077 -23.555 -15.275  0.00  0.00    -0.251 N 
ATOM      5  N   UNL     1      36.517 -21.818 -17.383  0.00  0.00    -0.275 N 
ATOM      6  C   UNL     1      37.421 -23.352 -15.749  0.00  0.00    +0.215 C 
ATOM      7  C   UNL     1      36.099 -24.143 -13.958  0.00  0.00    +0.107 C 
ATOM      8  C   UNL     1      37.540 -21.963 -16.341  0.00  0.00    +0.147 C 
ATOM      9  C   UNL     1      37.450 -23.666 -13.454  0.00  0.00    +0.164 C 
ATOM     10  C   UNL     1      34.950 -23.189 -15.980  0.00  0.00    +0.268 C 
ATOM     11  C   UNL     1      35.243 -22.400 -17.239  0.00  0.00    +0.143 C 
ATOM     12  C   UNL     1      36.006 -25.664 -14.033  0.00  0.00    +0.024 C 
ATOM     13  C   UNL     1      36.773 -21.050 -18.509  0.00  0.00    +0.074 C 
ATOM     14  C   UNL     1      34.272 -22.272 -18.168  0.00  0.00    +0.191 C 
ATOM     15  C   UNL     1      35.904 -20.839 -19.506  0.00  0.00    +0.110 C 
ATOM     16  C   UNL     1      34.562 -21.470 -19.399  0.00  0.00    +0.236 C 
ENDROOT
BRANCH  15  19
ATOM     17  O   UNL     1      37.480 -19.593 -20.723  0.00  0.00    -0.270 OA
ATOM     18  N   UNL     1      35.302 -19.764 -21.537  0.00  0.00    -0.297 N 
ATOM     19  C   UNL     1      36.324 -20.008 -20.634  0.00  0.00    +0.251 C 
ATOM     20  H   UNL     1      34.416 -20.153 -21.355  0.00  0.00    +0.150 HD
BRANCH  18  21
ATOM     21  C   UNL     1      35.467 -18.967 -22.732  0.00  0.00    +0.119 C 
BRANCH  21  24
ATOM     22  F   UNL     1      35.052 -17.137 -24.849  0.00  0.00    -0.204 F 
ATOM     23  F   UNL     1      34.030 -13.588 -21.891  0.00  0.00    -0.204 F 
ATOM     24  C   UNL     1      35.084 -17.533 -22.509  0.00  0.00    +0.025 C 
ATOM     25  C   UNL     1      34.895 -16.682 -23.598  0.00  0.00    +0.140 C 
ATOM     26  C   UNL     1      34.917 -17.050 -21.210  0.00  0.00    +0.002 C 
ATOM     27  C   UNL     1      34.539 -15.350 -23.390  0.00  0.00    +0.059 C 
ATOM     28  C   UNL     1      34.562 -15.718 -21.003  0.00  0.00    +0.030 C 
ATOM     29  C   UNL     1      34.372 -14.867 -22.092  0.00  0.00    +0.142 C 
ENDBRANCH  21  24
ENDBRANCH  18  21
ENDBRANCH  15  19
BRANCH  14  30
ATOM     30  O   UNL     1      33.025 -22.844 -18.062  0.00  0.00    -0.502 OA
ATOM     31  H   UNL     1      32.926 -23.680 -17.651  0.00  0.00    +0.292 HD
ENDBRANCH  14  30
TORSDOF 4
ENDMDL
MODEL 3
REMARK VINA RESULT:     -11.3      7.027     11.897
REMARK  Name = 54713659
REMARK  4 active torsions:
REMARK  status: ('A' for Active; 'I' for Inactive)
REMARK    1  A    between atoms: C_14  and  O_30
REMARK    2  A    between atoms: C_15  and  C_19
REMARK    3  A    between atoms: N_18  and  C_21
REMARK    4  A    between atoms: C_21  and  C_24
REMARK                            x       y       z     vdW  Elec       q    Type
REMARK                         _______ _______ _______ _____ _____    ______ ____
ROOT
ATOM      1  O   UNL     1      38.726 -24.365 -13.619  0.00  0.00    -0.334 OA
ATOM      2  O   UNL     1      34.755 -24.962 -11.395  0.00  0.00    -0.268 OA
ATOM      3  O   UNL     1      31.266 -24.070 -15.037  0.00  0.00    -0.283 OA
ATOM      4  N   UNL     1      36.680 -24.762 -12.638  0.00  0.00    -0.251 N 
ATOM      5  N   UNL     1      35.274 -23.546 -14.687  0.00  0.00    -0.275 N 
ATOM      6  C   UNL     1      37.332 -24.540 -13.903  0.00  0.00    +0.215 C 
ATOM      7  C   UNL     1      37.662 -25.012 -11.612  0.00  0.00    +0.107 C 
ATOM      8  C   UNL     1      36.722 -23.329 -14.576  0.00  0.00    +0.147 C 
ATOM      9  C   UNL     1      38.867 -24.289 -12.186  0.00  0.00    +0.164 C 
ATOM     10  C   UNL     1      35.315 -24.696 -12.456  0.00  0.00    +0.268 C 
ATOM     11  C   UNL     1      34.557 -24.207 -13.672  0.00  0.00    +0.143 C 
ATOM     12  C   UNL     1      37.905 -26.506 -11.434  0.00  0.00    +0.024 C 
ATOM     13  C   UNL     1      34.576 -23.049 -15.778  0.00  0.00    +0.074 C 
ATOM     14  C   UNL     1      33.223 -24.407 -13.732  0.00  0.00    +0.191 C 
ATOM     15  C   UNL     1      33.257 -23.175 -15.965  0.00  0.00    +0.110 C 
ATOM     16  C   UNL     1      32.477 -23.898 -14.926  0.00  0.00    +0.236 C 
ENDROOT
BRANCH  15  19
ATOM     17  O   UNL     1      31.448 -22.422 -17.260  0.00  0.00    -0.270 OA
ATOM     18  N   UNL     1      33.600 -22.303 -18.148  0.00  0.00    -0.297 N 
ATOM     19  C   UNL     1      32.663 -22.600 -17.172  0.00  0.00    +0.251 C 
ATOM     20  H   UNL     1      34.547 -22.492 -17.958  0.00  0.00    +0.150 HD
BRANCH  18  21
ATOM     21  C   UNL     1      33.261 -21.728 -19.430  0.00  0.00    +0.119 C 
BRANCH  21  24
ATOM     22  F   UNL     1      35.988 -22.194 -18.840  0.00  0.00    -0.204 F 
ATOM     23  F   UNL     1      37.424 -18.543 -21.487  0.00  0.00    -0.204 F 
ATOM     24  C   UNL     1      34.372 -20.880 -19.978  0.00  0.00    +0.025 C 
ATOM     25  C   UNL     1      35.697 -21.164 -19.647  0.00  0.00    +0.140 C 
ATOM     26  C   UNL     1      34.078 -19.806 -20.819  0.00  0.00    +0.002 C 
ATOM     27  C   UNL     1      36.728 -20.376 -20.156  0.00  0.00    +0.059 C 
ATOM     28  C   UNL     1      35.110 -19.017 -21.327  0.00  0.00    +0.030 C 
ATOM     29  C   UNL     1      36.434 -19.301 -20.997  0.00  0.00    +0.142 C 
ENDBRANCH  21  24
ENDBRANCH  18  21
ENDBRANCH  15  19
BRANCH  14  30
ATOM     30  O   UNL     1      32.499 -25.064 -12.763  0.00  0.00    -0.502 OA
ATOM     31  H   UNL     1      32.649 -25.975 -12.602  0.00  0.00    +0.292 HD
ENDBRANCH  14  30
TORSDOF 4
ENDMDL
MODEL 4
REMARK VINA RESULT:     -11.2      1.693      3.031
REMARK  Name = 54713659
REMARK  4 active torsions:
REMARK  status: ('A' for Active; 'I' for Inactive)
REMARK    1  A    between atoms: C_14  and  O_30
REMARK    2  A    between atoms: C_15  and  C_19
REMARK    3  A    between atoms: N_18  and  C_21
REMARK    4  A    between atoms: C_21  and  C_24
REMARK                            x       y       z     vdW  Elec       q    Type
REMARK                         _______ _______ _______ _____ _____    ______ ____
ROOT
ATOM      1  O   UNL     1      33.321  -8.832 -23.618  0.00  0.00    -0.334 OA
ATOM      2  O   UNL     1      30.897 -11.271 -20.575  0.00  0.00    -0.268 OA
ATOM      3  O   UNL     1      33.291 -15.799 -20.582  0.00  0.00    -0.283 OA
ATOM      4  N   UNL     1      32.257 -10.106 -22.021  0.00  0.00    -0.251 N 
ATOM      5  N   UNL     1      33.414 -12.464 -22.890  0.00  0.00    -0.275 N 
ATOM      6  C   UNL     1      33.422 -10.048 -22.865  0.00  0.00    +0.215 C 
ATOM      7  C   UNL     1      31.581  -8.833 -22.019  0.00  0.00    +0.107 C 
ATOM      8  C   UNL     1      33.462 -11.276 -23.750  0.00  0.00    +0.147 C 
ATOM      9  C   UNL     1      32.014  -8.277 -23.364  0.00  0.00    +0.164 C 
ATOM     10  C   UNL     1      31.846 -11.242 -21.356  0.00  0.00    +0.268 C 
ATOM     11  C   UNL     1      32.636 -12.483 -21.717  0.00  0.00    +0.143 C 
ATOM     12  C   UNL     1      32.042  -7.966 -20.852  0.00  0.00    +0.024 C 
ATOM     13  C   UNL     1      34.097 -13.616 -23.253  0.00  0.00    +0.074 C 
ATOM     14  C   UNL     1      32.554 -13.564 -20.912  0.00  0.00    +0.191 C 
ATOM     15  C   UNL     1      34.103 -14.755 -22.550  0.00  0.00    +0.110 C 
ATOM     16  C   UNL     1      33.318 -14.796 -21.289  0.00  0.00    +0.236 C 
ENDROOT
BRANCH  15  19
ATOM     17  O   UNL     1      35.246 -15.927 -24.236  0.00  0.00    -0.270 OA
ATOM     18  N   UNL     1      35.126 -16.852 -22.100  0.00  0.00    -0.297 N 
ATOM     19  C   UNL     1      34.878 -15.887 -23.061  0.00  0.00    +0.251 C 
ATOM     20  H   UNL     1      34.778 -16.705 -21.190  0.00  0.00    +0.150 HD
BRANCH  18  21
ATOM     21  C   UNL     1      35.869 -18.065 -22.360  0.00  0.00    +0.119 C 
BRANCH  21  24
ATOM     22  F   UNL     1      37.834 -19.424 -20.845  0.00  0.00    -0.204 F 
ATOM     23  F   UNL     1      34.618 -22.134 -18.674  0.00  0.00    -0.204 F 
ATOM     24  C   UNL     1      35.537 -19.149 -21.377  0.00  0.00    +0.025 C 
ATOM     25  C   UNL     1      36.555 -19.781 -20.662  0.00  0.00    +0.140 C 
ATOM     26  C   UNL     1      34.208 -19.527 -21.179  0.00  0.00    +0.002 C 
ATOM     27  C   UNL     1      36.245 -20.788 -19.749  0.00  0.00    +0.059 C 
ATOM     28  C   UNL     1      33.899 -20.535 -20.266  0.00  0.00    +0.030 C 
ATOM     29  C   UNL     1      34.916 -21.166 -19.550  0.00  0.00    +0.142 C 
ENDBRANCH  21  24
ENDBRANCH  18  21
ENDBRANCH  15  19
BRANCH  14  30
ATOM     30  O   UNL     1      31.815 -13.606 -19.751  0.00  0.00    -0.502 OA
ATOM     31  H   UNL     1      31.042 -13.082 -19.668  0.00  0.00    +0.292 HD
ENDBRANCH  14  30
TORSDOF 4
ENDMDL
MODEL 5
REMARK VINA RESULT:     -11.2      5.072      9.806
REMARK  Name = 54713659
REMARK  4 active torsions:
REMARK  status: ('A' for Active; 'I' for Inactive)
REMARK    1  A    between atoms: C_14  and  O_30
REMARK    2  A    between atoms: C_15  and  C_19
REMARK    3  A    between atoms: N_18  and  C_21
REMARK    4  A    between atoms: C_21  and  C_24
REMARK                            x       y       z     vdW  Elec       q    Type
REMARK                         _______ _______ _______ _____ _____    ______ ____
ROOT
ATOM      1  O   UNL     1      31.945 -23.918 -14.570  0.00  0.00    -0.334 OA
ATOM      2  O   UNL     1      36.453 -23.868 -15.436  0.00  0.00    -0.268 OA
ATOM      3  O   UNL     1      36.803 -20.721 -19.462  0.00  0.00    -0.283 OA
ATOM      4  N   UNL     1      34.196 -23.718 -15.016  0.00  0.00    -0.251 N 
ATOM      5  N   UNL     1      33.773 -22.571 -17.498  0.00  0.00    -0.275 N 
ATOM      6  C   UNL     1      32.904 -23.163 -15.323  0.00  0.00    +0.215 C 
ATOM      7  C   UNL     1      34.099 -24.606 -13.884  0.00  0.00    +0.107 C 
ATOM      8  C   UNL     1      32.663 -23.246 -16.815  0.00  0.00    +0.147 C 
ATOM      9  C   UNL     1      32.644 -25.032 -13.978  0.00  0.00    +0.164 C 
ATOM     10  C   UNL     1      35.337 -23.456 -15.745  0.00  0.00    +0.268 C 
ATOM     11  C   UNL     1      35.089 -22.654 -17.005  0.00  0.00    +0.143 C 
ATOM     12  C   UNL     1      34.412 -23.876 -12.583  0.00  0.00    +0.024 C 
ATOM     13  C   UNL     1      33.549 -21.883 -18.681  0.00  0.00    +0.074 C 
ATOM     14  C   UNL     1      36.137 -22.062 -17.617  0.00  0.00    +0.191 C 
ATOM     15  C   UNL     1      34.493 -21.251 -19.390  0.00  0.00    +0.110 C 
ATOM     16  C   UNL     1      35.887 -21.291 -18.877  0.00  0.00    +0.236 C 
ENDROOT
BRANCH  15  19
ATOM     17  O   UNL     1      32.913 -20.429 -20.922  0.00  0.00    -0.270 OA
ATOM     18  N   UNL     1      35.181 -20.106 -21.355  0.00  0.00    -0.297 N 
ATOM     19  C   UNL     1      34.100 -20.562 -20.619  0.00  0.00    +0.251 C 
ATOM     20  H   UNL     1      36.086 -20.274 -21.006  0.00  0.00    +0.150 HD
BRANCH  18  21
ATOM     21  C   UNL     1      35.051 -19.397 -22.608  0.00  0.00    +0.119 C 
BRANCH  21  24
ATOM     22  F   UNL     1      34.911 -17.556 -24.752  0.00  0.00    -0.204 F 
ATOM     23  F   UNL     1      34.613 -13.835 -21.843  0.00  0.00    -0.204 F 
ATOM     24  C   UNL     1      34.934 -17.914 -22.405  0.00  0.00    +0.025 C 
ATOM     25  C   UNL     1      34.870 -17.060 -23.507  0.00  0.00    +0.140 C 
ATOM     26  C   UNL     1      34.890 -17.388 -21.113  0.00  0.00    +0.002 C 
ATOM     27  C   UNL     1      34.761 -15.683 -23.318  0.00  0.00    +0.059 C 
ATOM     28  C   UNL     1      34.782 -16.011 -20.924  0.00  0.00    +0.030 C 
ATOM     29  C   UNL     1      34.717 -15.158 -22.025  0.00  0.00    +0.142 C 
ENDBRANCH  21  24
ENDBRANCH  18  21
ENDBRANCH  15  19
BRANCH  14  30
ATOM     30  O   UNL     1      37.431 -22.112 -17.149  0.00  0.00    -0.502 OA
ATOM     31  H   UNL     1      37.720 -22.847 -16.646  0.00  0.00    +0.292 HD
ENDBRANCH  14  30
TORSDOF 4
ENDMDL
MODEL 6
REMARK VINA RESULT:     -11.1      2.564      4.646
REMARK  Name = 54713659
REMARK  4 active torsions:
REMARK  status: ('A' for Active; 'I' for Inactive)
REMARK    1  A    between atoms: C_14  and  O_30
REMARK    2  A    between atoms: C_15  and  C_19
REMARK    3  A    between atoms: N_18  and  C_21
REMARK    4  A    between atoms: C_21  and  C_24
REMARK                            x       y       z     vdW  Elec       q    Type
REMARK                         _______ _______ _______ _____ _____    ______ ____
ROOT
ATOM      1  O   UNL     1      33.271  -6.912 -22.649  0.00  0.00    -0.334 OA
ATOM      2  O   UNL     1      31.124  -9.597 -19.606  0.00  0.00    -0.268 OA
ATOM      3  O   UNL     1      32.465 -14.309 -21.102  0.00  0.00    -0.283 OA
ATOM      4  N   UNL     1      32.344  -8.348 -21.105  0.00  0.00    -0.251 N 
ATOM      5  N   UNL     1      32.767 -10.583 -22.679  0.00  0.00    -0.275 N 
ATOM      6  C   UNL     1      33.280  -8.272 -22.195  0.00  0.00    +0.215 C 
ATOM      7  C   UNL     1      31.964  -7.022 -20.684  0.00  0.00    +0.107 C 
ATOM      8  C   UNL     1      32.870  -9.247 -23.279  0.00  0.00    +0.147 C 
ATOM      9  C   UNL     1      32.196  -6.238 -21.963  0.00  0.00    +0.164 C 
ATOM     10  C   UNL     1      31.863  -9.532 -20.586  0.00  0.00    +0.268 C 
ATOM     11  C   UNL     1      32.279 -10.759 -21.370  0.00  0.00    +0.143 C 
ATOM     12  C   UNL     1      32.839  -6.537 -19.533  0.00  0.00    +0.024 C 
ATOM     13  C   UNL     1      33.099 -11.707 -23.421  0.00  0.00    +0.074 C 
ATOM     14  C   UNL     1      32.154 -11.973 -20.794  0.00  0.00    +0.191 C 
ATOM     15  C   UNL     1      33.023 -12.968 -22.976  0.00  0.00    +0.110 C 
ATOM     16  C   UNL     1      32.544 -13.183 -21.585  0.00  0.00    +0.236 C 
ENDROOT
BRANCH  15  19
ATOM     17  O   UNL     1      32.898 -14.173 -24.988  0.00  0.00    -0.270 OA
ATOM     18  N   UNL     1      34.390 -14.877 -23.341  0.00  0.00    -0.297 N 
ATOM     19  C   UNL     1      33.415 -14.052 -23.877  0.00  0.00    +0.251 C 
ATOM     20  H   UNL     1      34.727 -14.675 -22.438  0.00  0.00    +0.150 HD
BRANCH  18  21
ATOM     21  C   UNL     1      34.940 -16.018 -24.037  0.00  0.00    +0.119 C 
BRANCH  21  24
ATOM     22  F   UNL     1      34.567 -18.661 -24.975  0.00  0.00    -0.204 F 
ATOM     23  F   UNL     1      35.326 -20.534 -20.696  0.00  0.00    -0.204 F 
ATOM     24  C   UNL     1      35.043 -17.223 -23.148  0.00  0.00    +0.025 C 
ATOM     25  C   UNL     1      34.846 -18.500 -23.674  0.00  0.00    +0.140 C 
ATOM     26  C   UNL     1      35.335 -17.065 -21.792  0.00  0.00    +0.002 C 
ATOM     27  C   UNL     1      34.942 -19.618 -22.847  0.00  0.00    +0.059 C 
ATOM     28  C   UNL     1      35.429 -18.184 -20.965  0.00  0.00    +0.030 C 
ATOM     29  C   UNL     1      35.234 -19.461 -21.491  0.00  0.00    +0.142 C 
ENDBRANCH  21  24
ENDBRANCH  18  21
ENDBRANCH  15  19
BRANCH  14  30
ATOM     30  O   UNL     1      31.696 -12.173 -19.512  0.00  0.00    -0.502 OA
ATOM     31  H   UNL     1      32.031 -12.883 -19.000  0.00  0.00    +0.292 HD
ENDBRANCH  14  30
TORSDOF 4
ENDMDL
MODEL 7
REMARK VINA RESULT:     -10.9      6.635     11.002
REMARK  Name = 54713659
REMARK  4 active torsions:
REMARK  status: ('A' for Active; 'I' for Inactive)
REMARK    1  A    between atoms: C_14  and  O_30
REMARK    2  A    between atoms: C_15  and  C_19
REMARK    3  A    between atoms: N_18  and  C_21
REMARK    4  A    between atoms: C_21  and  C_24
REMARK                            x       y       z     vdW  Elec       q    Type
REMARK                         _______ _______ _______ _____ _____    ______ ____
ROOT
ATOM      1  O   UNL     1      37.947 -23.612 -12.997  0.00  0.00    -0.334 OA
ATOM      2  O   UNL     1      33.403 -23.593 -12.350  0.00  0.00    -0.268 OA
ATOM      3  O   UNL     1      31.573 -23.482 -17.133  0.00  0.00    -0.283 OA
ATOM      4  N   UNL     1      35.656 -23.727 -12.795  0.00  0.00    -0.251 N 
ATOM      5  N   UNL     1      35.218 -22.982 -15.423  0.00  0.00    -0.275 N 
ATOM      6  C   UNL     1      36.738 -23.815 -13.740  0.00  0.00    +0.215 C 
ATOM      7  C   UNL     1      36.170 -23.757 -11.448  0.00  0.00    +0.107 C 
ATOM      8  C   UNL     1      36.543 -22.778 -14.825  0.00  0.00    +0.147 C 
ATOM      9  C   UNL     1      37.571 -23.212 -11.664  0.00  0.00    +0.164 C 
ATOM     10  C   UNL     1      34.332 -23.591 -13.154  0.00  0.00    +0.268 C 
ATOM     11  C   UNL     1      34.118 -23.376 -14.638  0.00  0.00    +0.143 C 
ATOM     12  C   UNL     1      36.173 -25.176 -10.890  0.00  0.00    +0.024 C 
ATOM     13  C   UNL     1      35.016 -22.733 -16.773  0.00  0.00    +0.074 C 
ATOM     14  C   UNL     1      32.882 -23.555 -15.151  0.00  0.00    +0.191 C 
ATOM     15  C   UNL     1      33.846 -22.869 -17.409  0.00  0.00    +0.110 C 
ATOM     16  C   UNL     1      32.673 -23.317 -16.614  0.00  0.00    +0.236 C 
ENDROOT
BRANCH  15  19
ATOM     17  O   UNL     1      33.845 -23.474 -19.679  0.00  0.00    -0.270 OA
ATOM     18  N   UNL     1      33.680 -21.219 -19.111  0.00  0.00    -0.297 N 
ATOM     19  C   UNL     1      33.792 -22.573 -18.841  0.00  0.00    +0.251 C 
ATOM     20  H   UNL     1      33.646 -20.593 -18.351  0.00  0.00    +0.150 HD
BRANCH  18  21
ATOM     21  C   UNL     1      33.610 -20.675 -20.449  0.00  0.00    +0.119 C 
BRANCH  21  24
ATOM     22  F   UNL     1      33.936 -19.314 -22.907  0.00  0.00    -0.204 F 
ATOM     23  F   UNL     1      38.471 -18.302 -22.012  0.00  0.00    -0.204 F 
ATOM     24  C   UNL     1      34.905 -20.042 -20.867  0.00  0.00    +0.025 C 
ATOM     25  C   UNL     1      34.999 -19.386 -22.094  0.00  0.00    +0.140 C 
ATOM     26  C   UNL     1      36.018 -20.111 -20.026  0.00  0.00    +0.002 C 
ATOM     27  C   UNL     1      36.203 -18.798 -22.481  0.00  0.00    +0.059 C 
ATOM     28  C   UNL     1      37.222 -19.524 -20.414  0.00  0.00    +0.030 C 
ATOM     29  C   UNL     1      37.315 -18.866 -21.641  0.00  0.00    +0.142 C 
ENDBRANCH  21  24
ENDBRANCH  18  21
ENDBRANCH  15  19
BRANCH  14  30
ATOM     30  O   UNL     1      31.792 -23.956 -14.411  0.00  0.00    -0.502 OA
ATOM     31  H   UNL     1      31.199 -24.593 -14.757  0.00  0.00    +0.292 HD
ENDBRANCH  14  30
TORSDOF 4
ENDMDL
MODEL 8
REMARK VINA RESULT:     -10.4      5.798     10.469
REMARK  Name = 54713659
REMARK  4 active torsions:
REMARK  status: ('A' for Active; 'I' for Inactive)
REMARK    1  A    between atoms: C_14  and  O_30
REMARK    2  A    between atoms: C_15  and  C_19
REMARK    3  A    between atoms: N_18  and  C_21
REMARK    4  A    between atoms: C_21  and  C_24
REMARK                            x       y       z     vdW  Elec       q    Type
REMARK                         _______ _______ _______ _____ _____    ______ ____
ROOT
ATOM      1  O   UNL     1      34.289 -24.306 -12.484  0.00  0.00    -0.334 OA
ATOM      2  O   UNL     1      38.283 -23.185 -14.451  0.00  0.00    -0.268 OA
ATOM      3  O   UNL     1      36.814 -20.991 -18.840  0.00  0.00    -0.283 OA
ATOM      4  N   UNL     1      36.225 -23.586 -13.504  0.00  0.00    -0.251 N 
ATOM      5  N   UNL     1      34.981 -23.154 -15.938  0.00  0.00    -0.275 N 
ATOM      6  C   UNL     1      34.789 -23.491 -13.553  0.00  0.00    +0.215 C 
ATOM      7  C   UNL     1      36.640 -24.205 -12.270  0.00  0.00    +0.107 C 
ATOM      8  C   UNL     1      34.301 -23.951 -14.910  0.00  0.00    +0.147 C 
ATOM      9  C   UNL     1      35.409 -25.029 -11.935  0.00  0.00    +0.164 C 
ATOM     10  C   UNL     1      37.056 -23.175 -14.525  0.00  0.00    +0.268 C 
ATOM     11  C   UNL     1      36.324 -22.760 -15.784  0.00  0.00    +0.143 C 
ATOM     12  C   UNL     1      36.951 -23.158 -11.205  0.00  0.00    +0.024 C 
ATOM     13  C   UNL     1      34.322 -22.822 -17.112  0.00  0.00    +0.074 C 
ATOM     14  C   UNL     1      36.986 -22.042 -16.716  0.00  0.00    +0.191 C 
ATOM     15  C   UNL     1      34.856 -22.117 -18.117  0.00  0.00    +0.110 C 
ATOM     16  C   UNL     1      36.262 -21.657 -17.969  0.00  0.00    +0.236 C 
ENDROOT
BRANCH  15  19
ATOM     17  O   UNL     1      32.924 -22.362 -19.429  0.00  0.00    -0.270 OA
ATOM     18  N   UNL     1      34.630 -20.964 -20.182  0.00  0.00    -0.297 N 
ATOM     19  C   UNL     1      34.031 -21.840 -19.293  0.00  0.00    +0.251 C 
ATOM     20  H   UNL     1      35.523 -20.613 -19.961  0.00  0.00    +0.150 HD
BRANCH  18  21
ATOM     21  C   UNL     1      34.016 -20.539 -21.420  0.00  0.00    +0.119 C 
BRANCH  21  24
ATOM     22  F   UNL     1      34.671 -19.889 -24.094  0.00  0.00    -0.204 F 
ATOM     23  F   UNL     1      35.761 -15.419 -22.985  0.00  0.00    -0.204 F 
ATOM     24  C   UNL     1      34.481 -19.174 -21.838  0.00  0.00    +0.025 C 
ATOM     25  C   UNL     1      34.789 -18.920 -23.175  0.00  0.00    +0.140 C 
ATOM     26  C   UNL     1      34.606 -18.159 -20.889  0.00  0.00    +0.002 C 
ATOM     27  C   UNL     1      35.221 -17.652 -23.563  0.00  0.00    +0.059 C 
ATOM     28  C   UNL     1      35.039 -16.892 -21.277  0.00  0.00    +0.030 C 
ATOM     29  C   UNL     1      35.346 -16.637 -22.613  0.00  0.00    +0.142 C 
ENDBRANCH  21  24
ENDBRANCH  18  21
ENDBRANCH  15  19
BRANCH  14  30
ATOM     30  O   UNL     1      38.293 -21.629 -16.584  0.00  0.00    -0.502 OA
ATOM     31  H   UNL     1      38.915 -22.174 -16.144  0.00  0.00    +0.292 HD
ENDBRANCH  14  30
TORSDOF 4
ENDMDL
MODEL 9
REMARK VINA RESULT:     -10.0      5.176      9.754
REMARK  Name = 54713659
REMARK  4 active torsions:
REMARK  status: ('A' for Active; 'I' for Inactive)
REMARK    1  A    between atoms: C_14  and  O_30
REMARK    2  A    between atoms: C_15  and  C_19
REMARK    3  A    between atoms: N_18  and  C_21
REMARK    4  A    between atoms: C_21  and  C_24
REMARK                            x       y       z     vdW  Elec       q    Type
REMARK                         _______ _______ _______ _____ _____    ______ ____
ROOT
ATOM      1  O   UNL     1      35.027 -17.753 -20.261  0.00  0.00    -0.334 OA
ATOM      2  O   UNL     1      34.735 -16.771 -24.736  0.00  0.00    -0.268 OA
ATOM      3  O   UNL     1      33.375 -11.833 -24.730  0.00  0.00    -0.283 OA
ATOM      4  N   UNL     1      34.973 -17.115 -22.473  0.00  0.00    -0.251 N 
ATOM      5  N   UNL     1      33.614 -14.765 -21.937  0.00  0.00    -0.275 N 
ATOM      6  C   UNL     1      34.944 -16.612 -21.125  0.00  0.00    +0.215 C 
ATOM      7  C   UNL     1      35.354 -18.505 -22.476  0.00  0.00    +0.107 C 
ATOM      8  C   UNL     1      33.675 -15.815 -20.912  0.00  0.00    +0.147 C 
ATOM      9  C   UNL     1      34.906 -18.928 -21.088  0.00  0.00    +0.164 C 
ATOM     10  C   UNL     1      34.636 -16.364 -23.580  0.00  0.00    +0.268 C 
ATOM     11  C   UNL     1      34.072 -14.999 -23.247  0.00  0.00    +0.143 C 
ATOM     12  C   UNL     1      36.857 -18.665 -22.681  0.00  0.00    +0.024 C 
ATOM     13  C   UNL     1      33.048 -13.534 -21.640  0.00  0.00    +0.074 C 
ATOM     14  C   UNL     1      34.015 -14.063 -24.219  0.00  0.00    +0.191 C 
ATOM     15  C   UNL     1      32.928 -12.519 -22.505  0.00  0.00    +0.110 C 
ATOM     16  C   UNL     1      33.434 -12.723 -23.888  0.00  0.00    +0.236 C 
ENDROOT
BRANCH  15  19
ATOM     17  O   UNL     1      31.325 -11.291 -21.305  0.00  0.00    -0.270 OA
ATOM     18  N   UNL     1      32.950 -10.143 -22.518  0.00  0.00    -0.297 N 
ATOM     19  C   UNL     1      32.311 -11.275 -22.042  0.00  0.00    +0.251 C 
ATOM     20  H   UNL     1      33.733 -10.261 -23.104  0.00  0.00    +0.150 HD
BRANCH  18  21
ATOM     21  C   UNL     1      32.528  -8.797 -22.203  0.00  0.00    +0.119 C 
BRANCH  21  24
ATOM     22  F   UNL     1      31.128  -6.771 -23.597  0.00  0.00    -0.204 F 
ATOM     23  F   UNL     1      35.099  -4.972 -25.438  0.00  0.00    -0.204 F 
ATOM     24  C   UNL     1      33.212  -7.776 -23.066  0.00  0.00    +0.025 C 
ATOM     25  C   UNL     1      32.462  -6.804 -23.727  0.00  0.00    +0.140 C 
ATOM     26  C   UNL     1      34.600  -7.802 -23.207  0.00  0.00    +0.002 C 
ATOM     27  C   UNL     1      33.098  -5.856 -24.528  0.00  0.00    +0.059 C 
ATOM     28  C   UNL     1      35.236  -6.855 -24.009  0.00  0.00    +0.030 C 
ATOM     29  C   UNL     1      34.487  -5.881 -24.669  0.00  0.00    +0.142 C 
ENDBRANCH  21  24
ENDBRANCH  18  21
ENDBRANCH  15  19
BRANCH  14  30
ATOM     30  O   UNL     1      34.471 -14.258 -25.503  0.00  0.00    -0.502 OA
ATOM     31  H   UNL     1      33.934 -14.020 -26.232  0.00  0.00    +0.292 HD
ENDBRANCH  14  30
TORSDOF 4
ENDMDL
