MODEL 1
REMARK VINA RESULT:     -11.3      0.000      0.000
REMARK  Name = 6420159
REMARK  9 active torsions:
REMARK  status: ('A' for Active; 'I' for Inactive)
REMARK    1  A    between atoms: C_1  and  N_3
REMARK    2  A    between atoms: C_1  and  C_15
REMARK    3  A    between atoms: C_1  and  C_29
REMARK    4  A    between atoms: N_14  and  C_17
REMARK    5  A    between atoms: C_17  and  C_18
REMARK    6  A    between atoms: C_18  and  N_19
REMARK    7  A    between atoms: N_19  and  C_21
REMARK    8  A    between atoms: C_26  and  O_27
REMARK    9  A    between atoms: C_29  and  C_30
REMARK                            x       y       z     vdW  Elec       q    Type
REMARK                         _______ _______ _______ _____ _____    ______ ____
ROOT
ATOM      1  C   UNL     1      33.605 -23.242 -16.801  0.00  0.00    +0.151 C 
ENDROOT
BRANCH   1   3
ATOM      2  O   UNL     1      36.258 -22.907 -14.294  0.00  0.00    -0.414 OA
ATOM      3  N   UNL     1      34.613 -22.746 -15.888  0.00  0.00    -0.271 N 
ATOM      4  N   UNL     1      35.328 -24.857 -14.981  0.00  0.00    -0.356 NA
ATOM      5  C   UNL     1      35.374 -23.565 -15.073  0.00  0.00    +0.345 C 
ATOM      6  C   UNL     1      36.862 -23.924 -13.611  0.00  0.00    +0.175 C 
ATOM      7  C   UNL     1      36.290 -25.115 -14.033  0.00  0.00    +0.152 C 
ATOM      8  C   UNL     1      37.867 -23.823 -12.658  0.00  0.00    +0.040 C 
ATOM      9  C   UNL     1      36.742 -26.319 -13.475  0.00  0.00    +0.088 C 
ATOM     10  C   UNL     1      38.307 -25.033 -12.110  0.00  0.00    -0.001 C 
ATOM     11  C   UNL     1      37.757 -26.257 -12.509  0.00  0.00    -0.018 C 
ATOM     12  H   UNL     1      34.764 -21.775 -15.844  0.00  0.00    +0.153 HD
ENDBRANCH   1   3
BRANCH   1  15
ATOM     13  O   UNL     1      33.136 -22.792 -19.135  0.00  0.00    -0.273 OA
ATOM     14  N   UNL     1      35.239 -22.282 -18.303  0.00  0.00    -0.301 N 
ATOM     15  C   UNL     1      33.939 -22.754 -18.205  0.00  0.00    +0.240 C 
ATOM     16  H   UNL     1      35.811 -22.289 -17.502  0.00  0.00    +0.150 HD
BRANCH  14  17
ATOM     17  C   UNL     1      35.780 -21.779 -19.543  0.00  0.00    +0.111 C 
BRANCH  17  18
ATOM     18  C   UNL     1      34.965 -20.621 -20.099  0.00  0.00    +0.109 C 
BRANCH  18  19
ATOM     19  N   UNL     1      35.837 -19.564 -20.553  0.00  0.00    -0.331 N 
ATOM     20  H   UNL     1      36.722 -19.477 -20.129  0.00  0.00    +0.147 HD
BRANCH  19  21
ATOM     21  C   UNL     1      35.499 -18.662 -21.550  0.00  0.00    +0.045 C 
ATOM     22  C   UNL     1      35.350 -17.292 -21.264  0.00  0.00    +0.017 C 
ATOM     23  C   UNL     1      35.294 -19.093 -22.873  0.00  0.00    +0.017 C 
ATOM     24  C   UNL     1      35.009 -16.385 -22.268  0.00  0.00    +0.038 C 
ATOM     25  C   UNL     1      34.952 -18.186 -23.876  0.00  0.00    +0.038 C 
ATOM     26  C   UNL     1      34.809 -16.832 -23.574  0.00  0.00    +0.139 C 
BRANCH  26  27
ATOM     27  O   UNL     1      34.477 -15.948 -24.553  0.00  0.00    -0.471 OA
ATOM     28  C   UNL     1      33.712 -14.807 -24.167  0.00  0.00    +0.252 C 
ENDBRANCH  26  27
ENDBRANCH  19  21
ENDBRANCH  18  19
ENDBRANCH  17  18
ENDBRANCH  14  17
ENDBRANCH   1  15
BRANCH   1  29
ATOM     29  C   UNL     1      32.219 -22.742 -16.388  0.00  0.00    +0.029 C 
BRANCH  29  30
ATOM     30  C   UNL     1      31.313 -23.870 -15.899  0.00  0.00    +0.002 C 
ATOM     31  C   UNL     1      29.836 -23.488 -16.063  0.00  0.00    +0.000 C 
ATOM     32  C   UNL     1      31.626 -24.224 -14.439  0.00  0.00    +0.000 C 
ATOM     33  C   UNL     1      28.909 -24.580 -15.533  0.00  0.00    +0.000 C 
ATOM     34  C   UNL     1      30.696 -25.314 -13.911  0.00  0.00    +0.000 C 
ATOM     35  C   UNL     1      29.229 -24.934 -14.084  0.00  0.00    +0.000 C 
ENDBRANCH  29  30
ENDBRANCH   1  29
TORSDOF 9
ENDMDL
MODEL 2
REMARK VINA RESULT:     -11.1      3.018      7.395
REMARK  Name = 6420159
REMARK  9 active torsions:
REMARK  status: ('A' for Active; 'I' for Inactive)
REMARK    1  A    between atoms: C_1  and  N_3
REMARK    2  A    between atoms: C_1  and  C_15
REMARK    3  A    between atoms: C_1  and  C_29
REMARK    4  A    between atoms: N_14  and  C_17
REMARK    5  A    between atoms: C_17  and  C_18
REMARK    6  A    between atoms: C_18  and  N_19
REMARK    7  A    between atoms: N_19  and  C_21
REMARK    8  A    between atoms: C_26  and  O_27
REMARK    9  A    between atoms: C_29  and  C_30
REMARK                            x       y       z     vdW  Elec       q    Type
REMARK                         _______ _______ _______ _____ _____    ______ ____
ROOT
ATOM      1  C   UNL     1      33.941 -22.989 -16.719  0.00  0.00    +0.151 C 
ENDROOT
BRANCH   1   3
ATOM      2  O   UNL     1      36.032 -25.413 -14.934  0.00  0.00    -0.414 OA
ATOM      3  N   UNL     1      34.644 -24.176 -16.281  0.00  0.00    -0.271 N 
ATOM      4  N   UNL     1      35.755 -23.237 -14.365  0.00  0.00    -0.356 NA
ATOM      5  C   UNL     1      35.471 -24.210 -15.172  0.00  0.00    +0.345 C 
ATOM      6  C   UNL     1      36.778 -25.173 -13.815  0.00  0.00    +0.175 C 
ATOM      7  C   UNL     1      36.606 -23.840 -13.470  0.00  0.00    +0.152 C 
ATOM      8  C   UNL     1      37.577 -26.072 -13.121  0.00  0.00    +0.040 C 
ATOM      9  C   UNL     1      37.274 -23.340 -12.344  0.00  0.00    +0.088 C 
ATOM     10  C   UNL     1      38.237 -25.558 -12.000  0.00  0.00    -0.001 C 
ATOM     11  C   UNL     1      38.090 -24.219 -11.617  0.00  0.00    -0.018 C 
ATOM     12  H   UNL     1      34.527 -25.004 -16.800  0.00  0.00    +0.153 HD
ENDBRANCH   1   3
BRANCH   1  15
ATOM     13  O   UNL     1      31.527 -22.786 -16.731  0.00  0.00    -0.273 OA
ATOM     14  N   UNL     1      32.599 -23.211 -14.720  0.00  0.00    -0.301 N 
ATOM     15  C   UNL     1      32.556 -22.983 -16.087  0.00  0.00    +0.240 C 
ATOM     16  H   UNL     1      33.471 -23.360 -14.288  0.00  0.00    +0.150 HD
BRANCH  14  17
ATOM     17  C   UNL     1      31.406 -23.238 -13.908  0.00  0.00    +0.111 C 
BRANCH  17  18
ATOM     18  C   UNL     1      31.046 -24.646 -13.460  0.00  0.00    +0.109 C 
BRANCH  18  19
ATOM     19  N   UNL     1      29.684 -24.958 -13.823  0.00  0.00    -0.331 N 
ATOM     20  H   UNL     1      29.231 -25.688 -13.342  0.00  0.00    +0.147 HD
BRANCH  19  21
ATOM     21  C   UNL     1      28.979 -24.289 -14.811  0.00  0.00    +0.045 C 
ATOM     22  C   UNL     1      28.341 -23.064 -14.540  0.00  0.00    +0.017 C 
ATOM     23  C   UNL     1      28.879 -24.818 -16.111  0.00  0.00    +0.017 C 
ATOM     24  C   UNL     1      27.629 -22.392 -15.533  0.00  0.00    +0.038 C 
ATOM     25  C   UNL     1      28.167 -24.146 -17.105  0.00  0.00    +0.038 C 
ATOM     26  C   UNL     1      27.542 -22.933 -16.816  0.00  0.00    +0.139 C 
BRANCH  26  27
ATOM     27  O   UNL     1      26.849 -22.277 -17.786  0.00  0.00    -0.471 OA
ATOM     28  C   UNL     1      26.022 -21.191 -17.373  0.00  0.00    +0.252 C 
ENDBRANCH  26  27
ENDBRANCH  19  21
ENDBRANCH  18  19
ENDBRANCH  17  18
ENDBRANCH  14  17
ENDBRANCH   1  15
BRANCH   1  29
ATOM     29  C   UNL     1      33.822 -22.973 -18.244  0.00  0.00    +0.029 C 
BRANCH  29  30
ATOM     30  C   UNL     1      34.283 -21.651 -18.853  0.00  0.00    +0.002 C 
ATOM     31  C   UNL     1      33.276 -21.155 -19.899  0.00  0.00    +0.000 C 
ATOM     32  C   UNL     1      35.682 -21.794 -19.467  0.00  0.00    +0.000 C 
ATOM     33  C   UNL     1      33.742 -19.860 -20.561  0.00  0.00    +0.000 C 
ATOM     34  C   UNL     1      36.143 -20.499 -20.130  0.00  0.00    +0.000 C 
ATOM     35  C   UNL     1      35.135 -20.005 -21.163  0.00  0.00    +0.000 C 
ENDBRANCH  29  30
ENDBRANCH   1  29
TORSDOF 9
ENDMDL
MODEL 3
REMARK VINA RESULT:     -10.8      4.629     12.924
REMARK  Name = 6420159
REMARK  9 active torsions:
REMARK  status: ('A' for Active; 'I' for Inactive)
REMARK    1  A    between atoms: C_1  and  N_3
REMARK    2  A    between atoms: C_1  and  C_15
REMARK    3  A    between atoms: C_1  and  C_29
REMARK    4  A    between atoms: N_14  and  C_17
REMARK    5  A    between atoms: C_17  and  C_18
REMARK    6  A    between atoms: C_18  and  N_19
REMARK    7  A    between atoms: N_19  and  C_21
REMARK    8  A    between atoms: C_26  and  O_27
REMARK    9  A    between atoms: C_29  and  C_30
REMARK                            x       y       z     vdW  Elec       q    Type
REMARK                         _______ _______ _______ _____ _____    ______ ____
ROOT
ATOM      1  C   UNL     1      32.750 -13.695 -21.568  0.00  0.00    +0.151 C 
ENDROOT
BRANCH   1   3
ATOM      2  O   UNL     1      32.254 -10.482 -19.875  0.00  0.00    -0.414 OA
ATOM      3  N   UNL     1      32.611 -12.633 -20.594  0.00  0.00    -0.271 N 
ATOM      4  N   UNL     1      32.183 -10.819 -22.116  0.00  0.00    -0.356 NA
ATOM      5  C   UNL     1      32.346 -11.317 -20.930  0.00  0.00    +0.345 C 
ATOM      6  C   UNL     1      31.995  -9.281 -20.473  0.00  0.00    +0.175 C 
ATOM      7  C   UNL     1      31.953  -9.492 -21.844  0.00  0.00    +0.152 C 
ATOM      8  C   UNL     1      31.804  -8.052 -19.855  0.00  0.00    +0.040 C 
ATOM      9  C   UNL     1      31.700  -8.402 -22.689  0.00  0.00    +0.088 C 
ATOM     10  C   UNL     1      31.552  -6.975 -20.712  0.00  0.00    -0.001 C 
ATOM     11  C   UNL     1      31.501  -7.145 -22.101  0.00  0.00    -0.018 C 
ATOM     12  H   UNL     1      32.710 -12.860 -19.642  0.00  0.00    +0.153 HD
ENDBRANCH   1   3
BRANCH   1  15
ATOM     13  O   UNL     1      32.507 -15.424 -19.888  0.00  0.00    -0.273 OA
ATOM     14  N   UNL     1      34.291 -15.548 -21.365  0.00  0.00    -0.301 N 
ATOM     15  C   UNL     1      33.143 -14.974 -20.840  0.00  0.00    +0.240 C 
ATOM     16  H   UNL     1      34.733 -15.116 -22.130  0.00  0.00    +0.150 HD
BRANCH  14  17
ATOM     17  C   UNL     1      34.857 -16.761 -20.825  0.00  0.00    +0.111 C 
BRANCH  17  18
ATOM     18  C   UNL     1      35.217 -17.762 -21.912  0.00  0.00    +0.109 C 
BRANCH  18  19
ATOM     19  N   UNL     1      35.826 -18.936 -21.334  0.00  0.00    -0.331 N 
ATOM     20  H   UNL     1      36.795 -19.065 -21.456  0.00  0.00    +0.147 HD
BRANCH  19  21
ATOM     21  C   UNL     1      35.125 -19.894 -20.619  0.00  0.00    +0.045 C 
ATOM     22  C   UNL     1      35.801 -20.861 -19.852  0.00  0.00    +0.017 C 
ATOM     23  C   UNL     1      33.718 -19.926 -20.641  0.00  0.00    +0.017 C 
ATOM     24  C   UNL     1      35.095 -21.826 -19.132  0.00  0.00    +0.038 C 
ATOM     25  C   UNL     1      33.012 -20.891 -19.922  0.00  0.00    +0.038 C 
ATOM     26  C   UNL     1      33.701 -21.840 -19.168  0.00  0.00    +0.139 C 
BRANCH  26  27
ATOM     27  O   UNL     1      33.012 -22.780 -18.466  0.00  0.00    -0.471 OA
ATOM     28  C   UNL     1      33.552 -23.177 -17.206  0.00  0.00    +0.252 C 
ENDBRANCH  26  27
ENDBRANCH  19  21
ENDBRANCH  18  19
ENDBRANCH  17  18
ENDBRANCH  14  17
ENDBRANCH   1  15
BRANCH   1  29
ATOM     29  C   UNL     1      33.816 -13.332 -22.603  0.00  0.00    +0.029 C 
BRANCH  29  30
ATOM     30  C   UNL     1      33.341 -13.559 -24.036  0.00  0.00    +0.002 C 
ATOM     31  C   UNL     1      33.797 -14.931 -24.549  0.00  0.00    +0.000 C 
ATOM     32  C   UNL     1      33.841 -12.438 -24.958  0.00  0.00    +0.000 C 
ATOM     33  C   UNL     1      33.378 -15.159 -26.000  0.00  0.00    +0.000 C 
ATOM     34  C   UNL     1      33.423 -12.670 -26.407  0.00  0.00    +0.000 C 
ATOM     35  C   UNL     1      33.871 -14.039 -26.910  0.00  0.00    +0.000 C 
ENDBRANCH  29  30
ENDBRANCH   1  29
TORSDOF 9
ENDMDL
MODEL 4
REMARK VINA RESULT:     -10.7      1.273      5.023
REMARK  Name = 6420159
REMARK  9 active torsions:
REMARK  status: ('A' for Active; 'I' for Inactive)
REMARK    1  A    between atoms: C_1  and  N_3
REMARK    2  A    between atoms: C_1  and  C_15
REMARK    3  A    between atoms: C_1  and  C_29
REMARK    4  A    between atoms: N_14  and  C_17
REMARK    5  A    between atoms: C_17  and  C_18
REMARK    6  A    between atoms: C_18  and  N_19
REMARK    7  A    between atoms: N_19  and  C_21
REMARK    8  A    between atoms: C_26  and  O_27
REMARK    9  A    between atoms: C_29  and  C_30
REMARK                            x       y       z     vdW  Elec       q    Type
REMARK                         _______ _______ _______ _____ _____    ______ ____
ROOT
ATOM      1  C   UNL     1      35.719 -22.788 -15.702  0.00  0.00    +0.151 C 
ENDROOT
BRANCH   1   3
ATOM      2  O   UNL     1      32.186 -23.537 -16.333  0.00  0.00    -0.414 OA
ATOM      3  N   UNL     1      34.405 -22.949 -16.289  0.00  0.00    -0.271 N 
ATOM      4  N   UNL     1      33.282 -23.890 -14.380  0.00  0.00    -0.356 NA
ATOM      5  C   UNL     1      33.321 -23.471 -15.606  0.00  0.00    +0.345 C 
ATOM      6  C   UNL     1      31.299 -24.073 -15.443  0.00  0.00    +0.175 C 
ATOM      7  C   UNL     1      31.973 -24.288 -14.250  0.00  0.00    +0.152 C 
ATOM      8  C   UNL     1      29.958 -24.366 -15.657  0.00  0.00    +0.040 C 
ATOM      9  C   UNL     1      31.275 -24.838 -13.166  0.00  0.00    +0.088 C 
ATOM     10  C   UNL     1      29.275 -24.914 -14.566  0.00  0.00    -0.001 C 
ATOM     11  C   UNL     1      29.918 -25.146 -13.344  0.00  0.00    -0.018 C 
ATOM     12  H   UNL     1      34.277 -22.673 -17.225  0.00  0.00    +0.153 HD
ENDBRANCH   1   3
BRANCH   1  15
ATOM     13  O   UNL     1      37.668 -21.513 -16.367  0.00  0.00    -0.273 OA
ATOM     14  N   UNL     1      36.063 -22.009 -17.965  0.00  0.00    -0.301 N 
ATOM     15  C   UNL     1      36.603 -22.038 -16.688  0.00  0.00    +0.240 C 
ATOM     16  H   UNL     1      35.203 -22.458 -18.129  0.00  0.00    +0.150 HD
BRANCH  14  17
ATOM     17  C   UNL     1      36.722 -21.341 -19.061  0.00  0.00    +0.111 C 
BRANCH  17  18
ATOM     18  C   UNL     1      35.802 -21.154 -20.258  0.00  0.00    +0.109 C 
BRANCH  18  19
ATOM     19  N   UNL     1      35.219 -19.834 -20.243  0.00  0.00    -0.331 N 
ATOM     20  H   UNL     1      34.854 -19.496 -19.392  0.00  0.00    +0.147 HD
BRANCH  19  21
ATOM     21  C   UNL     1      35.142 -19.013 -21.357  0.00  0.00    +0.045 C 
ATOM     22  C   UNL     1      34.901 -19.552 -22.635  0.00  0.00    +0.017 C 
ATOM     23  C   UNL     1      35.305 -17.621 -21.241  0.00  0.00    +0.017 C 
ATOM     24  C   UNL     1      34.825 -18.726 -23.757  0.00  0.00    +0.038 C 
ATOM     25  C   UNL     1      35.230 -16.795 -22.363  0.00  0.00    +0.038 C 
ATOM     26  C   UNL     1      34.990 -17.348 -23.621  0.00  0.00    +0.139 C 
BRANCH  26  27
ATOM     27  O   UNL     1      34.915 -16.542 -24.715  0.00  0.00    -0.471 OA
ATOM     28  C   UNL     1      34.149 -15.345 -24.589  0.00  0.00    +0.252 C 
ENDBRANCH  26  27
ENDBRANCH  19  21
ENDBRANCH  18  19
ENDBRANCH  17  18
ENDBRANCH  14  17
ENDBRANCH   1  15
BRANCH   1  29
ATOM     29  C   UNL     1      36.330 -24.154 -15.382  0.00  0.00    +0.029 C 
BRANCH  29  30
ATOM     30  C   UNL     1      37.246 -24.113 -14.161  0.00  0.00    +0.002 C 
ATOM     31  C   UNL     1      37.506 -25.529 -13.631  0.00  0.00    +0.000 C 
ATOM     32  C   UNL     1      36.648 -23.222 -13.064  0.00  0.00    +0.000 C 
ATOM     33  C   UNL     1      38.377 -25.511 -12.377  0.00  0.00    +0.000 C 
ATOM     34  C   UNL     1      37.520 -23.207 -11.811  0.00  0.00    +0.000 C 
ATOM     35  C   UNL     1      37.784 -24.618 -11.293  0.00  0.00    +0.000 C 
ENDBRANCH  29  30
ENDBRANCH   1  29
TORSDOF 9
ENDMDL
MODEL 5
REMARK VINA RESULT:     -10.4      2.204      5.016
REMARK  Name = 6420159
REMARK  9 active torsions:
REMARK  status: ('A' for Active; 'I' for Inactive)
REMARK    1  A    between atoms: C_1  and  N_3
REMARK    2  A    between atoms: C_1  and  C_15
REMARK    3  A    between atoms: C_1  and  C_29
REMARK    4  A    between atoms: N_14  and  C_17
REMARK    5  A    between atoms: C_17  and  C_18
REMARK    6  A    between atoms: C_18  and  N_19
REMARK    7  A    between atoms: N_19  and  C_21
REMARK    8  A    between atoms: C_26  and  O_27
REMARK    9  A    between atoms: C_29  and  C_30
REMARK                            x       y       z     vdW  Elec       q    Type
REMARK                         _______ _______ _______ _____ _____    ______ ____
ROOT
ATOM      1  C   UNL     1      33.564 -21.631 -18.315  0.00  0.00    +0.151 C 
ENDROOT
BRANCH   1   3
ATOM      2  O   UNL     1      30.820 -23.634 -16.938  0.00  0.00    -0.414 OA
ATOM      3  N   UNL     1      32.368 -22.425 -18.127  0.00  0.00    -0.271 N 
ATOM      4  N   UNL     1      32.549 -22.771 -15.753  0.00  0.00    -0.356 NA
ATOM      5  C   UNL     1      31.963 -22.918 -16.899  0.00  0.00    +0.345 C 
ATOM      6  C   UNL     1      30.654 -23.993 -15.630  0.00  0.00    +0.175 C 
ATOM      7  C   UNL     1      31.713 -23.462 -14.908  0.00  0.00    +0.152 C 
ATOM      8  C   UNL     1      29.625 -24.749 -15.084  0.00  0.00    +0.040 C 
ATOM      9  C   UNL     1      31.774 -23.691 -13.527  0.00  0.00    +0.088 C 
ATOM     10  C   UNL     1      29.699 -24.969 -13.705  0.00  0.00    -0.001 C 
ATOM     11  C   UNL     1      30.752 -24.451 -12.939  0.00  0.00    -0.018 C 
ATOM     12  H   UNL     1      31.813 -22.623 -18.915  0.00  0.00    +0.153 HD
ENDBRANCH   1   3
BRANCH   1  15
ATOM     13  O   UNL     1      32.421 -20.789 -20.277  0.00  0.00    -0.273 OA
ATOM     14  N   UNL     1      34.717 -20.506 -20.119  0.00  0.00    -0.301 N 
ATOM     15  C   UNL     1      33.478 -20.935 -19.666  0.00  0.00    +0.240 C 
ATOM     16  H   UNL     1      35.511 -20.666 -19.559  0.00  0.00    +0.150 HD
BRANCH  14  17
ATOM     17  C   UNL     1      34.879 -19.830 -21.383  0.00  0.00    +0.111 C 
BRANCH  17  18
ATOM     18  C   UNL     1      36.056 -18.867 -21.374  0.00  0.00    +0.109 C 
BRANCH  18  19
ATOM     19  N   UNL     1      36.117 -18.133 -22.616  0.00  0.00    -0.331 N 
ATOM     20  H   UNL     1      36.724 -18.460 -23.320  0.00  0.00    +0.147 HD
BRANCH  19  21
ATOM     21  C   UNL     1      35.370 -16.995 -22.875  0.00  0.00    +0.045 C 
ATOM     22  C   UNL     1      34.991 -16.663 -24.190  0.00  0.00    +0.017 C 
ATOM     23  C   UNL     1      34.971 -16.140 -21.832  0.00  0.00    +0.017 C 
ATOM     24  C   UNL     1      34.241 -15.517 -24.450  0.00  0.00    +0.038 C 
ATOM     25  C   UNL     1      34.220 -14.993 -22.092  0.00  0.00    +0.038 C 
ATOM     26  C   UNL     1      33.856 -14.682 -23.402  0.00  0.00    +0.139 C 
BRANCH  26  27
ATOM     27  O   UNL     1      33.122 -13.564 -23.655  0.00  0.00    -0.471 OA
ATOM     28  C   UNL     1      33.817 -12.318 -23.660  0.00  0.00    +0.252 C 
ENDBRANCH  26  27
ENDBRANCH  19  21
ENDBRANCH  18  19
ENDBRANCH  17  18
ENDBRANCH  14  17
ENDBRANCH   1  15
BRANCH   1  29
ATOM     29  C   UNL     1      34.807 -22.521 -18.262  0.00  0.00    +0.029 C 
BRANCH  29  30
ATOM     30  C   UNL     1      35.655 -22.267 -17.017  0.00  0.00    +0.002 C 
ATOM     31  C   UNL     1      37.099 -21.921 -17.406  0.00  0.00    +0.000 C 
ATOM     32  C   UNL     1      35.620 -23.481 -16.079  0.00  0.00    +0.000 C 
ATOM     33  C   UNL     1      37.980 -21.714 -16.177  0.00  0.00    +0.000 C 
ATOM     34  C   UNL     1      36.503 -23.272 -14.852  0.00  0.00    +0.000 C 
ATOM     35  C   UNL     1      37.935 -22.919 -15.243  0.00  0.00    +0.000 C 
ENDBRANCH  29  30
ENDBRANCH   1  29
TORSDOF 9
ENDMDL
MODEL 6
REMARK VINA RESULT:     -10.2      2.682      8.521
REMARK  Name = 6420159
REMARK  9 active torsions:
REMARK  status: ('A' for Active; 'I' for Inactive)
REMARK    1  A    between atoms: C_1  and  N_3
REMARK    2  A    between atoms: C_1  and  C_15
REMARK    3  A    between atoms: C_1  and  C_29
REMARK    4  A    between atoms: N_14  and  C_17
REMARK    5  A    between atoms: C_17  and  C_18
REMARK    6  A    between atoms: C_18  and  N_19
REMARK    7  A    between atoms: N_19  and  C_21
REMARK    8  A    between atoms: C_26  and  O_27
REMARK    9  A    between atoms: C_29  and  C_30
REMARK                            x       y       z     vdW  Elec       q    Type
REMARK                         _______ _______ _______ _____ _____    ______ ____
ROOT
ATOM      1  C   UNL     1      35.387 -23.857 -15.727  0.00  0.00    +0.151 C 
ENDROOT
BRANCH   1   3
ATOM      2  O   UNL     1      33.565 -22.025 -18.328  0.00  0.00    -0.414 OA
ATOM      3  N   UNL     1      34.371 -23.275 -16.578  0.00  0.00    -0.271 N 
ATOM      4  N   UNL     1      35.820 -22.100 -18.098  0.00  0.00    -0.356 NA
ATOM      5  C   UNL     1      34.654 -22.467 -17.665  0.00  0.00    +0.345 C 
ATOM      6  C   UNL     1      34.115 -21.272 -19.326  0.00  0.00    +0.175 C 
ATOM      7  C   UNL     1      35.495 -21.320 -19.182  0.00  0.00    +0.152 C 
ATOM      8  C   UNL     1      33.449 -20.570 -20.322  0.00  0.00    +0.040 C 
ATOM      9  C   UNL     1      36.296 -20.619 -20.093  0.00  0.00    +0.088 C 
ATOM     10  C   UNL     1      34.262 -19.875 -21.223  0.00  0.00    -0.001 C 
ATOM     11  C   UNL     1      35.658 -19.898 -21.113  0.00  0.00    -0.018 C 
ATOM     12  H   UNL     1      33.427 -23.465 -16.372  0.00  0.00    +0.153 HD
ENDBRANCH   1   3
BRANCH   1  15
ATOM     13  O   UNL     1      35.039 -26.019 -14.693  0.00  0.00    -0.273 OA
ATOM     14  N   UNL     1      33.713 -24.239 -14.023  0.00  0.00    -0.301 N 
ATOM     15  C   UNL     1      34.718 -24.835 -14.771  0.00  0.00    +0.240 C 
ATOM     16  H   UNL     1      33.526 -23.281 -14.154  0.00  0.00    +0.150 HD
BRANCH  14  17
ATOM     17  C   UNL     1      32.934 -24.978 -13.060  0.00  0.00    +0.111 C 
BRANCH  17  18
ATOM     18  C   UNL     1      31.519 -25.247 -13.549  0.00  0.00    +0.109 C 
BRANCH  18  19
ATOM     19  N   UNL     1      30.781 -24.012 -13.662  0.00  0.00    -0.331 N 
ATOM     20  H   UNL     1      30.958 -23.302 -13.002  0.00  0.00    +0.147 HD
BRANCH  19  21
ATOM     21  C   UNL     1      29.837 -23.767 -14.646  0.00  0.00    +0.045 C 
ATOM     22  C   UNL     1      29.428 -24.788 -15.525  0.00  0.00    +0.017 C 
ATOM     23  C   UNL     1      29.262 -22.491 -14.795  0.00  0.00    +0.017 C 
ATOM     24  C   UNL     1      28.479 -24.541 -16.517  0.00  0.00    +0.038 C 
ATOM     25  C   UNL     1      28.313 -22.244 -15.786  0.00  0.00    +0.038 C 
ATOM     26  C   UNL     1      27.922 -23.269 -16.648  0.00  0.00    +0.139 C 
BRANCH  26  27
ATOM     27  O   UNL     1      26.994 -23.028 -17.614  0.00  0.00    -0.471 OA
ATOM     28  C   UNL     1      26.406 -21.728 -17.642  0.00  0.00    +0.252 C 
ENDBRANCH  26  27
ENDBRANCH  19  21
ENDBRANCH  18  19
ENDBRANCH  17  18
ENDBRANCH  14  17
ENDBRANCH   1  15
BRANCH   1  29
ATOM     29  C   UNL     1      36.110 -22.764 -14.938  0.00  0.00    +0.029 C 
BRANCH  29  30
ATOM     30  C   UNL     1      37.339 -23.291 -14.200  0.00  0.00    +0.002 C 
ATOM     31  C   UNL     1      37.956 -24.477 -14.953  0.00  0.00    +0.000 C 
ATOM     32  C   UNL     1      36.981 -23.685 -12.761  0.00  0.00    +0.000 C 
ATOM     33  C   UNL     1      39.156 -25.056 -14.207  0.00  0.00    +0.000 C 
ATOM     34  C   UNL     1      38.181 -24.266 -12.019  0.00  0.00    +0.000 C 
ATOM     35  C   UNL     1      38.797 -25.439 -12.775  0.00  0.00    +0.000 C 
ENDBRANCH  29  30
ENDBRANCH   1  29
TORSDOF 9
ENDMDL
MODEL 7
REMARK VINA RESULT:     -10.2      1.444      5.175
REMARK  Name = 6420159
REMARK  9 active torsions:
REMARK  status: ('A' for Active; 'I' for Inactive)
REMARK    1  A    between atoms: C_1  and  N_3
REMARK    2  A    between atoms: C_1  and  C_15
REMARK    3  A    between atoms: C_1  and  C_29
REMARK    4  A    between atoms: N_14  and  C_17
REMARK    5  A    between atoms: C_17  and  C_18
REMARK    6  A    between atoms: C_18  and  N_19
REMARK    7  A    between atoms: N_19  and  C_21
REMARK    8  A    between atoms: C_26  and  O_27
REMARK    9  A    between atoms: C_29  and  C_30
REMARK                            x       y       z     vdW  Elec       q    Type
REMARK                         _______ _______ _______ _____ _____    ______ ____
ROOT
ATOM      1  C   UNL     1      35.429 -22.466 -15.375  0.00  0.00    +0.151 C 
ENDROOT
BRANCH   1   3
ATOM      2  O   UNL     1      32.671 -24.824 -14.848  0.00  0.00    -0.414 OA
ATOM      3  N   UNL     1      34.620 -23.641 -15.129  0.00  0.00    -0.271 N 
ATOM      4  N   UNL     1      32.452 -22.606 -15.260  0.00  0.00    -0.356 NA
ATOM      5  C   UNL     1      33.237 -23.623 -15.092  0.00  0.00    +0.345 C 
ATOM      6  C   UNL     1      31.338 -24.529 -14.865  0.00  0.00    +0.175 C 
ATOM      7  C   UNL     1      31.207 -23.171 -15.117  0.00  0.00    +0.152 C 
ATOM      8  C   UNL     1      30.276 -25.403 -14.668  0.00  0.00    +0.040 C 
ATOM      9  C   UNL     1      29.923 -22.615 -15.185  0.00  0.00    +0.088 C 
ATOM     10  C   UNL     1      29.000 -24.832 -14.739  0.00  0.00    -0.001 C 
ATOM     11  C   UNL     1      28.825 -23.466 -14.992  0.00  0.00    -0.018 C 
ATOM     12  H   UNL     1      35.078 -24.499 -14.980  0.00  0.00    +0.153 HD
ENDBRANCH   1   3
BRANCH   1  15
ATOM     13  O   UNL     1      36.918 -22.320 -17.279  0.00  0.00    -0.273 OA
ATOM     14  N   UNL     1      34.635 -22.461 -17.659  0.00  0.00    -0.301 N 
ATOM     15  C   UNL     1      35.767 -22.411 -16.859  0.00  0.00    +0.240 C 
ATOM     16  H   UNL     1      33.752 -22.535 -17.232  0.00  0.00    +0.150 HD
BRANCH  14  17
ATOM     17  C   UNL     1      34.713 -22.411 -19.100  0.00  0.00    +0.111 C 
BRANCH  17  18
ATOM     18  C   UNL     1      34.240 -21.077 -19.655  0.00  0.00    +0.109 C 
BRANCH  18  19
ATOM     19  N   UNL     1      35.357 -20.319 -20.166  0.00  0.00    -0.331 N 
ATOM     20  H   UNL     1      36.243 -20.469 -19.764  0.00  0.00    +0.147 HD
BRANCH  19  21
ATOM     21  C   UNL     1      35.253 -19.391 -21.191  0.00  0.00    +0.045 C 
ATOM     22  C   UNL     1      35.440 -18.019 -20.943  0.00  0.00    +0.017 C 
ATOM     23  C   UNL     1      34.957 -19.797 -22.505  0.00  0.00    +0.017 C 
ATOM     24  C   UNL     1      35.334 -17.085 -21.974  0.00  0.00    +0.038 C 
ATOM     25  C   UNL     1      34.851 -18.863 -23.536  0.00  0.00    +0.038 C 
ATOM     26  C   UNL     1      35.039 -17.507 -23.270  0.00  0.00    +0.139 C 
BRANCH  26  27
ATOM     27  O   UNL     1      34.937 -16.597 -24.277  0.00  0.00    -0.471 OA
ATOM     28  C   UNL     1      34.197 -15.408 -24.005  0.00  0.00    +0.252 C 
ENDBRANCH  26  27
ENDBRANCH  19  21
ENDBRANCH  18  19
ENDBRANCH  17  18
ENDBRANCH  14  17
ENDBRANCH   1  15
BRANCH   1  29
ATOM     29  C   UNL     1      36.713 -22.521 -14.546  0.00  0.00    +0.029 C 
BRANCH  29  30
ATOM     30  C   UNL     1      36.880 -23.851 -13.814  0.00  0.00    +0.002 C 
ATOM     31  C   UNL     1      37.340 -23.621 -12.368  0.00  0.00    +0.000 C 
ATOM     32  C   UNL     1      37.864 -24.762 -14.560  0.00  0.00    +0.000 C 
ATOM     33  C   UNL     1      37.564 -24.939 -11.631  0.00  0.00    +0.000 C 
ATOM     34  C   UNL     1      38.088 -26.077 -13.820  0.00  0.00    +0.000 C 
ATOM     35  C   UNL     1      38.536 -25.844 -12.380  0.00  0.00    +0.000 C 
ENDBRANCH  29  30
ENDBRANCH   1  29
TORSDOF 9
ENDMDL
MODEL 8
REMARK VINA RESULT:     -10.1      7.974     16.106
REMARK  Name = 6420159
REMARK  9 active torsions:
REMARK  status: ('A' for Active; 'I' for Inactive)
REMARK    1  A    between atoms: C_1  and  N_3
REMARK    2  A    between atoms: C_1  and  C_15
REMARK    3  A    between atoms: C_1  and  C_29
REMARK    4  A    between atoms: N_14  and  C_17
REMARK    5  A    between atoms: C_17  and  C_18
REMARK    6  A    between atoms: C_18  and  N_19
REMARK    7  A    between atoms: N_19  and  C_21
REMARK    8  A    between atoms: C_26  and  O_27
REMARK    9  A    between atoms: C_29  and  C_30
REMARK                            x       y       z     vdW  Elec       q    Type
REMARK                         _______ _______ _______ _____ _____    ______ ____
ROOT
ATOM      1  C   UNL     1      33.460  -8.367 -23.107  0.00  0.00    +0.151 C 
ENDROOT
BRANCH   1   3
ATOM      2  O   UNL     1      33.213  -5.174 -24.893  0.00  0.00    -0.414 OA
ATOM      3  N   UNL     1      33.609  -7.269 -24.040  0.00  0.00    -0.271 N 
ATOM      4  N   UNL     1      32.092  -5.719 -22.999  0.00  0.00    -0.356 NA
ATOM      5  C   UNL     1      32.935  -6.066 -23.919  0.00  0.00    +0.345 C 
ATOM      6  C   UNL     1      32.437  -4.106 -24.541  0.00  0.00    +0.175 C 
ATOM      7  C   UNL     1      31.753  -4.443 -23.382  0.00  0.00    +0.152 C 
ATOM      8  C   UNL     1      32.326  -2.888 -25.199  0.00  0.00    +0.040 C 
ATOM      9  C   UNL     1      30.881  -3.505 -22.813  0.00  0.00    +0.088 C 
ATOM     10  C   UNL     1      31.452  -1.963 -24.619  0.00  0.00    -0.001 C 
ATOM     11  C   UNL     1      30.742  -2.263 -23.449  0.00  0.00    -0.018 C 
ATOM     12  H   UNL     1      34.221  -7.385 -24.801  0.00  0.00    +0.153 HD
ENDBRANCH   1   3
BRANCH   1  15
ATOM     13  O   UNL     1      35.554  -9.369 -23.798  0.00  0.00    -0.273 OA
ATOM     14  N   UNL     1      33.667 -10.709 -23.673  0.00  0.00    -0.301 N 
ATOM     15  C   UNL     1      34.357  -9.512 -23.558  0.00  0.00    +0.240 C 
ATOM     16  H   UNL     1      32.706 -10.728 -23.458  0.00  0.00    +0.150 HD
BRANCH  14  17
ATOM     17  C   UNL     1      34.312 -11.928 -24.097  0.00  0.00    +0.111 C 
BRANCH  17  18
ATOM     18  C   UNL     1      34.167 -13.042 -23.072  0.00  0.00    +0.109 C 
BRANCH  18  19
ATOM     19  N   UNL     1      34.316 -14.331 -23.705  0.00  0.00    -0.331 N 
ATOM     20  H   UNL     1      34.201 -14.386 -24.681  0.00  0.00    +0.147 HD
BRANCH  19  21
ATOM     21  C   UNL     1      34.610 -15.497 -23.016  0.00  0.00    +0.045 C 
ATOM     22  C   UNL     1      34.990 -16.665 -23.703  0.00  0.00    +0.017 C 
ATOM     23  C   UNL     1      34.535 -15.545 -21.612  0.00  0.00    +0.017 C 
ATOM     24  C   UNL     1      35.285 -17.839 -23.009  0.00  0.00    +0.038 C 
ATOM     25  C   UNL     1      34.830 -16.719 -20.918  0.00  0.00    +0.038 C 
ATOM     26  C   UNL     1      35.205 -17.866 -21.617  0.00  0.00    +0.139 C 
BRANCH  26  27
ATOM     27  O   UNL     1      35.494 -19.011 -20.940  0.00  0.00    -0.471 OA
ATOM     28  C   UNL     1      34.412 -19.905 -20.683  0.00  0.00    +0.252 C 
ENDBRANCH  26  27
ENDBRANCH  19  21
ENDBRANCH  18  19
ENDBRANCH  17  18
ENDBRANCH  14  17
ENDBRANCH   1  15
BRANCH   1  29
ATOM     29  C   UNL     1      32.003  -8.830 -23.058  0.00  0.00    +0.029 C 
BRANCH  29  30
ATOM     30  C   UNL     1      31.531  -9.124 -21.636  0.00  0.00    +0.002 C 
ATOM     31  C   UNL     1      32.497  -8.519 -20.608  0.00  0.00    +0.000 C 
ATOM     32  C   UNL     1      31.378 -10.635 -21.416  0.00  0.00    +0.000 C 
ATOM     33  C   UNL     1      32.074  -8.845 -19.177  0.00  0.00    +0.000 C 
ATOM     34  C   UNL     1      30.959 -10.958 -19.985  0.00  0.00    +0.000 C 
ATOM     35  C   UNL     1      31.916 -10.347 -18.966  0.00  0.00    +0.000 C 
ENDBRANCH  29  30
ENDBRANCH   1  29
TORSDOF 9
ENDMDL
MODEL 9
REMARK VINA RESULT:      -9.8      4.860     13.188
REMARK  Name = 6420159
REMARK  9 active torsions:
REMARK  status: ('A' for Active; 'I' for Inactive)
REMARK    1  A    between atoms: C_1  and  N_3
REMARK    2  A    between atoms: C_1  and  C_15
REMARK    3  A    between atoms: C_1  and  C_29
REMARK    4  A    between atoms: N_14  and  C_17
REMARK    5  A    between atoms: C_17  and  C_18
REMARK    6  A    between atoms: C_18  and  N_19
REMARK    7  A    between atoms: N_19  and  C_21
REMARK    8  A    between atoms: C_26  and  O_27
REMARK    9  A    between atoms: C_29  and  C_30
REMARK                            x       y       z     vdW  Elec       q    Type
REMARK                         _______ _______ _______ _____ _____    ______ ____
ROOT
ATOM      1  C   UNL     1      33.851 -13.182 -22.915  0.00  0.00    +0.151 C 
ENDROOT
BRANCH   1   3
ATOM      2  O   UNL     1      35.146 -10.124 -24.468  0.00  0.00    -0.414 OA
ATOM      3  N   UNL     1      34.556 -12.219 -23.733  0.00  0.00    -0.271 N 
ATOM      4  N   UNL     1      33.631 -10.211 -22.784  0.00  0.00    -0.356 NA
ATOM      5  C   UNL     1      34.398 -10.850 -23.610  0.00  0.00    +0.345 C 
ATOM      6  C   UNL     1      34.808  -8.842 -24.141  0.00  0.00    +0.175 C 
ATOM      7  C   UNL     1      33.880  -8.899 -23.110  0.00  0.00    +0.152 C 
ATOM      8  C   UNL     1      35.283  -7.669 -24.712  0.00  0.00    +0.040 C 
ATOM      9  C   UNL     1      33.371  -7.701 -22.590  0.00  0.00    +0.088 C 
ATOM     10  C   UNL     1      34.766  -6.483 -24.183  0.00  0.00    -0.001 C 
ATOM     11  C   UNL     1      33.828  -6.496 -23.142  0.00  0.00    -0.018 C 
ATOM     12  H   UNL     1      35.181 -12.556 -24.414  0.00  0.00    +0.153 HD
ENDBRANCH   1   3
BRANCH   1  15
ATOM     13  O   UNL     1      34.034 -14.971 -24.538  0.00  0.00    -0.273 OA
ATOM     14  N   UNL     1      34.767 -15.354 -22.372  0.00  0.00    -0.301 N 
ATOM     15  C   UNL     1      34.219 -14.583 -23.386  0.00  0.00    +0.240 C 
ATOM     16  H   UNL     1      34.878 -14.957 -21.478  0.00  0.00    +0.150 HD
BRANCH  14  17
ATOM     17  C   UNL     1      35.180 -16.720 -22.585  0.00  0.00    +0.111 C 
BRANCH  17  18
ATOM     18  C   UNL     1      35.333 -17.485 -21.280  0.00  0.00    +0.109 C 
BRANCH  18  19
ATOM     19  N   UNL     1      35.506 -18.895 -21.540  0.00  0.00    -0.331 N 
ATOM     20  H   UNL     1      36.035 -19.161 -22.328  0.00  0.00    +0.147 HD
BRANCH  19  21
ATOM     21  C   UNL     1      34.971 -19.896 -20.745  0.00  0.00    +0.045 C 
ATOM     22  C   UNL     1      35.804 -20.827 -20.097  0.00  0.00    +0.017 C 
ATOM     23  C   UNL     1      33.580 -20.009 -20.565  0.00  0.00    +0.017 C 
ATOM     24  C   UNL     1      35.265 -21.835 -19.298  0.00  0.00    +0.038 C 
ATOM     25  C   UNL     1      33.041 -21.018 -19.766  0.00  0.00    +0.038 C 
ATOM     26  C   UNL     1      33.884 -21.931 -19.133  0.00  0.00    +0.139 C 
BRANCH  26  27
ATOM     27  O   UNL     1      33.358 -22.914 -18.352  0.00  0.00    -0.471 OA
ATOM     28  C   UNL     1      33.891 -23.055 -17.037  0.00  0.00    +0.252 C 
ENDBRANCH  26  27
ENDBRANCH  19  21
ENDBRANCH  18  19
ENDBRANCH  17  18
ENDBRANCH  14  17
ENDBRANCH   1  15
BRANCH   1  29
ATOM     29  C   UNL     1      32.340 -12.972 -23.027  0.00  0.00    +0.029 C 
BRANCH  29  30
ATOM     30  C   UNL     1      31.682 -12.724 -21.671  0.00  0.00    +0.002 C 
ATOM     31  C   UNL     1      31.079 -11.314 -21.610  0.00  0.00    +0.000 C 
ATOM     32  C   UNL     1      32.689 -12.936 -20.532  0.00  0.00    +0.000 C 
ATOM     33  C   UNL     1      30.461 -11.024 -20.244  0.00  0.00    +0.000 C 
ATOM     34  C   UNL     1      32.070 -12.643 -19.169  0.00  0.00    +0.000 C 
ATOM     35  C   UNL     1      31.463 -11.244 -19.115  0.00  0.00    +0.000 C 
ENDBRANCH  29  30
ENDBRANCH   1  29
TORSDOF 9
ENDMDL
