MODEL 1
REMARK VINA RESULT:     -11.9      0.000      0.000
REMARK  Name = 24755471
REMARK  13 active torsions:
REMARK  status: ('A' for Active; 'I' for Inactive)
REMARK    1  A    between atoms: C_1  and  S_11
REMARK    2  A    between atoms: C_9  and  O_27
REMARK    3  A    between atoms: S_11  and  N_14
REMARK    4  A    between atoms: N_14  and  C_16
REMARK    5  A    between atoms: C_16  and  C_18
REMARK    6  A    between atoms: C_16  and  C_21
REMARK    7  A    between atoms: C_18  and  O_19
REMARK    8  A    between atoms: C_21  and  C_22
REMARK    9  A    between atoms: C_22  and  C_24
REMARK   10  A    between atoms: C_24  and  O_25
REMARK   11  A    between atoms: O_27  and  C_28
REMARK   12  A    between atoms: C_28  and  C_29
REMARK   13  A    between atoms: C_34  and  C_36
REMARK                            x       y       z     vdW  Elec       q    Type
REMARK                         _______ _______ _______ _____ _____    ______ ____
ROOT
ATOM      1  C   UNL     1      36.177 -22.916 -16.299  0.00  0.00    +0.122 C 
ATOM      2  C   UNL     1      34.740 -22.075 -18.072  0.00  0.00    +0.002 C 
ATOM      3  C   UNL     1      34.916 -22.805 -16.886  0.00  0.00    +0.020 C 
ATOM      4  C   UNL     1      35.858 -21.447 -18.671  0.00  0.00    +0.003 C 
ATOM      5  C   UNL     1      37.276 -22.299 -16.888  0.00  0.00    +0.020 C 
ATOM      6  C   UNL     1      37.120 -21.569 -18.067  0.00  0.00    +0.001 C 
ATOM      7  C   UNL     1      35.681 -20.716 -19.858  0.00  0.00    +0.037 C 
ATOM      8  C   UNL     1      33.477 -21.953 -18.678  0.00  0.00    +0.003 C 
ATOM      9  C   UNL     1      34.420 -20.606 -20.444  0.00  0.00    +0.139 C 
ATOM     10  C   UNL     1      33.321 -21.223 -19.856  0.00  0.00    +0.037 C 
ENDROOT
BRANCH   1  11
ATOM     11  S   UNL     1      36.378 -23.841 -14.805  0.00  0.00    +0.061 S 
ATOM     12  O   UNL     1      35.918 -23.016 -13.705  0.00  0.00    -0.153 OA
ATOM     13  O   UNL     1      35.790 -25.146 -15.035  0.00  0.00    -0.153 OA
BRANCH  11  14
ATOM     14  N   UNL     1      38.068 -24.005 -14.720  0.00  0.00    -0.170 NA
ATOM     15  H   UNL     1      38.416 -23.194 -14.211  0.00  0.00    +0.149 HD
BRANCH  14  16
ATOM     16  C   UNL     1      38.662 -25.200 -14.081  0.00  0.00    +0.174 C 
BRANCH  16  18
ATOM     17  O   UNL     1      41.078 -24.968 -13.918  0.00  0.00    -0.249 OA
ATOM     18  C   UNL     1      40.091 -25.321 -14.553  0.00  0.00    +0.330 C 
BRANCH  18  19
ATOM     19  O   UNL     1      40.178 -25.895 -15.781  0.00  0.00    -0.479 OA
ATOM     20  H   UNL     1      41.006 -25.952 -16.214  0.00  0.00    +0.295 HD
ENDBRANCH  18  19
ENDBRANCH  16  18
BRANCH  16  21
ATOM     21  C   UNL     1      38.496 -25.130 -12.558  0.00  0.00    +0.040 C 
BRANCH  21  22
ATOM     22  C   UNL     1      37.328 -25.922 -11.963  0.00  0.00    +0.111 C 
BRANCH  22  24
ATOM     23  O   UNL     1      36.682 -24.403 -10.200  0.00  0.00    -0.250 OA
ATOM     24  C   UNL     1      36.362 -25.080 -11.168  0.00  0.00    +0.314 C 
BRANCH  24  25
ATOM     25  O   UNL     1      35.089 -25.165 -11.630  0.00  0.00    -0.480 OA
ATOM     26  H   UNL     1      34.712 -26.004 -11.812  0.00  0.00    +0.295 HD
ENDBRANCH  24  25
ENDBRANCH  22  24
ENDBRANCH  21  22
ENDBRANCH  16  21
ENDBRANCH  14  16
ENDBRANCH  11  14
ENDBRANCH   1  11
BRANCH   9  27
ATOM     27  O   UNL     1      34.266 -19.892 -21.593  0.00  0.00    -0.471 OA
BRANCH  27  28
ATOM     28  C   UNL     1      35.428 -19.261 -22.127  0.00  0.00    +0.232 C 
BRANCH  28  29
ATOM     29  C   UNL     1      35.124 -17.815 -22.389  0.00  0.00    +0.021 C 
ATOM     30  C   UNL     1      35.038 -17.347 -23.700  0.00  0.00    -0.000 C 
ATOM     31  C   UNL     1      34.929 -16.939 -21.321  0.00  0.00    -0.000 C 
ATOM     32  C   UNL     1      34.757 -16.003 -23.943  0.00  0.00    +0.010 C 
ATOM     33  C   UNL     1      34.648 -15.595 -21.564  0.00  0.00    +0.010 C 
ATOM     34  C   UNL     1      34.562 -15.127 -22.875  0.00  0.00    +0.068 C 
BRANCH  34  36
ATOM     35  N   UNL     1      34.038 -12.631 -23.327  0.00  0.00    -0.191 NA
ATOM     36  C   UNL     1      34.272 -13.750 -23.125  0.00  0.00    +0.100 C 
ENDBRANCH  34  36
ENDBRANCH  28  29
ENDBRANCH  27  28
ENDBRANCH   9  27
TORSDOF 13
ENDMDL
MODEL 2
REMARK VINA RESULT:     -11.7      1.524      2.842
REMARK  Name = 24755471
REMARK  13 active torsions:
REMARK  status: ('A' for Active; 'I' for Inactive)
REMARK    1  A    between atoms: C_1  and  S_11
REMARK    2  A    between atoms: C_9  and  O_27
REMARK    3  A    between atoms: S_11  and  N_14
REMARK    4  A    between atoms: N_14  and  C_16
REMARK    5  A    between atoms: C_16  and  C_18
REMARK    6  A    between atoms: C_16  and  C_21
REMARK    7  A    between atoms: C_18  and  O_19
REMARK    8  A    between atoms: C_21  and  C_22
REMARK    9  A    between atoms: C_22  and  C_24
REMARK   10  A    between atoms: C_24  and  O_25
REMARK   11  A    between atoms: O_27  and  C_28
REMARK   12  A    between atoms: C_28  and  C_29
REMARK   13  A    between atoms: C_34  and  C_36
REMARK                            x       y       z     vdW  Elec       q    Type
REMARK                         _______ _______ _______ _____ _____    ______ ____
ROOT
ATOM      1  C   UNL     1      34.484 -23.045 -16.411  0.00  0.00    +0.122 C 
ATOM      2  C   UNL     1      35.278 -21.819 -18.356  0.00  0.00    +0.002 C 
ATOM      3  C   UNL     1      35.531 -22.496 -17.153  0.00  0.00    +0.020 C 
ATOM      4  C   UNL     1      33.944 -21.696 -18.815  0.00  0.00    +0.003 C 
ATOM      5  C   UNL     1      33.173 -22.924 -16.861  0.00  0.00    +0.020 C 
ATOM      6  C   UNL     1      32.903 -22.254 -18.055  0.00  0.00    +0.001 C 
ATOM      7  C   UNL     1      33.691 -21.018 -20.018  0.00  0.00    +0.037 C 
ATOM      8  C   UNL     1      36.319 -21.260 -19.116  0.00  0.00    +0.003 C 
ATOM      9  C   UNL     1      34.738 -20.470 -20.760  0.00  0.00    +0.139 C 
ATOM     10  C   UNL     1      36.049 -20.590 -20.310  0.00  0.00    +0.037 C 
ENDROOT
BRANCH   1  11
ATOM     11  S   UNL     1      34.824 -23.895 -14.898  0.00  0.00    +0.061 S 
ATOM     12  O   UNL     1      35.401 -22.941 -13.971  0.00  0.00    -0.153 OA
ATOM     13  O   UNL     1      33.622 -24.623 -14.543  0.00  0.00    -0.153 OA
BRANCH  11  14
ATOM     14  N   UNL     1      36.018 -25.004 -15.382  0.00  0.00    -0.170 NA
ATOM     15  H   UNL     1      36.543 -24.561 -16.135  0.00  0.00    +0.149 HD
BRANCH  14  16
ATOM     16  C   UNL     1      37.009 -25.497 -14.400  0.00  0.00    +0.174 C 
BRANCH  16  18
ATOM     17  O   UNL     1      37.135 -27.645 -15.533  0.00  0.00    -0.249 OA
ATOM     18  C   UNL     1      37.051 -27.003 -14.493  0.00  0.00    +0.330 C 
BRANCH  18  19
ATOM     19  O   UNL     1      37.006 -27.593 -13.270  0.00  0.00    -0.479 OA
ATOM     20  H   UNL     1      36.271 -28.123 -13.033  0.00  0.00    +0.295 HD
ENDBRANCH  18  19
ENDBRANCH  16  18
BRANCH  16  21
ATOM     21  C   UNL     1      38.361 -24.806 -14.613  0.00  0.00    +0.040 C 
BRANCH  21  22
ATOM     22  C   UNL     1      39.503 -25.244 -13.690  0.00  0.00    +0.111 C 
BRANCH  22  24
ATOM     23  O   UNL     1      41.299 -26.857 -13.762  0.00  0.00    -0.250 OA
ATOM     24  C   UNL     1      40.530 -26.119 -14.363  0.00  0.00    +0.314 C 
BRANCH  24  25
ATOM     25  O   UNL     1      40.526 -25.989 -15.714  0.00  0.00    -0.480 OA
ATOM     26  H   UNL     1      40.450 -25.140 -16.102  0.00  0.00    +0.295 HD
ENDBRANCH  24  25
ENDBRANCH  22  24
ENDBRANCH  21  22
ENDBRANCH  16  21
ENDBRANCH  14  16
ENDBRANCH  11  14
ENDBRANCH   1  11
BRANCH   9  27
ATOM     27  O   UNL     1      34.476 -19.817 -21.925  0.00  0.00    -0.471 OA
BRANCH  27  28
ATOM     28  C   UNL     1      35.555 -19.103 -22.526  0.00  0.00    +0.232 C 
BRANCH  28  29
ATOM     29  C   UNL     1      35.164 -17.663 -22.682  0.00  0.00    +0.021 C 
ATOM     30  C   UNL     1      34.956 -17.131 -23.954  0.00  0.00    -0.000 C 
ATOM     31  C   UNL     1      35.009 -16.856 -21.555  0.00  0.00    -0.000 C 
ATOM     32  C   UNL     1      34.593 -15.793 -24.099  0.00  0.00    +0.010 C 
ATOM     33  C   UNL     1      34.646 -15.518 -21.699  0.00  0.00    +0.010 C 
ATOM     34  C   UNL     1      34.438 -14.986 -22.972  0.00  0.00    +0.068 C 
BRANCH  34  36
ATOM     35  N   UNL     1      33.762 -12.500 -23.242  0.00  0.00    -0.191 NA
ATOM     36  C   UNL     1      34.065 -13.614 -23.121  0.00  0.00    +0.100 C 
ENDBRANCH  34  36
ENDBRANCH  28  29
ENDBRANCH  27  28
ENDBRANCH   9  27
TORSDOF 13
ENDMDL
MODEL 3
REMARK VINA RESULT:     -11.6      1.394      2.225
REMARK  Name = 24755471
REMARK  13 active torsions:
REMARK  status: ('A' for Active; 'I' for Inactive)
REMARK    1  A    between atoms: C_1  and  S_11
REMARK    2  A    between atoms: C_9  and  O_27
REMARK    3  A    between atoms: S_11  and  N_14
REMARK    4  A    between atoms: N_14  and  C_16
REMARK    5  A    between atoms: C_16  and  C_18
REMARK    6  A    between atoms: C_16  and  C_21
REMARK    7  A    between atoms: C_18  and  O_19
REMARK    8  A    between atoms: C_21  and  C_22
REMARK    9  A    between atoms: C_22  and  C_24
REMARK   10  A    between atoms: C_24  and  O_25
REMARK   11  A    between atoms: O_27  and  C_28
REMARK   12  A    between atoms: C_28  and  C_29
REMARK   13  A    between atoms: C_34  and  C_36
REMARK                            x       y       z     vdW  Elec       q    Type
REMARK                         _______ _______ _______ _____ _____    ______ ____
ROOT
ATOM      1  C   UNL     1      34.528 -23.125 -16.352  0.00  0.00    +0.122 C 
ATOM      2  C   UNL     1      35.295 -21.876 -18.295  0.00  0.00    +0.002 C 
ATOM      3  C   UNL     1      35.565 -22.575 -17.107  0.00  0.00    +0.020 C 
ATOM      4  C   UNL     1      33.954 -21.733 -18.723  0.00  0.00    +0.003 C 
ATOM      5  C   UNL     1      33.210 -22.983 -16.773  0.00  0.00    +0.020 C 
ATOM      6  C   UNL     1      32.922 -22.292 -17.951  0.00  0.00    +0.001 C 
ATOM      7  C   UNL     1      33.683 -21.034 -19.911  0.00  0.00    +0.037 C 
ATOM      8  C   UNL     1      36.326 -21.316 -19.067  0.00  0.00    +0.003 C 
ATOM      9  C   UNL     1      34.720 -20.484 -20.665  0.00  0.00    +0.139 C 
ATOM     10  C   UNL     1      36.039 -20.625 -20.245  0.00  0.00    +0.037 C 
ENDROOT
BRANCH   1  11
ATOM     11  S   UNL     1      34.891 -24.001 -14.860  0.00  0.00    +0.061 S 
ATOM     12  O   UNL     1      35.358 -23.039 -13.880  0.00  0.00    -0.153 OA
ATOM     13  O   UNL     1      33.743 -24.838 -14.572  0.00  0.00    -0.153 OA
BRANCH  11  14
ATOM     14  N   UNL     1      36.187 -24.990 -15.342  0.00  0.00    -0.170 NA
ATOM     15  H   UNL     1      36.804 -24.410 -15.909  0.00  0.00    +0.149 HD
BRANCH  14  16
ATOM     16  C   UNL     1      37.033 -25.647 -14.322  0.00  0.00    +0.174 C 
BRANCH  16  18
ATOM     17  O   UNL     1      38.305 -27.720 -14.357  0.00  0.00    -0.249 OA
ATOM     18  C   UNL     1      37.461 -26.990 -14.864  0.00  0.00    +0.330 C 
BRANCH  18  19
ATOM     19  O   UNL     1      36.783 -27.327 -15.991  0.00  0.00    -0.479 OA
ATOM     20  H   UNL     1      35.903 -27.032 -16.114  0.00  0.00    +0.295 HD
ENDBRANCH  18  19
ENDBRANCH  16  18
BRANCH  16  21
ATOM     21  C   UNL     1      38.188 -24.726 -13.912  0.00  0.00    +0.040 C 
BRANCH  21  22
ATOM     22  C   UNL     1      38.775 -24.950 -12.515  0.00  0.00    +0.111 C 
BRANCH  22  24
ATOM     23  O   UNL     1      38.485 -22.898 -11.275  0.00  0.00    -0.250 OA
ATOM     24  C   UNL     1      38.172 -24.068 -11.451  0.00  0.00    +0.314 C 
BRANCH  24  25
ATOM     25  O   UNL     1      37.251 -24.715 -10.692  0.00  0.00    -0.480 OA
ATOM     26  H   UNL     1      36.399 -24.343 -10.573  0.00  0.00    +0.295 HD
ENDBRANCH  24  25
ENDBRANCH  22  24
ENDBRANCH  21  22
ENDBRANCH  16  21
ENDBRANCH  14  16
ENDBRANCH  11  14
ENDBRANCH   1  11
BRANCH   9  27
ATOM     27  O   UNL     1      34.441 -19.811 -21.815  0.00  0.00    -0.471 OA
BRANCH  27  28
ATOM     28  C   UNL     1      35.522 -19.126 -22.445  0.00  0.00    +0.232 C 
BRANCH  28  29
ATOM     29  C   UNL     1      35.151 -17.684 -22.623  0.00  0.00    +0.021 C 
ATOM     30  C   UNL     1      35.020 -16.855 -21.509  0.00  0.00    -0.000 C 
ATOM     31  C   UNL     1      34.937 -17.171 -23.903  0.00  0.00    -0.000 C 
ATOM     32  C   UNL     1      34.674 -15.514 -21.674  0.00  0.00    +0.010 C 
ATOM     33  C   UNL     1      34.591 -15.830 -24.068  0.00  0.00    +0.010 C 
ATOM     34  C   UNL     1      34.460 -15.002 -22.954  0.00  0.00    +0.068 C 
BRANCH  34  36
ATOM     35  N   UNL     1      33.819 -12.511 -23.259  0.00  0.00    -0.191 NA
ATOM     36  C   UNL     1      34.106 -13.627 -23.123  0.00  0.00    +0.100 C 
ENDBRANCH  34  36
ENDBRANCH  28  29
ENDBRANCH  27  28
ENDBRANCH   9  27
TORSDOF 13
ENDMDL
MODEL 4
REMARK VINA RESULT:     -11.5      1.005      3.000
REMARK  Name = 24755471
REMARK  13 active torsions:
REMARK  status: ('A' for Active; 'I' for Inactive)
REMARK    1  A    between atoms: C_1  and  S_11
REMARK    2  A    between atoms: C_9  and  O_27
REMARK    3  A    between atoms: S_11  and  N_14
REMARK    4  A    between atoms: N_14  and  C_16
REMARK    5  A    between atoms: C_16  and  C_18
REMARK    6  A    between atoms: C_16  and  C_21
REMARK    7  A    between atoms: C_18  and  O_19
REMARK    8  A    between atoms: C_21  and  C_22
REMARK    9  A    between atoms: C_22  and  C_24
REMARK   10  A    between atoms: C_24  and  O_25
REMARK   11  A    between atoms: O_27  and  C_28
REMARK   12  A    between atoms: C_28  and  C_29
REMARK   13  A    between atoms: C_34  and  C_36
REMARK                            x       y       z     vdW  Elec       q    Type
REMARK                         _______ _______ _______ _____ _____    ______ ____
ROOT
ATOM      1  C   UNL     1      34.705 -23.479 -15.967  0.00  0.00    +0.122 C 
ATOM      2  C   UNL     1      35.390 -22.143 -17.882  0.00  0.00    +0.002 C 
ATOM      3  C   UNL     1      35.707 -22.861 -16.717  0.00  0.00    +0.020 C 
ATOM      4  C   UNL     1      34.039 -22.051 -18.293  0.00  0.00    +0.003 C 
ATOM      5  C   UNL     1      33.377 -23.388 -16.371  0.00  0.00    +0.020 C 
ATOM      6  C   UNL     1      33.044 -22.679 -17.526  0.00  0.00    +0.001 C 
ATOM      7  C   UNL     1      33.723 -21.334 -19.458  0.00  0.00    +0.037 C 
ATOM      8  C   UNL     1      36.386 -21.514 -18.649  0.00  0.00    +0.003 C 
ATOM      9  C   UNL     1      34.724 -20.716 -20.207  0.00  0.00    +0.139 C 
ATOM     10  C   UNL     1      36.053 -20.806 -19.804  0.00  0.00    +0.037 C 
ENDROOT
BRANCH   1  11
ATOM     11  S   UNL     1      35.125 -24.377 -14.503  0.00  0.00    +0.061 S 
ATOM     12  O   UNL     1      33.955 -24.408 -13.647  0.00  0.00    -0.153 OA
ATOM     13  O   UNL     1      35.749 -25.614 -14.932  0.00  0.00    -0.153 OA
BRANCH  11  14
ATOM     14  N   UNL     1      36.309 -23.375 -13.806  0.00  0.00    -0.170 NA
ATOM     15  H   UNL     1      35.826 -22.760 -13.153  0.00  0.00    +0.149 HD
BRANCH  14  16
ATOM     16  C   UNL     1      37.443 -23.976 -13.071  0.00  0.00    +0.174 C 
BRANCH  16  18
ATOM     17  O   UNL     1      37.098 -24.208 -10.674  0.00  0.00    -0.249 OA
ATOM     18  C   UNL     1      36.901 -24.613 -11.814  0.00  0.00    +0.330 C 
BRANCH  18  19
ATOM     19  O   UNL     1      36.134 -25.701 -12.082  0.00  0.00    -0.479 OA
ATOM     20  H   UNL     1      35.338 -25.605 -12.567  0.00  0.00    +0.295 HD
ENDBRANCH  18  19
ENDBRANCH  16  18
BRANCH  16  21
ATOM     21  C   UNL     1      38.228 -24.927 -13.981  0.00  0.00    +0.040 C 
BRANCH  21  22
ATOM     22  C   UNL     1      39.301 -25.786 -13.306  0.00  0.00    +0.111 C 
BRANCH  22  24
ATOM     23  O   UNL     1      41.405 -26.833 -13.866  0.00  0.00    -0.250 OA
ATOM     24  C   UNL     1      40.426 -26.192 -14.225  0.00  0.00    +0.314 C 
BRANCH  24  25
ATOM     25  O   UNL     1      40.247 -25.756 -15.498  0.00  0.00    -0.480 OA
ATOM     26  H   UNL     1      40.209 -24.837 -15.676  0.00  0.00    +0.295 HD
ENDBRANCH  24  25
ENDBRANCH  22  24
ENDBRANCH  21  22
ENDBRANCH  16  21
ENDBRANCH  14  16
ENDBRANCH  11  14
ENDBRANCH   1  11
BRANCH   9  27
ATOM     27  O   UNL     1      34.401 -20.026 -21.335  0.00  0.00    -0.471 OA
BRANCH  27  28
ATOM     28  C   UNL     1      35.476 -19.437 -22.066  0.00  0.00    +0.232 C 
BRANCH  28  29
ATOM     29  C   UNL     1      35.166 -17.990 -22.312  0.00  0.00    +0.021 C 
ATOM     30  C   UNL     1      35.013 -17.117 -21.235  0.00  0.00    -0.000 C 
ATOM     31  C   UNL     1      35.030 -17.518 -23.618  0.00  0.00    -0.000 C 
ATOM     32  C   UNL     1      34.725 -15.772 -21.464  0.00  0.00    +0.010 C 
ATOM     33  C   UNL     1      34.742 -16.173 -23.847  0.00  0.00    +0.010 C 
ATOM     34  C   UNL     1      34.588 -15.300 -22.770  0.00  0.00    +0.068 C 
BRANCH  34  36
ATOM     35  N   UNL     1      34.054 -12.801 -23.194  0.00  0.00    -0.191 NA
ATOM     36  C   UNL     1      34.294 -13.921 -23.004  0.00  0.00    +0.100 C 
ENDBRANCH  34  36
ENDBRANCH  28  29
ENDBRANCH  27  28
ENDBRANCH   9  27
TORSDOF 13
ENDMDL
MODEL 5
REMARK VINA RESULT:     -11.3      2.646      4.473
REMARK  Name = 24755471
REMARK  13 active torsions:
REMARK  status: ('A' for Active; 'I' for Inactive)
REMARK    1  A    between atoms: C_1  and  S_11
REMARK    2  A    between atoms: C_9  and  O_27
REMARK    3  A    between atoms: S_11  and  N_14
REMARK    4  A    between atoms: N_14  and  C_16
REMARK    5  A    between atoms: C_16  and  C_18
REMARK    6  A    between atoms: C_16  and  C_21
REMARK    7  A    between atoms: C_18  and  O_19
REMARK    8  A    between atoms: C_21  and  C_22
REMARK    9  A    between atoms: C_22  and  C_24
REMARK   10  A    between atoms: C_24  and  O_25
REMARK   11  A    between atoms: O_27  and  C_28
REMARK   12  A    between atoms: C_28  and  C_29
REMARK   13  A    between atoms: C_34  and  C_36
REMARK                            x       y       z     vdW  Elec       q    Type
REMARK                         _______ _______ _______ _____ _____    ______ ____
ROOT
ATOM      1  C   UNL     1      35.572 -22.850 -16.342  0.00  0.00    +0.122 C 
ATOM      2  C   UNL     1      34.440 -21.909 -18.280  0.00  0.00    +0.002 C 
ATOM      3  C   UNL     1      34.402 -22.610 -17.063  0.00  0.00    +0.020 C 
ATOM      4  C   UNL     1      35.683 -21.445 -18.772  0.00  0.00    +0.003 C 
ATOM      5  C   UNL     1      36.794 -22.393 -16.827  0.00  0.00    +0.020 C 
ATOM      6  C   UNL     1      36.851 -21.695 -18.033  0.00  0.00    +0.001 C 
ATOM      7  C   UNL     1      35.722 -20.744 -19.988  0.00  0.00    +0.037 C 
ATOM      8  C   UNL     1      33.272 -21.659 -19.019  0.00  0.00    +0.003 C 
ATOM      9  C   UNL     1      34.551 -20.505 -20.709  0.00  0.00    +0.139 C 
ATOM     10  C   UNL     1      33.329 -20.961 -20.225  0.00  0.00    +0.037 C 
ENDROOT
BRANCH   1  11
ATOM     11  S   UNL     1      35.502 -23.734 -14.813  0.00  0.00    +0.061 S 
ATOM     12  O   UNL     1      35.352 -25.143 -15.119  0.00  0.00    -0.153 OA
ATOM     13  O   UNL     1      36.618 -23.275 -14.008  0.00  0.00    -0.153 OA
BRANCH  11  14
ATOM     14  N   UNL     1      34.057 -23.146 -14.136  0.00  0.00    -0.170 NA
ATOM     15  H   UNL     1      33.935 -22.196 -14.484  0.00  0.00    +0.149 HD
BRANCH  14  16
ATOM     16  C   UNL     1      32.784 -23.860 -14.381  0.00  0.00    +0.174 C 
BRANCH  16  18
ATOM     17  O   UNL     1      31.373 -25.093 -12.831  0.00  0.00    -0.249 OA
ATOM     18  C   UNL     1      32.486 -24.713 -13.171  0.00  0.00    +0.330 C 
BRANCH  18  19
ATOM     19  O   UNL     1      33.613 -25.043 -12.488  0.00  0.00    -0.479 OA
ATOM     20  H   UNL     1      33.745 -24.720 -11.619  0.00  0.00    +0.295 HD
ENDBRANCH  18  19
ENDBRANCH  16  18
BRANCH  16  21
ATOM     21  C   UNL     1      31.676 -22.866 -14.749  0.00  0.00    +0.040 C 
BRANCH  21  22
ATOM     22  C   UNL     1      31.005 -23.069 -16.111  0.00  0.00    +0.111 C 
BRANCH  22  24
ATOM     23  O   UNL     1      28.833 -22.118 -16.574  0.00  0.00    -0.250 OA
ATOM     24  C   UNL     1      29.499 -23.010 -16.063  0.00  0.00    +0.314 C 
BRANCH  24  25
ATOM     25  O   UNL     1      28.954 -24.045 -15.376  0.00  0.00    -0.480 OA
ATOM     26  H   UNL     1      29.501 -24.741 -15.067  0.00  0.00    +0.295 HD
ENDBRANCH  24  25
ENDBRANCH  22  24
ENDBRANCH  21  22
ENDBRANCH  16  21
ENDBRANCH  14  16
ENDBRANCH  11  14
ENDBRANCH   1  11
BRANCH   9  27
ATOM     27  O   UNL     1      34.605 -19.822 -21.886  0.00  0.00    -0.471 OA
BRANCH  27  28
ATOM     28  C   UNL     1      35.739 -18.983 -22.098  0.00  0.00    +0.232 C 
BRANCH  28  29
ATOM     29  C   UNL     1      35.270 -17.577 -22.333  0.00  0.00    +0.021 C 
ATOM     30  C   UNL     1      34.991 -16.745 -21.249  0.00  0.00    -0.000 C 
ATOM     31  C   UNL     1      35.113 -17.102 -23.635  0.00  0.00    -0.000 C 
ATOM     32  C   UNL     1      34.555 -15.439 -21.466  0.00  0.00    +0.010 C 
ATOM     33  C   UNL     1      34.678 -15.796 -23.853  0.00  0.00    +0.010 C 
ATOM     34  C   UNL     1      34.398 -14.964 -22.769  0.00  0.00    +0.068 C 
BRANCH  34  36
ATOM     35  N   UNL     1      33.590 -12.536 -23.172  0.00  0.00    -0.191 NA
ATOM     36  C   UNL     1      33.952 -13.624 -22.991  0.00  0.00    +0.100 C 
ENDBRANCH  34  36
ENDBRANCH  28  29
ENDBRANCH  27  28
ENDBRANCH   9  27
TORSDOF 13
ENDMDL
MODEL 6
REMARK VINA RESULT:     -10.9      2.111      3.546
REMARK  Name = 24755471
REMARK  13 active torsions:
REMARK  status: ('A' for Active; 'I' for Inactive)
REMARK    1  A    between atoms: C_1  and  S_11
REMARK    2  A    between atoms: C_9  and  O_27
REMARK    3  A    between atoms: S_11  and  N_14
REMARK    4  A    between atoms: N_14  and  C_16
REMARK    5  A    between atoms: C_16  and  C_18
REMARK    6  A    between atoms: C_16  and  C_21
REMARK    7  A    between atoms: C_18  and  O_19
REMARK    8  A    between atoms: C_21  and  C_22
REMARK    9  A    between atoms: C_22  and  C_24
REMARK   10  A    between atoms: C_24  and  O_25
REMARK   11  A    between atoms: O_27  and  C_28
REMARK   12  A    between atoms: C_28  and  C_29
REMARK   13  A    between atoms: C_34  and  C_36
REMARK                            x       y       z     vdW  Elec       q    Type
REMARK                         _______ _______ _______ _____ _____    ______ ____
ROOT
ATOM      1  C   UNL     1      35.748 -22.947 -16.347  0.00  0.00    +0.122 C 
ATOM      2  C   UNL     1      36.051 -21.592 -18.345  0.00  0.00    +0.002 C 
ATOM      3  C   UNL     1      36.570 -22.198 -17.189  0.00  0.00    +0.020 C 
ATOM      4  C   UNL     1      34.679 -21.750 -18.652  0.00  0.00    +0.003 C 
ATOM      5  C   UNL     1      34.399 -23.102 -16.649  0.00  0.00    +0.020 C 
ATOM      6  C   UNL     1      33.865 -22.508 -17.793  0.00  0.00    +0.001 C 
ATOM      7  C   UNL     1      34.159 -21.145 -19.808  0.00  0.00    +0.037 C 
ATOM      8  C   UNL     1      36.864 -20.834 -19.204  0.00  0.00    +0.003 C 
ATOM      9  C   UNL     1      34.982 -20.395 -20.650  0.00  0.00    +0.139 C 
ATOM     10  C   UNL     1      36.331 -20.240 -20.348  0.00  0.00    +0.037 C 
ENDROOT
BRANCH   1  11
ATOM     11  S   UNL     1      36.422 -23.701 -14.897  0.00  0.00    +0.061 S 
ATOM     12  O   UNL     1      36.392 -25.138 -15.085  0.00  0.00    -0.153 OA
ATOM     13  O   UNL     1      37.675 -23.027 -14.614  0.00  0.00    -0.153 OA
BRANCH  11  14
ATOM     14  N   UNL     1      35.282 -23.263 -13.714  0.00  0.00    -0.170 NA
ATOM     15  H   UNL     1      34.522 -22.788 -14.200  0.00  0.00    +0.149 HD
BRANCH  14  16
ATOM     16  C   UNL     1      34.664 -24.303 -12.863  0.00  0.00    +0.174 C 
BRANCH  16  18
ATOM     17  O   UNL     1      35.223 -25.141 -10.649  0.00  0.00    -0.249 OA
ATOM     18  C   UNL     1      35.381 -24.309 -11.534  0.00  0.00    +0.330 C 
BRANCH  18  19
ATOM     19  O   UNL     1      36.260 -23.279 -11.423  0.00  0.00    -0.479 OA
ATOM     20  H   UNL     1      36.819 -23.061 -12.142  0.00  0.00    +0.295 HD
ENDBRANCH  18  19
ENDBRANCH  16  18
BRANCH  16  21
ATOM     21  C   UNL     1      33.149 -24.088 -12.770  0.00  0.00    +0.040 C 
BRANCH  21  22
ATOM     22  C   UNL     1      32.326 -24.495 -13.996  0.00  0.00    +0.111 C 
BRANCH  22  24
ATOM     23  O   UNL     1      30.418 -25.909 -14.437  0.00  0.00    -0.250 OA
ATOM     24  C   UNL     1      31.032 -25.192 -13.658  0.00  0.00    +0.314 C 
BRANCH  24  25
ATOM     25  O   UNL     1      30.606 -24.927 -12.397  0.00  0.00    -0.480 OA
ATOM     26  H   UNL     1      30.713 -24.068 -12.039  0.00  0.00    +0.295 HD
ENDBRANCH  24  25
ENDBRANCH  22  24
ENDBRANCH  21  22
ENDBRANCH  16  21
ENDBRANCH  14  16
ENDBRANCH  11  14
ENDBRANCH   1  11
BRANCH   9  27
ATOM     27  O   UNL     1      34.463 -19.817 -21.767  0.00  0.00    -0.471 OA
BRANCH  27  28
ATOM     28  C   UNL     1      35.389 -19.254 -22.696  0.00  0.00    +0.232 C 
BRANCH  28  29
ATOM     29  C   UNL     1      35.093 -17.792 -22.859  0.00  0.00    +0.021 C 
ATOM     30  C   UNL     1      35.006 -16.970 -21.735  0.00  0.00    -0.000 C 
ATOM     31  C   UNL     1      34.905 -17.256 -24.132  0.00  0.00    -0.000 C 
ATOM     32  C   UNL     1      34.731 -15.612 -21.886  0.00  0.00    +0.010 C 
ATOM     33  C   UNL     1      34.630 -15.898 -24.283  0.00  0.00    +0.010 C 
ATOM     34  C   UNL     1      34.542 -15.075 -23.160  0.00  0.00    +0.068 C 
BRANCH  34  36
ATOM     35  N   UNL     1      34.032 -12.551 -23.440  0.00  0.00    -0.191 NA
ATOM     36  C   UNL     1      34.261 -13.682 -23.314  0.00  0.00    +0.100 C 
ENDBRANCH  34  36
ENDBRANCH  28  29
ENDBRANCH  27  28
ENDBRANCH   9  27
TORSDOF 13
ENDMDL
MODEL 7
REMARK VINA RESULT:     -10.8      4.616      8.506
REMARK  Name = 24755471
REMARK  13 active torsions:
REMARK  status: ('A' for Active; 'I' for Inactive)
REMARK    1  A    between atoms: C_1  and  S_11
REMARK    2  A    between atoms: C_9  and  O_27
REMARK    3  A    between atoms: S_11  and  N_14
REMARK    4  A    between atoms: N_14  and  C_16
REMARK    5  A    between atoms: C_16  and  C_18
REMARK    6  A    between atoms: C_16  and  C_21
REMARK    7  A    between atoms: C_18  and  O_19
REMARK    8  A    between atoms: C_21  and  C_22
REMARK    9  A    between atoms: C_22  and  C_24
REMARK   10  A    between atoms: C_24  and  O_25
REMARK   11  A    between atoms: O_27  and  C_28
REMARK   12  A    between atoms: C_28  and  C_29
REMARK   13  A    between atoms: C_34  and  C_36
REMARK                            x       y       z     vdW  Elec       q    Type
REMARK                         _______ _______ _______ _____ _____    ______ ____
ROOT
ATOM      1  C   UNL     1      35.232 -17.181 -21.924  0.00  0.00    +0.122 C 
ATOM      2  C   UNL     1      33.832 -15.380 -21.077  0.00  0.00    +0.002 C 
ATOM      3  C   UNL     1      34.528 -16.583 -20.878  0.00  0.00    +0.020 C 
ATOM      4  C   UNL     1      33.850 -14.773 -22.356  0.00  0.00    +0.003 C 
ATOM      5  C   UNL     1      35.250 -16.584 -23.181  0.00  0.00    +0.020 C 
ATOM      6  C   UNL     1      34.564 -15.389 -23.398  0.00  0.00    +0.001 C 
ATOM      7  C   UNL     1      33.154 -13.570 -22.556  0.00  0.00    +0.037 C 
ATOM      8  C   UNL     1      33.117 -14.764 -20.036  0.00  0.00    +0.003 C 
ATOM      9  C   UNL     1      32.450 -12.973 -21.510  0.00  0.00    +0.139 C 
ATOM     10  C   UNL     1      32.431 -13.569 -20.252  0.00  0.00    +0.037 C 
ENDROOT
BRANCH   1  11
ATOM     11  S   UNL     1      36.102 -18.695 -21.651  0.00  0.00    +0.061 S 
ATOM     12  O   UNL     1      36.775 -19.051 -22.884  0.00  0.00    -0.153 OA
ATOM     13  O   UNL     1      36.860 -18.532 -20.425  0.00  0.00    -0.153 OA
BRANCH  11  14
ATOM     14  N   UNL     1      34.827 -19.784 -21.369  0.00  0.00    -0.170 NA
ATOM     15  H   UNL     1      34.930 -20.539 -22.046  0.00  0.00    +0.149 HD
BRANCH  14  16
ATOM     16  C   UNL     1      34.677 -20.417 -20.040  0.00  0.00    +0.174 C 
BRANCH  16  18
ATOM     17  O   UNL     1      32.266 -20.101 -20.094  0.00  0.00    -0.249 OA
ATOM     18  C   UNL     1      33.232 -20.822 -19.875  0.00  0.00    +0.330 C 
BRANCH  18  19
ATOM     19  O   UNL     1      33.105 -22.111 -19.466  0.00  0.00    -0.479 OA
ATOM     20  H   UNL     1      32.833 -22.299 -18.590  0.00  0.00    +0.295 HD
ENDBRANCH  18  19
ENDBRANCH  16  18
BRANCH  16  21
ATOM     21  C   UNL     1      35.683 -21.562 -19.877  0.00  0.00    +0.040 C 
BRANCH  21  22
ATOM     22  C   UNL     1      36.715 -21.408 -18.756  0.00  0.00    +0.111 C 
BRANCH  22  24
ATOM     23  O   UNL     1      37.027 -22.112 -16.466  0.00  0.00    -0.250 OA
ATOM     24  C   UNL     1      36.341 -22.119 -17.480  0.00  0.00    +0.314 C 
BRANCH  24  25
ATOM     25  O   UNL     1      35.163 -22.787 -17.577  0.00  0.00    -0.480 OA
ATOM     26  H   UNL     1      34.367 -22.313 -17.718  0.00  0.00    +0.295 HD
ENDBRANCH  24  25
ENDBRANCH  22  24
ENDBRANCH  21  22
ENDBRANCH  16  21
ENDBRANCH  14  16
ENDBRANCH  11  14
ENDBRANCH   1  11
BRANCH   9  27
ATOM     27  O   UNL     1      31.782 -11.806 -21.719  0.00  0.00    -0.471 OA
BRANCH  27  28
ATOM     28  C   UNL     1      31.689 -10.904 -20.617  0.00  0.00    +0.232 C 
BRANCH  28  29
ATOM     29  C   UNL     1      31.751  -9.495 -21.130  0.00  0.00    +0.021 C 
ATOM     30  C   UNL     1      31.561  -9.239 -22.488  0.00  0.00    -0.000 C 
ATOM     31  C   UNL     1      32.001  -8.442 -20.250  0.00  0.00    -0.000 C 
ATOM     32  C   UNL     1      31.619  -7.930 -22.965  0.00  0.00    +0.010 C 
ATOM     33  C   UNL     1      32.059  -7.134 -20.727  0.00  0.00    +0.010 C 
ATOM     34  C   UNL     1      31.869  -6.877 -22.085  0.00  0.00    +0.068 C 
BRANCH  34  36
ATOM     35  N   UNL     1      31.975  -4.446 -22.972  0.00  0.00    -0.191 NA
ATOM     36  C   UNL     1      31.928  -5.535 -22.574  0.00  0.00    +0.100 C 
ENDBRANCH  34  36
ENDBRANCH  28  29
ENDBRANCH  27  28
ENDBRANCH   9  27
TORSDOF 13
ENDMDL
MODEL 8
REMARK VINA RESULT:     -10.8      3.273      5.277
REMARK  Name = 24755471
REMARK  13 active torsions:
REMARK  status: ('A' for Active; 'I' for Inactive)
REMARK    1  A    between atoms: C_1  and  S_11
REMARK    2  A    between atoms: C_9  and  O_27
REMARK    3  A    between atoms: S_11  and  N_14
REMARK    4  A    between atoms: N_14  and  C_16
REMARK    5  A    between atoms: C_16  and  C_18
REMARK    6  A    between atoms: C_16  and  C_21
REMARK    7  A    between atoms: C_18  and  O_19
REMARK    8  A    between atoms: C_21  and  C_22
REMARK    9  A    between atoms: C_22  and  C_24
REMARK   10  A    between atoms: C_24  and  O_25
REMARK   11  A    between atoms: O_27  and  C_28
REMARK   12  A    between atoms: C_28  and  C_29
REMARK   13  A    between atoms: C_34  and  C_36
REMARK                            x       y       z     vdW  Elec       q    Type
REMARK                         _______ _______ _______ _____ _____    ______ ____
ROOT
ATOM      1  C   UNL     1      34.343 -22.608 -17.346  0.00  0.00    +0.122 C 
ATOM      2  C   UNL     1      35.428 -21.300 -19.088  0.00  0.00    +0.002 C 
ATOM      3  C   UNL     1      35.500 -22.091 -17.930  0.00  0.00    +0.020 C 
ATOM      4  C   UNL     1      34.163 -21.029 -19.663  0.00  0.00    +0.003 C 
ATOM      5  C   UNL     1      33.100 -22.340 -17.911  0.00  0.00    +0.020 C 
ATOM      6  C   UNL     1      33.008 -21.557 -19.062  0.00  0.00    +0.001 C 
ATOM      7  C   UNL     1      34.090 -20.238 -20.821  0.00  0.00    +0.037 C 
ATOM      8  C   UNL     1      36.583 -20.772 -19.689  0.00  0.00    +0.003 C 
ATOM      9  C   UNL     1      35.248 -19.722 -21.404  0.00  0.00    +0.139 C 
ATOM     10  C   UNL     1      36.491 -19.988 -20.839  0.00  0.00    +0.037 C 
ENDROOT
BRANCH   1  11
ATOM     11  S   UNL     1      34.457 -23.601 -15.888  0.00  0.00    +0.061 S 
ATOM     12  O   UNL     1      34.187 -24.975 -16.263  0.00  0.00    -0.153 OA
ATOM     13  O   UNL     1      35.705 -23.253 -15.237  0.00  0.00    -0.153 OA
BRANCH  11  14
ATOM     14  N   UNL     1      33.165 -23.005 -14.957  0.00  0.00    -0.170 NA
ATOM     15  H   UNL     1      32.868 -22.132 -15.392  0.00  0.00    +0.149 HD
BRANCH  14  16
ATOM     16  C   UNL     1      31.949 -23.826 -14.771  0.00  0.00    +0.174 C 
BRANCH  16  18
ATOM     17  O   UNL     1      31.235 -23.555 -12.462  0.00  0.00    -0.249 OA
ATOM     18  C   UNL     1      31.850 -24.191 -13.309  0.00  0.00    +0.330 C 
BRANCH  18  19
ATOM     19  O   UNL     1      32.513 -25.341 -13.023  0.00  0.00    -0.479 OA
ATOM     20  H   UNL     1      32.074 -26.036 -12.575  0.00  0.00    +0.295 HD
ENDBRANCH  18  19
ENDBRANCH  16  18
BRANCH  16  21
ATOM     21  C   UNL     1      30.721 -23.099 -15.332  0.00  0.00    +0.040 C 
BRANCH  21  22
ATOM     22  C   UNL     1      29.438 -23.925 -15.456  0.00  0.00    +0.111 C 
BRANCH  22  24
ATOM     23  O   UNL     1      27.796 -24.095 -17.220  0.00  0.00    -0.250 OA
ATOM     24  C   UNL     1      28.463 -23.389 -16.474  0.00  0.00    +0.314 C 
BRANCH  24  25
ATOM     25  O   UNL     1      28.414 -22.033 -16.492  0.00  0.00    -0.480 OA
ATOM     26  H   UNL     1      27.625 -21.591 -16.247  0.00  0.00    +0.295 HD
ENDBRANCH  24  25
ENDBRANCH  22  24
ENDBRANCH  21  22
ENDBRANCH  16  21
ENDBRANCH  14  16
ENDBRANCH  11  14
ENDBRANCH   1  11
BRANCH   9  27
ATOM     27  O   UNL     1      35.160 -18.958 -22.527  0.00  0.00    -0.471 OA
BRANCH  27  28
ATOM     28  C   UNL     1      35.934 -17.761 -22.561  0.00  0.00    +0.232 C 
BRANCH  28  29
ATOM     29  C   UNL     1      35.043 -16.592 -22.258  0.00  0.00    +0.021 C 
ATOM     30  C   UNL     1      34.716 -16.289 -20.936  0.00  0.00    -0.000 C 
ATOM     31  C   UNL     1      34.540 -15.810 -23.298  0.00  0.00    -0.000 C 
ATOM     32  C   UNL     1      33.887 -15.204 -20.654  0.00  0.00    +0.010 C 
ATOM     33  C   UNL     1      33.711 -14.725 -23.016  0.00  0.00    +0.010 C 
ATOM     34  C   UNL     1      33.384 -14.422 -21.694  0.00  0.00    +0.068 C 
BRANCH  34  36
ATOM     35  N   UNL     1      31.846 -12.405 -21.170  0.00  0.00    -0.191 NA
ATOM     36  C   UNL     1      32.535 -13.309 -21.405  0.00  0.00    +0.100 C 
ENDBRANCH  34  36
ENDBRANCH  28  29
ENDBRANCH  27  28
ENDBRANCH   9  27
TORSDOF 13
ENDMDL
MODEL 9
REMARK VINA RESULT:     -10.6      4.820      8.637
REMARK  Name = 24755471
REMARK  13 active torsions:
REMARK  status: ('A' for Active; 'I' for Inactive)
REMARK    1  A    between atoms: C_1  and  S_11
REMARK    2  A    between atoms: C_9  and  O_27
REMARK    3  A    between atoms: S_11  and  N_14
REMARK    4  A    between atoms: N_14  and  C_16
REMARK    5  A    between atoms: C_16  and  C_18
REMARK    6  A    between atoms: C_16  and  C_21
REMARK    7  A    between atoms: C_18  and  O_19
REMARK    8  A    between atoms: C_21  and  C_22
REMARK    9  A    between atoms: C_22  and  C_24
REMARK   10  A    between atoms: C_24  and  O_25
REMARK   11  A    between atoms: O_27  and  C_28
REMARK   12  A    between atoms: C_28  and  C_29
REMARK   13  A    between atoms: C_34  and  C_36
REMARK                            x       y       z     vdW  Elec       q    Type
REMARK                         _______ _______ _______ _____ _____    ______ ____
ROOT
ATOM      1  C   UNL     1      34.966 -17.075 -22.370  0.00  0.00    +0.122 C 
ATOM      2  C   UNL     1      33.744 -15.202 -21.411  0.00  0.00    +0.002 C 
ATOM      3  C   UNL     1      34.375 -16.448 -21.272  0.00  0.00    +0.020 C 
ATOM      4  C   UNL     1      33.712 -14.580 -22.682  0.00  0.00    +0.003 C 
ATOM      5  C   UNL     1      34.934 -16.463 -23.620  0.00  0.00    +0.020 C 
ATOM      6  C   UNL     1      34.312 -15.225 -23.777  0.00  0.00    +0.001 C 
ATOM      7  C   UNL     1      33.081 -13.334 -22.822  0.00  0.00    +0.037 C 
ATOM      8  C   UNL     1      33.143 -14.558 -20.316  0.00  0.00    +0.003 C 
ATOM      9  C   UNL     1      32.490 -12.708 -21.724  0.00  0.00    +0.139 C 
ATOM     10  C   UNL     1      32.521 -13.319 -20.473  0.00  0.00    +0.037 C 
ENDROOT
BRANCH   1  11
ATOM     11  S   UNL     1      35.755 -18.644 -22.173  0.00  0.00    +0.061 S 
ATOM     12  O   UNL     1      35.247 -19.532 -23.200  0.00  0.00    -0.153 OA
ATOM     13  O   UNL     1      37.179 -18.390 -22.066  0.00  0.00    -0.153 OA
BRANCH  11  14
ATOM     14  N   UNL     1      35.170 -19.141 -20.656  0.00  0.00    -0.170 NA
ATOM     15  H   UNL     1      34.206 -18.814 -20.592  0.00  0.00    +0.149 HD
BRANCH  14  16
ATOM     16  C   UNL     1      35.159 -20.578 -20.304  0.00  0.00    +0.174 C 
BRANCH  16  18
ATOM     17  O   UNL     1      36.658 -21.938 -18.955  0.00  0.00    -0.249 OA
ATOM     18  C   UNL     1      36.409 -20.874 -19.510  0.00  0.00    +0.330 C 
BRANCH  18  19
ATOM     19  O   UNL     1      37.263 -19.819 -19.487  0.00  0.00    -0.479 OA
ATOM     20  H   UNL     1      37.386 -19.299 -20.256  0.00  0.00    +0.295 HD
ENDBRANCH  18  19
ENDBRANCH  16  18
BRANCH  16  21
ATOM     21  C   UNL     1      33.850 -20.945 -19.595  0.00  0.00    +0.040 C 
BRANCH  21  22
ATOM     22  C   UNL     1      33.636 -22.430 -19.286  0.00  0.00    +0.111 C 
BRANCH  22  24
ATOM     23  O   UNL     1      32.281 -22.663 -17.300  0.00  0.00    -0.250 OA
ATOM     24  C   UNL     1      33.384 -22.719 -17.828  0.00  0.00    +0.314 C 
BRANCH  24  25
ATOM     25  O   UNL     1      34.518 -23.035 -17.151  0.00  0.00    -0.480 OA
ATOM     26  H   UNL     1      34.525 -23.014 -16.215  0.00  0.00    +0.295 HD
ENDBRANCH  24  25
ENDBRANCH  22  24
ENDBRANCH  21  22
ENDBRANCH  16  21
ENDBRANCH  14  16
ENDBRANCH  11  14
ENDBRANCH   1  11
BRANCH   9  27
ATOM     27  O   UNL     1      31.884 -11.499 -21.875  0.00  0.00    -0.471 OA
BRANCH  27  28
ATOM     28  C   UNL     1      31.848 -10.643 -20.734  0.00  0.00    +0.232 C 
BRANCH  28  29
ATOM     29  C   UNL     1      31.821  -9.215 -21.193  0.00  0.00    +0.021 C 
ATOM     30  C   UNL     1      32.141  -8.190 -20.303  0.00  0.00    -0.000 C 
ATOM     31  C   UNL     1      31.474  -8.912 -22.510  0.00  0.00    -0.000 C 
ATOM     32  C   UNL     1      32.114  -6.863 -20.729  0.00  0.00    +0.010 C 
ATOM     33  C   UNL     1      31.448  -7.585 -22.936  0.00  0.00    +0.010 C 
ATOM     34  C   UNL     1      31.767  -6.560 -22.046  0.00  0.00    +0.068 C 
BRANCH  34  36
ATOM     35  N   UNL     1      31.721  -4.094 -22.838  0.00  0.00    -0.191 NA
ATOM     36  C   UNL     1      31.741  -5.199 -22.482  0.00  0.00    +0.100 C 
ENDBRANCH  34  36
ENDBRANCH  28  29
ENDBRANCH  27  28
ENDBRANCH   9  27
TORSDOF 13
ENDMDL
