MODEL 1
REMARK VINA RESULT:     -12.2      0.000      0.000
REMARK  Name = 118598754
REMARK  1 active torsions:
REMARK  status: ('A' for Active; 'I' for Inactive)
REMARK    1  A    between atoms: C_15  and  N_19
REMARK                            x       y       z     vdW  Elec       q    Type
REMARK                         _______ _______ _______ _____ _____    ______ ____
ROOT
ATOM      1  O   UNL     1      32.124 -24.582 -12.724  0.00  0.00    -0.269 OA
ATOM      2  O   UNL     1      36.788 -23.267 -15.978  0.00  0.00    -0.268 OA
ATOM      3  N   UNL     1      34.931 -23.791 -14.684  0.00  0.00    -0.238 N 
ATOM      4  N   UNL     1      34.459 -24.566 -12.573  0.00  0.00    -0.288 N 
ATOM      5  C   UNL     1      35.592 -24.224 -13.426  0.00  0.00    +0.124 C 
ATOM      6  C   UNL     1      36.469 -25.470 -13.653  0.00  0.00    +0.038 C 
ATOM      7  C   UNL     1      36.397 -23.074 -12.790  0.00  0.00    +0.038 C 
ATOM      8  C   UNL     1      37.158 -23.514 -11.538  0.00  0.00    +0.003 C 
ATOM      9  C   UNL     1      37.230 -25.889 -12.395  0.00  0.00    +0.003 C 
ATOM     10  C   UNL     1      38.035 -24.732 -11.811  0.00  0.00    +0.000 C 
ATOM     11  C   UNL     1      33.556 -23.880 -14.554  0.00  0.00    +0.105 C 
ATOM     12  C   UNL     1      33.230 -24.380 -13.192  0.00  0.00    +0.260 C 
ATOM     13  C   UNL     1      35.570 -23.356 -15.839  0.00  0.00    +0.267 C 
ATOM     14  C   UNL     1      32.727 -23.546 -15.553  0.00  0.00    -0.002 C 
ATOM     15  C   UNL     1      34.655 -22.976 -16.974  0.00  0.00    +0.104 C 
ATOM     16  C   UNL     1      33.327 -23.082 -16.792  0.00  0.00    +0.016 C 
ATOM     17  C   UNL     1      31.228 -23.595 -15.543  0.00  0.00    +0.033 C 
ATOM     18  H   UNL     1      34.556 -24.895 -11.650  0.00  0.00    +0.151 HD
ENDROOT
BRANCH  15  19
ATOM     19  N   UNL     1      35.257 -22.545 -18.121  0.00  0.00    -0.298 N 
ATOM     20  N   UNL     1      33.440 -21.538 -19.255  0.00  0.00    -0.233 NA
ATOM     21  N   UNL     1      33.865 -19.846 -20.918  0.00  0.00    -0.234 NA
ATOM     22  C   UNL     1      34.774 -21.634 -19.066  0.00  0.00    +0.113 C 
ATOM     23  C   UNL     1      35.701 -20.881 -19.756  0.00  0.00    +0.121 C 
ATOM     24  C   UNL     1      35.184 -19.995 -20.679  0.00  0.00    +0.107 C 
ATOM     25  C   UNL     1      33.061 -20.637 -20.182  0.00  0.00    +0.252 C 
ATOM     26  H   UNL     1      36.146 -22.925 -18.306  0.00  0.00    +0.153 HD
ATOM     27  N   UNL     1      36.105 -19.205 -21.410  0.00  0.00    -0.346 N 
ATOM     28  H   UNL     1      35.780 -18.559 -22.078  0.00  0.00    +0.143 HD
ATOM     29  H   UNL     1      37.073 -19.300 -21.249  0.00  0.00    +0.143 HD
ENDBRANCH  15  19
TORSDOF 1
ENDMDL
MODEL 2
REMARK VINA RESULT:     -10.2      2.765      6.569
REMARK  Name = 118598754
REMARK  1 active torsions:
REMARK  status: ('A' for Active; 'I' for Inactive)
REMARK    1  A    between atoms: C_15  and  N_19
REMARK                            x       y       z     vdW  Elec       q    Type
REMARK                         _______ _______ _______ _____ _____    ______ ____
ROOT
ATOM      1  O   UNL     1      32.445 -21.676 -19.062  0.00  0.00    -0.269 OA
ATOM      2  O   UNL     1      34.275 -24.037 -14.048  0.00  0.00    -0.268 OA
ATOM      3  N   UNL     1      33.548 -23.098 -16.044  0.00  0.00    -0.238 N 
ATOM      4  N   UNL     1      31.569 -22.636 -17.116  0.00  0.00    -0.288 N 
ATOM      5  C   UNL     1      32.077 -23.218 -15.879  0.00  0.00    +0.124 C 
ATOM      6  C   UNL     1      31.641 -24.692 -15.778  0.00  0.00    +0.038 C 
ATOM      7  C   UNL     1      31.579 -22.397 -14.673  0.00  0.00    +0.038 C 
ATOM      8  C   UNL     1      30.079 -22.570 -14.426  0.00  0.00    +0.003 C 
ATOM      9  C   UNL     1      30.142 -24.845 -15.521  0.00  0.00    +0.003 C 
ATOM     10  C   UNL     1      29.693 -24.040 -14.305  0.00  0.00    +0.000 C 
ATOM     11  C   UNL     1      33.843 -22.505 -17.260  0.00  0.00    +0.105 C 
ATOM     12  C   UNL     1      32.574 -22.198 -17.970  0.00  0.00    +0.260 C 
ATOM     13  C   UNL     1      34.513 -23.511 -15.133  0.00  0.00    +0.267 C 
ATOM     14  C   UNL     1      35.106 -22.284 -17.652  0.00  0.00    -0.002 C 
ATOM     15  C   UNL     1      35.939 -23.270 -15.555  0.00  0.00    +0.104 C 
ATOM     16  C   UNL     1      36.168 -22.691 -16.747  0.00  0.00    +0.016 C 
ATOM     17  C   UNL     1      35.561 -21.654 -18.934  0.00  0.00    +0.033 C 
ATOM     18  H   UNL     1      30.610 -22.561 -17.326  0.00  0.00    +0.151 HD
ENDROOT
BRANCH  15  19
ATOM     19  N   UNL     1      36.907 -23.666 -14.678  0.00  0.00    -0.298 N 
ATOM     20  N   UNL     1      36.772 -26.022 -14.862  0.00  0.00    -0.233 NA
ATOM     21  N   UNL     1      38.682 -27.373 -14.284  0.00  0.00    -0.234 NA
ATOM     22  C   UNL     1      37.498 -24.928 -14.549  0.00  0.00    +0.113 C 
ATOM     23  C   UNL     1      38.803 -24.976 -14.102  0.00  0.00    +0.121 C 
ATOM     24  C   UNL     1      39.349 -26.239 -13.988  0.00  0.00    +0.107 C 
ATOM     25  C   UNL     1      37.417 -27.195 -14.709  0.00  0.00    +0.252 C 
ATOM     26  H   UNL     1      37.232 -22.975 -14.058  0.00  0.00    +0.153 HD
ATOM     27  N   UNL     1      40.686 -26.330 -13.530  0.00  0.00    -0.346 N 
ATOM     28  H   UNL     1      41.115 -27.212 -13.434  0.00  0.00    +0.143 HD
ATOM     29  H   UNL     1      41.189 -25.513 -13.308  0.00  0.00    +0.143 HD
ENDBRANCH  15  19
TORSDOF 1
ENDMDL
MODEL 3
REMARK VINA RESULT:      -9.8      7.328     10.758
REMARK  Name = 118598754
REMARK  1 active torsions:
REMARK  status: ('A' for Active; 'I' for Inactive)
REMARK    1  A    between atoms: C_15  and  N_19
REMARK                            x       y       z     vdW  Elec       q    Type
REMARK                         _______ _______ _______ _____ _____    ______ ____
ROOT
ATOM      1  O   UNL     1      34.975 -17.750 -25.473  0.00  0.00    -0.269 OA
ATOM      2  O   UNL     1      34.554 -15.993 -19.923  0.00  0.00    -0.268 OA
ATOM      3  N   UNL     1      34.722 -16.691 -22.132  0.00  0.00    -0.238 N 
ATOM      4  N   UNL     1      35.482 -18.506 -23.317  0.00  0.00    -0.288 N 
ATOM      5  C   UNL     1      35.355 -18.021 -21.948  0.00  0.00    +0.124 C 
ATOM      6  C   UNL     1      36.750 -17.896 -21.306  0.00  0.00    +0.038 C 
ATOM      7  C   UNL     1      34.445 -18.969 -21.141  0.00  0.00    +0.038 C 
ATOM      8  C   UNL     1      35.106 -20.320 -20.861  0.00  0.00    +0.003 C 
ATOM      9  C   UNL     1      37.391 -19.256 -21.025  0.00  0.00    +0.003 C 
ATOM     10  C   UNL     1      36.472 -20.153 -20.203  0.00  0.00    +0.000 C 
ATOM     11  C   UNL     1      34.512 -16.447 -23.479  0.00  0.00    +0.105 C 
ATOM     12  C   UNL     1      34.998 -17.612 -24.264  0.00  0.00    +0.260 C 
ATOM     13  C   UNL     1      34.380 -15.798 -21.124  0.00  0.00    +0.267 C 
ATOM     14  C   UNL     1      33.953 -15.308 -23.914  0.00  0.00    -0.002 C 
ATOM     15  C   UNL     1      33.749 -14.512 -21.593  0.00  0.00    +0.104 C 
ATOM     16  C   UNL     1      33.569 -14.328 -22.912  0.00  0.00    +0.016 C 
ATOM     17  C   UNL     1      33.671 -14.922 -25.334  0.00  0.00    +0.033 C 
ATOM     18  H   UNL     1      35.872 -19.380 -23.549  0.00  0.00    +0.151 HD
ENDROOT
BRANCH  15  19
ATOM     19  N   UNL     1      33.403 -13.617 -20.623  0.00  0.00    -0.298 N 
ATOM     20  N   UNL     1      32.600 -11.807 -21.918  0.00  0.00    -0.233 NA
ATOM     21  N   UNL     1      31.059 -10.233 -20.940  0.00  0.00    -0.234 NA
ATOM     22  C   UNL     1      32.612 -12.469 -20.742  0.00  0.00    +0.113 C 
ATOM     23  C   UNL     1      31.885 -12.079 -19.636  0.00  0.00    +0.121 C 
ATOM     24  C   UNL     1      31.118 -10.943 -19.794  0.00  0.00    +0.107 C 
ATOM     25  C   UNL     1      31.813 -10.714 -21.947  0.00  0.00    +0.252 C 
ATOM     26  H   UNL     1      33.755 -13.804 -19.722  0.00  0.00    +0.153 HD
ATOM     27  N   UNL     1      30.360 -10.508 -18.680  0.00  0.00    -0.346 N 
ATOM     28  H   UNL     1      29.798  -9.702 -18.750  0.00  0.00    +0.143 HD
ATOM     29  H   UNL     1      30.391 -11.014 -17.835  0.00  0.00    +0.143 HD
ENDBRANCH  15  19
TORSDOF 1
ENDMDL
MODEL 4
REMARK VINA RESULT:      -9.8      2.709      5.030
REMARK  Name = 118598754
REMARK  1 active torsions:
REMARK  status: ('A' for Active; 'I' for Inactive)
REMARK    1  A    between atoms: C_15  and  N_19
REMARK                            x       y       z     vdW  Elec       q    Type
REMARK                         _______ _______ _______ _____ _____    ______ ____
ROOT
ATOM      1  O   UNL     1      38.407 -22.148 -16.362  0.00  0.00    -0.269 OA
ATOM      2  O   UNL     1      33.610 -24.737 -14.275  0.00  0.00    -0.268 OA
ATOM      3  N   UNL     1      35.518 -23.705 -15.106  0.00  0.00    -0.238 N 
ATOM      4  N   UNL     1      37.721 -23.418 -14.520  0.00  0.00    -0.288 N 
ATOM      5  C   UNL     1      36.495 -24.047 -14.042  0.00  0.00    +0.124 C 
ATOM      6  C   UNL     1      36.089 -23.435 -12.687  0.00  0.00    +0.038 C 
ATOM      7  C   UNL     1      36.698 -25.571 -13.935  0.00  0.00    +0.038 C 
ATOM      8  C   UNL     1      37.635 -25.959 -12.789  0.00  0.00    +0.003 C 
ATOM      9  C   UNL     1      37.030 -23.841 -11.553  0.00  0.00    +0.003 C 
ATOM     10  C   UNL     1      37.184 -25.356 -11.463  0.00  0.00    +0.000 C 
ATOM     11  C   UNL     1      36.133 -22.953 -16.093  0.00  0.00    +0.105 C 
ATOM     12  C   UNL     1      37.562 -22.757 -15.732  0.00  0.00    +0.260 C 
ATOM     13  C   UNL     1      34.177 -24.069 -15.137  0.00  0.00    +0.267 C 
ATOM     14  C   UNL     1      35.465 -22.515 -17.169  0.00  0.00    -0.002 C 
ATOM     15  C   UNL     1      33.409 -23.585 -16.340  0.00  0.00    +0.104 C 
ATOM     16  C   UNL     1      34.056 -22.859 -17.267  0.00  0.00    +0.016 C 
ATOM     17  C   UNL     1      36.008 -21.698 -18.303  0.00  0.00    +0.033 C 
ATOM     18  H   UNL     1      38.576 -23.458 -14.034  0.00  0.00    +0.151 HD
ENDROOT
BRANCH  15  19
ATOM     19  N   UNL     1      32.089 -23.929 -16.395  0.00  0.00    -0.298 N 
ATOM     20  N   UNL     1      31.192 -22.640 -14.625  0.00  0.00    -0.233 NA
ATOM     21  N   UNL     1      28.852 -22.063 -14.637  0.00  0.00    -0.234 NA
ATOM     22  C   UNL     1      30.999 -23.293 -15.791  0.00  0.00    +0.113 C 
ATOM     23  C   UNL     1      29.780 -23.375 -16.430  0.00  0.00    +0.121 C 
ATOM     24  C   UNL     1      28.731 -22.735 -15.801  0.00  0.00    +0.107 C 
ATOM     25  C   UNL     1      30.092 -22.056 -14.112  0.00  0.00    +0.252 C 
ATOM     26  H   UNL     1      31.877 -24.727 -16.931  0.00  0.00    +0.153 HD
ATOM     27  N   UNL     1      27.461 -22.798 -16.425  0.00  0.00    -0.346 N 
ATOM     28  H   UNL     1      26.685 -22.355 -16.011  0.00  0.00    +0.143 HD
ATOM     29  H   UNL     1      27.353 -23.284 -17.275  0.00  0.00    +0.143 HD
ENDBRANCH  15  19
TORSDOF 1
ENDMDL
