MODEL 1
REMARK VINA RESULT:     -11.9      0.000      0.000
REMARK  Name = 23586146
REMARK  5 active torsions:
REMARK  status: ('A' for Active; 'I' for Inactive)
REMARK    1  A    between atoms: N_1  and  C_12
REMARK    2  A    between atoms: C_8  and  N_18
REMARK    3  A    between atoms: N_18  and  C_20
REMARK    4  A    between atoms: C_23  and  S_26
REMARK    5  A    between atoms: S_26  and  N_29
REMARK                            x       y       z     vdW  Elec       q    Type
REMARK                         _______ _______ _______ _____ _____    ______ ____
ROOT
ATOM      1  N   UNL     1      35.446 -24.285 -14.372  0.00  0.00    -0.309 N 
ATOM      2  N   UNL     1      33.193 -23.864 -14.244  0.00  0.00    -0.321 NA
ATOM      3  N   UNL     1      32.029 -23.165 -16.226  0.00  0.00    -0.106 N 
ATOM      4  N   UNL     1      30.763 -22.826 -16.589  0.00  0.00    -0.139 NA
ATOM      5  N   UNL     1      30.827 -23.358 -14.376  0.00  0.00    -0.145 NA
ATOM      6  C   UNL     1      34.294 -23.918 -14.957  0.00  0.00    +0.196 C 
ATOM      7  C   UNL     1      34.333 -23.581 -16.423  0.00  0.00    +0.081 C 
ATOM      8  C   UNL     1      33.185 -23.212 -17.010  0.00  0.00    +0.140 C 
ATOM      9  C   UNL     1      32.044 -23.487 -14.868  0.00  0.00    +0.176 C 
ATOM     10  C   UNL     1      30.096 -22.960 -15.447  0.00  0.00    +0.230 C 
ATOM     11  H   UNL     1      36.265 -24.305 -14.917  0.00  0.00    +0.149 HD
ENDROOT
BRANCH   1  12
ATOM     12  C   UNL     1      35.534 -24.655 -12.972  0.00  0.00    +0.071 C 
ATOM     13  C   UNL     1      36.471 -25.855 -12.802  0.00  0.00    +0.020 C 
ATOM     14  C   UNL     1      36.001 -23.456 -12.141  0.00  0.00    +0.020 C 
ATOM     15  C   UNL     1      37.939 -25.498 -13.038  0.00  0.00    +0.002 C 
ATOM     16  C   UNL     1      37.470 -23.107 -12.377  0.00  0.00    +0.002 C 
ATOM     17  C   UNL     1      38.376 -24.318 -12.176  0.00  0.00    +0.000 C 
ENDBRANCH   1  12
BRANCH   8  18
ATOM     18  N   UNL     1      33.070 -22.879 -18.329  0.00  0.00    -0.299 N 
ATOM     19  H   UNL     1      32.377 -23.361 -18.835  0.00  0.00    +0.153 HD
BRANCH  18  20
ATOM     20  C   UNL     1      33.810 -21.938 -19.054  0.00  0.00    +0.049 C 
ATOM     21  C   UNL     1      33.154 -20.946 -19.784  0.00  0.00    +0.016 C 
ATOM     22  C   UNL     1      35.204 -21.991 -19.047  0.00  0.00    +0.016 C 
ATOM     23  C   UNL     1      35.286 -20.062 -20.498  0.00  0.00    +0.122 C 
ATOM     24  C   UNL     1      33.892 -20.008 -20.505  0.00  0.00    +0.021 C 
ATOM     25  C   UNL     1      35.941 -21.054 -19.769  0.00  0.00    +0.021 C 
BRANCH  23  26
ATOM     26  S   UNL     1      36.209 -18.888 -21.402  0.00  0.00    +0.057 S 
ATOM     27  O   UNL     1      37.593 -18.946 -20.952  0.00  0.00    -0.153 OA
ATOM     28  O   UNL     1      35.902 -19.046 -22.817  0.00  0.00    -0.153 OA
BRANCH  26  29
ATOM     29  N   UNL     1      35.511 -17.429 -20.849  0.00  0.00    -0.203 NA
ATOM     30  H   UNL     1      34.912 -17.621 -20.048  0.00  0.00    +0.144 HD
ATOM     31  H   UNL     1      34.956 -17.013 -21.597  0.00  0.00    +0.144 HD
ENDBRANCH  26  29
ENDBRANCH  23  26
ENDBRANCH  18  20
ENDBRANCH   8  18
TORSDOF 5
ENDMDL
MODEL 2
REMARK VINA RESULT:     -10.6      1.758      4.740
REMARK  Name = 23586146
REMARK  5 active torsions:
REMARK  status: ('A' for Active; 'I' for Inactive)
REMARK    1  A    between atoms: N_1  and  C_12
REMARK    2  A    between atoms: C_8  and  N_18
REMARK    3  A    between atoms: N_18  and  C_20
REMARK    4  A    between atoms: C_23  and  S_26
REMARK    5  A    between atoms: S_26  and  N_29
REMARK                            x       y       z     vdW  Elec       q    Type
REMARK                         _______ _______ _______ _____ _____    ______ ____
ROOT
ATOM      1  N   UNL     1      31.330 -23.008 -15.597  0.00  0.00    -0.309 N 
ATOM      2  N   UNL     1      33.392 -23.162 -14.601  0.00  0.00    -0.321 NA
ATOM      3  N   UNL     1      35.357 -23.043 -15.978  0.00  0.00    -0.106 N 
ATOM      4  N   UNL     1      36.707 -23.087 -15.820  0.00  0.00    -0.139 NA
ATOM      5  N   UNL     1      35.675 -23.299 -13.801  0.00  0.00    -0.145 NA
ATOM      6  C   UNL     1      32.669 -23.023 -15.688  0.00  0.00    +0.196 C 
ATOM      7  C   UNL     1      33.277 -22.879 -17.057  0.00  0.00    +0.081 C 
ATOM      8  C   UNL     1      34.614 -22.894 -17.152  0.00  0.00    +0.140 C 
ATOM      9  C   UNL     1      34.747 -23.174 -14.729  0.00  0.00    +0.176 C 
ATOM     10  C   UNL     1      36.833 -23.240 -14.506  0.00  0.00    +0.230 C 
ATOM     11  H   UNL     1      30.802 -22.919 -16.423  0.00  0.00    +0.149 HD
ENDROOT
BRANCH   1  12
ATOM     12  C   UNL     1      30.626 -23.117 -14.333  0.00  0.00    +0.071 C 
ATOM     13  C   UNL     1      29.138 -22.808 -14.530  0.00  0.00    +0.020 C 
ATOM     14  C   UNL     1      30.836 -24.511 -13.733  0.00  0.00    +0.020 C 
ATOM     15  C   UNL     1      28.402 -23.907 -15.296  0.00  0.00    +0.002 C 
ATOM     16  C   UNL     1      30.094 -25.604 -14.502  0.00  0.00    +0.002 C 
ATOM     17  C   UNL     1      28.612 -25.276 -14.658  0.00  0.00    +0.000 C 
ENDBRANCH   1  12
BRANCH   8  18
ATOM     18  N   UNL     1      35.302 -22.774 -18.326  0.00  0.00    -0.299 N 
ATOM     19  H   UNL     1      35.852 -23.548 -18.582  0.00  0.00    +0.153 HD
BRANCH  18  20
ATOM     20  C   UNL     1      35.324 -21.690 -19.211  0.00  0.00    +0.049 C 
ATOM     21  C   UNL     1      36.541 -21.122 -19.589  0.00  0.00    +0.016 C 
ATOM     22  C   UNL     1      34.129 -21.177 -19.717  0.00  0.00    +0.016 C 
ATOM     23  C   UNL     1      35.368 -19.530 -20.977  0.00  0.00    +0.122 C 
ATOM     24  C   UNL     1      36.563 -20.043 -20.473  0.00  0.00    +0.021 C 
ATOM     25  C   UNL     1      34.152 -20.098 -20.599  0.00  0.00    +0.021 C 
BRANCH  23  26
ATOM     26  S   UNL     1      35.396 -18.179 -22.082  0.00  0.00    +0.057 S 
ATOM     27  O   UNL     1      34.640 -18.543 -23.272  0.00  0.00    -0.153 OA
ATOM     28  O   UNL     1      35.050 -16.971 -21.346  0.00  0.00    -0.153 OA
BRANCH  26  29
ATOM     29  N   UNL     1      37.057 -18.120 -22.482  0.00  0.00    -0.203 NA
ATOM     30  H   UNL     1      37.610 -18.041 -21.630  0.00  0.00    +0.144 HD
ATOM     31  H   UNL     1      37.234 -17.312 -23.079  0.00  0.00    +0.144 HD
ENDBRANCH  26  29
ENDBRANCH  23  26
ENDBRANCH  18  20
ENDBRANCH   8  18
TORSDOF 5
ENDMDL
MODEL 3
REMARK VINA RESULT:     -10.1      8.062     11.715
REMARK  Name = 23586146
REMARK  5 active torsions:
REMARK  status: ('A' for Active; 'I' for Inactive)
REMARK    1  A    between atoms: N_1  and  C_12
REMARK    2  A    between atoms: C_8  and  N_18
REMARK    3  A    between atoms: N_18  and  C_20
REMARK    4  A    between atoms: C_23  and  S_26
REMARK    5  A    between atoms: S_26  and  N_29
REMARK                            x       y       z     vdW  Elec       q    Type
REMARK                         _______ _______ _______ _____ _____    ______ ____
ROOT
ATOM      1  N   UNL     1      35.235 -17.067 -22.185  0.00  0.00    -0.309 N 
ATOM      2  N   UNL     1      34.673 -16.347 -24.291  0.00  0.00    -0.321 NA
ATOM      3  N   UNL     1      33.425 -14.307 -24.524  0.00  0.00    -0.106 N 
ATOM      4  N   UNL     1      32.907 -13.548 -25.526  0.00  0.00    -0.139 NA
ATOM      5  N   UNL     1      33.957 -15.374 -26.391  0.00  0.00    -0.145 NA
ATOM      6  C   UNL     1      34.645 -16.169 -22.991  0.00  0.00    +0.196 C 
ATOM      7  C   UNL     1      33.970 -14.990 -22.344  0.00  0.00    +0.081 C 
ATOM      8  C   UNL     1      33.379 -14.091 -23.145  0.00  0.00    +0.140 C 
ATOM      9  C   UNL     1      34.064 -15.418 -25.078  0.00  0.00    +0.176 C 
ATOM     10  C   UNL     1      33.255 -14.233 -26.611  0.00  0.00    +0.230 C 
ATOM     11  H   UNL     1      35.192 -16.927 -21.212  0.00  0.00    +0.149 HD
ENDROOT
BRANCH   1  12
ATOM     12  C   UNL     1      35.936 -18.234 -22.688  0.00  0.00    +0.071 C 
ATOM     13  C   UNL     1      37.183 -18.504 -21.841  0.00  0.00    +0.020 C 
ATOM     14  C   UNL     1      34.996 -19.443 -22.707  0.00  0.00    +0.020 C 
ATOM     15  C   UNL     1      36.848 -19.025 -20.443  0.00  0.00    +0.002 C 
ATOM     16  C   UNL     1      34.669 -19.960 -21.307  0.00  0.00    +0.002 C 
ATOM     17  C   UNL     1      35.933 -20.243 -20.500  0.00  0.00    +0.000 C 
ENDBRANCH   1  12
BRANCH   8  18
ATOM     18  N   UNL     1      32.730 -12.975 -22.699  0.00  0.00    -0.299 N 
ATOM     19  H   UNL     1      31.901 -13.134 -22.193  0.00  0.00    +0.153 HD
BRANCH  18  20
ATOM     20  C   UNL     1      33.093 -11.635 -22.870  0.00  0.00    +0.049 C 
ATOM     21  C   UNL     1      34.208 -11.307 -23.643  0.00  0.00    +0.016 C 
ATOM     22  C   UNL     1      32.341 -10.626 -22.268  0.00  0.00    +0.016 C 
ATOM     23  C   UNL     1      33.817  -8.962 -23.210  0.00  0.00    +0.122 C 
ATOM     24  C   UNL     1      34.569  -9.970 -23.813  0.00  0.00    +0.021 C 
ATOM     25  C   UNL     1      32.703  -9.290 -22.439  0.00  0.00    +0.021 C 
BRANCH  23  26
ATOM     26  S   UNL     1      34.270  -7.290 -23.424  0.00  0.00    +0.057 S 
ATOM     27  O   UNL     1      35.694  -7.161 -23.148  0.00  0.00    -0.153 OA
ATOM     28  O   UNL     1      33.735  -6.823 -24.695  0.00  0.00    -0.153 OA
BRANCH  26  29
ATOM     29  N   UNL     1      33.395  -6.550 -22.156  0.00  0.00    -0.203 NA
ATOM     30  H   UNL     1      33.386  -7.165 -21.344  0.00  0.00    +0.144 HD
ATOM     31  H   UNL     1      32.437  -6.375 -22.461  0.00  0.00    +0.144 HD
ENDBRANCH  26  29
ENDBRANCH  23  26
ENDBRANCH  18  20
ENDBRANCH   8  18
TORSDOF 5
ENDMDL
MODEL 4
REMARK VINA RESULT:      -9.8      9.463     14.379
REMARK  Name = 23586146
REMARK  5 active torsions:
REMARK  status: ('A' for Active; 'I' for Inactive)
REMARK    1  A    between atoms: N_1  and  C_12
REMARK    2  A    between atoms: C_8  and  N_18
REMARK    3  A    between atoms: N_18  and  C_20
REMARK    4  A    between atoms: C_23  and  S_26
REMARK    5  A    between atoms: S_26  and  N_29
REMARK                            x       y       z     vdW  Elec       q    Type
REMARK                         _______ _______ _______ _____ _____    ______ ____
ROOT
ATOM      1  N   UNL     1      33.498  -8.179 -23.215  0.00  0.00    -0.309 N 
ATOM      2  N   UNL     1      32.693  -8.537 -21.096  0.00  0.00    -0.321 NA
ATOM      3  N   UNL     1      31.849 -10.713 -20.528  0.00  0.00    -0.106 N 
ATOM      4  N   UNL     1      31.306 -11.337 -19.449  0.00  0.00    -0.139 NA
ATOM      5  N   UNL     1      31.790  -9.172 -18.939  0.00  0.00    -0.145 NA
ATOM      6  C   UNL     1      32.952  -8.994 -22.298  0.00  0.00    +0.196 C 
ATOM      7  C   UNL     1      32.659 -10.411 -22.712  0.00  0.00    +0.081 C 
ATOM      8  C   UNL     1      32.113 -11.228 -21.800  0.00  0.00    +0.140 C 
ATOM      9  C   UNL     1      32.138  -9.389 -20.192  0.00  0.00    +0.176 C 
ATOM     10  C   UNL     1      31.297 -10.370 -18.537  0.00  0.00    +0.230 C 
ATOM     11  H   UNL     1      33.671  -8.533 -24.117  0.00  0.00    +0.149 HD
ENDROOT
BRANCH   1  12
ATOM     12  C   UNL     1      33.846  -6.799 -22.933  0.00  0.00    +0.071 C 
ATOM     13  C   UNL     1      35.171  -6.440 -23.612  0.00  0.00    +0.020 C 
ATOM     14  C   UNL     1      32.714  -5.870 -23.383  0.00  0.00    +0.020 C 
ATOM     15  C   UNL     1      35.048  -6.338 -25.133  0.00  0.00    +0.002 C 
ATOM     16  C   UNL     1      32.600  -5.769 -24.904  0.00  0.00    +0.002 C 
ATOM     17  C   UNL     1      33.930  -5.386 -25.545  0.00  0.00    +0.000 C 
ENDBRANCH   1  12
BRANCH   8  18
ATOM     18  N   UNL     1      31.794 -12.535 -22.033  0.00  0.00    -0.299 N 
ATOM     19  H   UNL     1      30.849 -12.717 -22.237  0.00  0.00    +0.153 HD
BRANCH  18  20
ATOM     20  C   UNL     1      32.640 -13.650 -22.019  0.00  0.00    +0.049 C 
ATOM     21  C   UNL     1      33.250 -14.078 -23.199  0.00  0.00    +0.016 C 
ATOM     22  C   UNL     1      32.874 -14.334 -20.826  0.00  0.00    +0.016 C 
ATOM     23  C   UNL     1      34.326 -15.873 -21.991  0.00  0.00    +0.122 C 
ATOM     24  C   UNL     1      34.093 -15.189 -23.185  0.00  0.00    +0.021 C 
ATOM     25  C   UNL     1      33.717 -15.445 -20.812  0.00  0.00    +0.021 C 
BRANCH  23  26
ATOM     26  S   UNL     1      35.382 -17.263 -21.974  0.00  0.00    +0.057 S 
ATOM     27  O   UNL     1      36.623 -16.906 -22.648  0.00  0.00    -0.153 OA
ATOM     28  O   UNL     1      35.422 -17.799 -20.621  0.00  0.00    -0.153 OA
BRANCH  26  29
ATOM     29  N   UNL     1      34.509 -18.347 -22.967  0.00  0.00    -0.203 NA
ATOM     30  H   UNL     1      34.068 -17.832 -23.727  0.00  0.00    +0.144 HD
ATOM     31  H   UNL     1      33.793 -18.814 -22.412  0.00  0.00    +0.144 HD
ENDBRANCH  26  29
ENDBRANCH  23  26
ENDBRANCH  18  20
ENDBRANCH   8  18
TORSDOF 5
ENDMDL
MODEL 5
REMARK VINA RESULT:      -9.8      4.495      8.482
REMARK  Name = 23586146
REMARK  5 active torsions:
REMARK  status: ('A' for Active; 'I' for Inactive)
REMARK    1  A    between atoms: N_1  and  C_12
REMARK    2  A    between atoms: C_8  and  N_18
REMARK    3  A    between atoms: N_18  and  C_20
REMARK    4  A    between atoms: C_23  and  S_26
REMARK    5  A    between atoms: S_26  and  N_29
REMARK                            x       y       z     vdW  Elec       q    Type
REMARK                         _______ _______ _______ _____ _____    ______ ____
ROOT
ATOM      1  N   UNL     1      35.565 -20.264 -20.475  0.00  0.00    -0.309 N 
ATOM      2  N   UNL     1      34.033 -21.405 -19.202  0.00  0.00    -0.321 NA
ATOM      3  N   UNL     1      34.811 -22.691 -17.328  0.00  0.00    -0.106 N 
ATOM      4  N   UNL     1      34.283 -23.480 -16.354  0.00  0.00    -0.139 NA
ATOM      5  N   UNL     1      32.629 -22.695 -17.708  0.00  0.00    -0.145 NA
ATOM      6  C   UNL     1      35.279 -21.067 -19.438  0.00  0.00    +0.196 C 
ATOM      7  C   UNL     1      36.427 -21.546 -18.591  0.00  0.00    +0.081 C 
ATOM      8  C   UNL     1      36.147 -22.349 -17.554  0.00  0.00    +0.140 C 
ATOM      9  C   UNL     1      33.780 -22.221 -18.144  0.00  0.00    +0.176 C 
ATOM     10  C   UNL     1      32.984 -23.443 -16.633  0.00  0.00    +0.230 C 
ATOM     11  H   UNL     1      36.506 -20.033 -20.648  0.00  0.00    +0.149 HD
ENDROOT
BRANCH   1  12
ATOM     12  C   UNL     1      34.545 -19.720 -21.353  0.00  0.00    +0.071 C 
ATOM     13  C   UNL     1      34.118 -18.331 -20.867  0.00  0.00    +0.020 C 
ATOM     14  C   UNL     1      35.061 -19.676 -22.794  0.00  0.00    +0.020 C 
ATOM     15  C   UNL     1      35.197 -17.270 -21.085  0.00  0.00    +0.002 C 
ATOM     16  C   UNL     1      36.136 -18.611 -23.007  0.00  0.00    +0.002 C 
ATOM     17  C   UNL     1      35.669 -17.237 -22.535  0.00  0.00    +0.000 C 
ENDBRANCH   1  12
BRANCH   8  18
ATOM     18  N   UNL     1      37.084 -22.858 -16.702  0.00  0.00    -0.299 N 
ATOM     19  H   UNL     1      38.008 -22.876 -17.041  0.00  0.00    +0.153 HD
BRANCH  18  20
ATOM     20  C   UNL     1      36.900 -23.357 -15.407  0.00  0.00    +0.049 C 
ATOM     21  C   UNL     1      36.761 -22.477 -14.333  0.00  0.00    +0.016 C 
ATOM     22  C   UNL     1      36.856 -24.734 -15.189  0.00  0.00    +0.016 C 
ATOM     23  C   UNL     1      36.532 -24.352 -12.826  0.00  0.00    +0.122 C 
ATOM     24  C   UNL     1      36.576 -22.974 -13.043  0.00  0.00    +0.021 C 
ATOM     25  C   UNL     1      36.672 -25.231 -13.900  0.00  0.00    +0.021 C 
BRANCH  23  26
ATOM     26  S   UNL     1      36.302 -24.973 -11.212  0.00  0.00    +0.057 S 
ATOM     27  O   UNL     1      37.139 -24.206 -10.300  0.00  0.00    -0.153 OA
ATOM     28  O   UNL     1      34.872 -25.087 -10.958  0.00  0.00    -0.153 OA
BRANCH  26  29
ATOM     29  N   UNL     1      36.957 -26.544 -11.370  0.00  0.00    -0.203 NA
ATOM     30  H   UNL     1      37.965 -26.509 -11.223  0.00  0.00    +0.144 HD
ATOM     31  H   UNL     1      36.762 -26.901 -12.305  0.00  0.00    +0.144 HD
ENDBRANCH  26  29
ENDBRANCH  23  26
ENDBRANCH  18  20
ENDBRANCH   8  18
TORSDOF 5
ENDMDL
MODEL 6
REMARK VINA RESULT:      -9.1      8.866     14.014
REMARK  Name = 23586146
REMARK  5 active torsions:
REMARK  status: ('A' for Active; 'I' for Inactive)
REMARK    1  A    between atoms: N_1  and  C_12
REMARK    2  A    between atoms: C_8  and  N_18
REMARK    3  A    between atoms: N_18  and  C_20
REMARK    4  A    between atoms: C_23  and  S_26
REMARK    5  A    between atoms: S_26  and  N_29
REMARK                            x       y       z     vdW  Elec       q    Type
REMARK                         _______ _______ _______ _____ _____    ______ ____
ROOT
ATOM      1  N   UNL     1      34.562  -8.726 -23.742  0.00  0.00    -0.309 N 
ATOM      2  N   UNL     1      33.190  -9.729 -22.199  0.00  0.00    -0.321 NA
ATOM      3  N   UNL     1      32.691 -12.067 -22.437  0.00  0.00    -0.106 N 
ATOM      4  N   UNL     1      31.965 -13.017 -21.789  0.00  0.00    -0.139 NA
ATOM      5  N   UNL     1      31.776 -11.019 -20.714  0.00  0.00    -0.145 NA
ATOM      6  C   UNL     1      33.928  -9.816 -23.281  0.00  0.00    +0.196 C 
ATOM      7  C   UNL     1      34.101 -11.099 -24.047  0.00  0.00    +0.081 C 
ATOM      8  C   UNL     1      33.469 -12.191 -23.591  0.00  0.00    +0.140 C 
ATOM      9  C   UNL     1      32.561 -10.853 -21.760  0.00  0.00    +0.176 C 
ATOM     10  C   UNL     1      31.445 -12.334 -20.774  0.00  0.00    +0.230 C 
ATOM     11  H   UNL     1      35.098  -8.805 -24.563  0.00  0.00    +0.149 HD
ENDROOT
BRANCH   1  12
ATOM     12  C   UNL     1      34.491  -7.436 -23.080  0.00  0.00    +0.071 C 
ATOM     13  C   UNL     1      35.481  -6.460 -23.723  0.00  0.00    +0.020 C 
ATOM     14  C   UNL     1      33.057  -6.899 -23.131  0.00  0.00    +0.020 C 
ATOM     15  C   UNL     1      35.054  -6.021 -25.125  0.00  0.00    +0.002 C 
ATOM     16  C   UNL     1      32.639  -6.458 -24.534  0.00  0.00    +0.002 C 
ATOM     17  C   UNL     1      33.633  -5.468 -25.133  0.00  0.00    +0.000 C 
ENDBRANCH   1  12
BRANCH   8  18
ATOM     18  N   UNL     1      33.535 -13.420 -24.182  0.00  0.00    -0.299 N 
ATOM     19  H   UNL     1      33.164 -13.478 -25.092  0.00  0.00    +0.153 HD
BRANCH  18  20
ATOM     20  C   UNL     1      34.062 -14.606 -23.660  0.00  0.00    +0.049 C 
ATOM     21  C   UNL     1      34.348 -14.703 -22.298  0.00  0.00    +0.016 C 
ATOM     22  C   UNL     1      34.302 -15.692 -24.502  0.00  0.00    +0.016 C 
ATOM     23  C   UNL     1      35.113 -16.972 -22.621  0.00  0.00    +0.122 C 
ATOM     24  C   UNL     1      34.873 -15.887 -21.778  0.00  0.00    +0.021 C 
ATOM     25  C   UNL     1      34.828 -16.875 -23.982  0.00  0.00    +0.021 C 
BRANCH  23  26
ATOM     26  S   UNL     1      35.771 -18.452 -21.969  0.00  0.00    +0.057 S 
ATOM     27  O   UNL     1      37.220 -18.410 -22.105  0.00  0.00    -0.153 OA
ATOM     28  O   UNL     1      35.173 -18.689 -20.662  0.00  0.00    -0.153 OA
BRANCH  26  29
ATOM     29  N   UNL     1      35.148 -19.599 -23.072  0.00  0.00    -0.203 NA
ATOM     30  H   UNL     1      34.818 -19.122 -23.910  0.00  0.00    +0.144 HD
ATOM     31  H   UNL     1      34.372 -20.102 -22.639  0.00  0.00    +0.144 HD
ENDBRANCH  26  29
ENDBRANCH  23  26
ENDBRANCH  18  20
ENDBRANCH   8  18
TORSDOF 5
ENDMDL
MODEL 7
REMARK VINA RESULT:      -8.9      8.076     11.451
REMARK  Name = 23586146
REMARK  5 active torsions:
REMARK  status: ('A' for Active; 'I' for Inactive)
REMARK    1  A    between atoms: N_1  and  C_12
REMARK    2  A    between atoms: C_8  and  N_18
REMARK    3  A    between atoms: N_18  and  C_20
REMARK    4  A    between atoms: C_23  and  S_26
REMARK    5  A    between atoms: S_26  and  N_29
REMARK                            x       y       z     vdW  Elec       q    Type
REMARK                         _______ _______ _______ _____ _____    ______ ____
ROOT
ATOM      1  N   UNL     1      35.414 -16.874 -21.640  0.00  0.00    -0.309 N 
ATOM      2  N   UNL     1      34.920 -16.219 -23.784  0.00  0.00    -0.321 NA
ATOM      3  N   UNL     1      33.294 -14.482 -24.120  0.00  0.00    -0.106 N 
ATOM      4  N   UNL     1      32.726 -13.817 -25.161  0.00  0.00    -0.139 NA
ATOM      5  N   UNL     1      34.222 -15.349 -25.935  0.00  0.00    -0.145 NA
ATOM      6  C   UNL     1      34.727 -16.095 -22.492  0.00  0.00    +0.196 C 
ATOM      7  C   UNL     1      33.756 -15.107 -21.904  0.00  0.00    +0.081 C 
ATOM      8  C   UNL     1      33.067 -14.328 -22.750  0.00  0.00    +0.140 C 
ATOM      9  C   UNL     1      34.207 -15.414 -24.618  0.00  0.00    +0.176 C 
ATOM     10  C   UNL     1      33.318 -14.376 -26.212  0.00  0.00    +0.230 C 
ATOM     11  H   UNL     1      35.246 -16.780 -20.675  0.00  0.00    +0.149 HD
ENDROOT
BRANCH   1  12
ATOM     12  C   UNL     1      36.394 -17.849 -22.082  0.00  0.00    +0.071 C 
ATOM     13  C   UNL     1      37.050 -18.521 -20.872  0.00  0.00    +0.020 C 
ATOM     14  C   UNL     1      35.732 -18.877 -23.006  0.00  0.00    +0.020 C 
ATOM     15  C   UNL     1      36.103 -19.468 -20.134  0.00  0.00    +0.002 C 
ATOM     16  C   UNL     1      34.790 -19.822 -22.261  0.00  0.00    +0.002 C 
ATOM     17  C   UNL     1      35.483 -20.492 -21.078  0.00  0.00    +0.000 C 
ENDBRANCH   1  12
BRANCH   8  18
ATOM     18  N   UNL     1      32.155 -13.390 -22.361  0.00  0.00    -0.299 N 
ATOM     19  H   UNL     1      31.246 -13.723 -22.185  0.00  0.00    +0.153 HD
BRANCH  18  20
ATOM     20  C   UNL     1      32.347 -12.015 -22.179  0.00  0.00    +0.049 C 
ATOM     21  C   UNL     1      31.759 -11.367 -21.092  0.00  0.00    +0.016 C 
ATOM     22  C   UNL     1      33.125 -11.294 -23.084  0.00  0.00    +0.016 C 
ATOM     23  C   UNL     1      32.730  -9.276 -21.816  0.00  0.00    +0.122 C 
ATOM     24  C   UNL     1      31.952  -9.997 -20.911  0.00  0.00    +0.021 C 
ATOM     25  C   UNL     1      33.317  -9.925 -22.902  0.00  0.00    +0.021 C 
BRANCH  23  26
ATOM     26  S   UNL     1      32.970  -7.562 -21.588  0.00  0.00    +0.057 S 
ATOM     27  O   UNL     1      34.172  -7.166 -22.309  0.00  0.00    -0.153 OA
ATOM     28  O   UNL     1      31.711  -6.879 -21.852  0.00  0.00    -0.153 OA
BRANCH  26  29
ATOM     29  N   UNL     1      33.288  -7.497 -19.910  0.00  0.00    -0.203 NA
ATOM     30  H   UNL     1      32.877  -8.311 -19.455  0.00  0.00    +0.144 HD
ATOM     31  H   UNL     1      32.881  -6.647 -19.520  0.00  0.00    +0.144 HD
ENDBRANCH  26  29
ENDBRANCH  23  26
ENDBRANCH  18  20
ENDBRANCH   8  18
TORSDOF 5
ENDMDL
