MODEL 1
REMARK VINA RESULT:     -11.9      0.000      0.000
REMARK  Name = 446560
REMARK  8 active torsions:
REMARK  status: ('A' for Active; 'I' for Inactive)
REMARK    1  A    between atoms: C_1  and  C_19
REMARK    2  A    between atoms: C_2  and  C_9
REMARK    3  A    between atoms: N_8  and  CA_11
REMARK    4  A    between atoms: CA_11  and  CB_12
REMARK    5  A    between atoms: CA_11  and  C_16
REMARK    6  A    between atoms: C_16  and  O_17
REMARK    7  A    between atoms: C_19  and  C_20
REMARK    8  A    between atoms: C_20  and  C_26
REMARK                            x       y       z     vdW  Elec       q    Type
REMARK                         _______ _______ _______ _____ _____    ______ ____
ROOT
ATOM      1  C   UNL     1      34.924 -20.232 -20.529  0.00  0.00    -0.022 C 
ATOM      2  C   UNL     1      33.742 -22.005 -18.776  0.00  0.00    +0.053 C 
ATOM      3  C   UNL     1      33.539 -20.232 -20.364  0.00  0.00    -0.004 C 
ATOM      4  C   UNL     1      35.712 -21.130 -19.808  0.00  0.00    -0.004 C 
ATOM      5  C   UNL     1      32.941 -21.127 -19.478  0.00  0.00    +0.004 C 
ATOM      6  C   UNL     1      35.113 -22.027 -18.922  0.00  0.00    +0.004 C 
ENDROOT
BRANCH   2   9
ATOM      7  O   UNL     1      33.537 -24.107 -17.759  0.00  0.00    -0.270 OA
ATOM      8  N   UNL     1      32.064 -22.453 -17.071  0.00  0.00    -0.293 N 
ATOM      9  C   ACE A   0      33.107 -22.959 -17.831  0.00  0.00    +0.246 C 
ATOM     10  H   UNL     1      31.793 -21.516 -17.204  0.00  0.00    +0.150 HD
BRANCH   8  11
ATOM     11  CA  UNL     1      31.363 -23.250 -16.091  0.00  0.00    +0.171 C 
BRANCH  11  12
ATOM     12  CB  UNL     1      31.841 -22.887 -14.668  0.00  0.00    +0.029 C 
ATOM     13  CG1 UNL     1      33.204 -23.504 -14.340  0.00  0.00    +0.002 C 
ATOM     14  CG2 UNL     1      30.823 -23.242 -13.580  0.00  0.00    +0.002 C 
ENDBRANCH  11  12
BRANCH  11  16
ATOM     15  OXT UNL     1      29.267 -22.106 -16.533  0.00  0.00    -0.248 OA
ATOM     16  C   UNL     1      29.854 -23.154 -16.292  0.00  0.00    +0.332 C 
BRANCH  16  17
ATOM     17  O   UNL     1      29.187 -24.324 -16.132  0.00  0.00    -0.479 OA
ATOM     18  H   UNL     1      28.406 -24.351 -15.614  0.00  0.00    +0.295 HD
ENDBRANCH  16  17
ENDBRANCH  11  16
ENDBRANCH   8  11
ENDBRANCH   2   9
BRANCH   1  19
ATOM     19  C   UNL     1      35.562 -19.274 -21.477  0.00  0.00    +0.031 C 
BRANCH  19  20
ATOM     20  C   UNL     1      35.163 -17.801 -21.250  0.00  0.00    +0.033 C 
BRANCH  20  26
ATOM     21  O   UNL     1      34.513 -14.789 -20.468  0.00  0.00    -0.209 OA
ATOM     22  N   UNL     1      34.821 -16.550 -24.682  0.00  0.00    -0.300 N 
ATOM     23  N   UNL     1      34.311 -14.204 -24.472  0.00  0.00    -0.264 N 
ATOM     24  N   UNL     1      34.165 -13.347 -22.240  0.00  0.00    -0.302 NA
ATOM     25  N   UNL     1      33.828 -11.973 -24.124  0.00  0.00    -0.320 N 
ATOM     26  C   UNL     1      34.969 -17.032 -22.525  0.00  0.00    +0.007 C 
ATOM     27  C   UNL     1      34.668 -15.670 -22.632  0.00  0.00    +0.120 C 
ATOM     28  C   UNL     1      34.586 -15.417 -23.975  0.00  0.00    +0.115 C 
ATOM     29  C   UNL     1      35.063 -17.566 -23.783  0.00  0.00    +0.059 C 
ATOM     30  C   UNL     1      34.449 -14.595 -21.676  0.00  0.00    +0.209 C 
ATOM     31  C   UNL     1      34.105 -13.187 -23.547  0.00  0.00    +0.248 C 
ATOM     32  H   UNL     1      34.820 -16.633 -25.663  0.00  0.00    +0.153 HD
ATOM     33  H   UNL     1      34.256 -14.041 -25.442  0.00  0.00    +0.157 HD
ATOM     34  H   UNL     1      33.791 -11.891 -25.104  0.00  0.00    +0.146 HD
ATOM     35  H   UNL     1      33.667 -11.184 -23.557  0.00  0.00    +0.146 HD
ENDBRANCH  20  26
ENDBRANCH  19  20
ENDBRANCH   1  19
TORSDOF 8
ENDMDL
MODEL 2
REMARK VINA RESULT:     -11.7      2.021      2.710
REMARK  Name = 446560
REMARK  8 active torsions:
REMARK  status: ('A' for Active; 'I' for Inactive)
REMARK    1  A    between atoms: C_1  and  C_19
REMARK    2  A    between atoms: C_2  and  C_9
REMARK    3  A    between atoms: N_8  and  CA_11
REMARK    4  A    between atoms: CA_11  and  CB_12
REMARK    5  A    between atoms: CA_11  and  C_16
REMARK    6  A    between atoms: C_16  and  O_17
REMARK    7  A    between atoms: C_19  and  C_20
REMARK    8  A    between atoms: C_20  and  C_26
REMARK                            x       y       z     vdW  Elec       q    Type
REMARK                         _______ _______ _______ _____ _____    ______ ____
ROOT
ATOM      1  C   UNL     1      35.760 -19.765 -20.759  0.00  0.00    -0.022 C 
ATOM      2  C   UNL     1      34.751 -21.731 -19.107  0.00  0.00    +0.053 C 
ATOM      3  C   UNL     1      34.382 -19.970 -20.679  0.00  0.00    -0.004 C 
ATOM      4  C   UNL     1      36.628 -20.556 -20.005  0.00  0.00    -0.004 C 
ATOM      5  C   UNL     1      33.872 -20.963 -19.843  0.00  0.00    +0.004 C 
ATOM      6  C   UNL     1      36.117 -21.550 -19.170  0.00  0.00    +0.004 C 
ENDROOT
BRANCH   2   9
ATOM      7  O   UNL     1      33.440 -23.628 -18.681  0.00  0.00    -0.270 OA
ATOM      8  N   UNL     1      34.644 -22.754 -16.902  0.00  0.00    -0.293 N 
ATOM      9  C   ACE A   0      34.208 -22.789 -18.217  0.00  0.00    +0.246 C 
ATOM     10  H   UNL     1      35.262 -22.038 -16.626  0.00  0.00    +0.150 HD
BRANCH   8  11
ATOM     11  CA  UNL     1      34.225 -23.729 -15.921  0.00  0.00    +0.171 C 
BRANCH  11  12
ATOM     12  CB  UNL     1      35.371 -24.008 -14.924  0.00  0.00    +0.029 C 
ATOM     13  CG1 UNL     1      36.605 -23.145 -15.205  0.00  0.00    +0.002 C 
ATOM     14  CG2 UNL     1      35.764 -25.487 -14.855  0.00  0.00    +0.002 C 
ENDBRANCH  11  12
BRANCH  11  16
ATOM     15  OXT UNL     1      31.819 -23.418 -15.815  0.00  0.00    -0.248 OA
ATOM     16  C   UNL     1      32.910 -23.313 -15.268  0.00  0.00    +0.332 C 
BRANCH  16  17
ATOM     17  O   UNL     1      33.042 -22.759 -14.037  0.00  0.00    -0.479 OA
ATOM     18  H   UNL     1      32.972 -23.297 -13.273  0.00  0.00    +0.295 HD
ENDBRANCH  16  17
ENDBRANCH  11  16
ENDBRANCH   8  11
ENDBRANCH   2   9
BRANCH   1  19
ATOM     19  C   UNL     1      36.304 -18.703 -21.653  0.00  0.00    +0.031 C 
BRANCH  19  20
ATOM     20  C   UNL     1      35.306 -18.200 -22.716  0.00  0.00    +0.033 C 
BRANCH  20  26
ATOM     21  O   UNL     1      34.729 -16.981 -25.595  0.00  0.00    -0.209 OA
ATOM     22  N   UNL     1      34.438 -14.825 -21.567  0.00  0.00    -0.300 N 
ATOM     23  N   UNL     1      33.919 -13.572 -23.560  0.00  0.00    -0.264 N 
ATOM     24  N   UNL     1      34.091 -14.760 -25.633  0.00  0.00    -0.302 NA
ATOM     25  N   UNL     1      33.451 -12.494 -25.547  0.00  0.00    -0.320 N 
ATOM     26  C   UNL     1      34.912 -16.762 -22.530  0.00  0.00    +0.007 C 
ATOM     27  C   UNL     1      34.573 -15.860 -23.545  0.00  0.00    +0.120 C 
ATOM     28  C   UNL     1      34.289 -14.682 -22.908  0.00  0.00    +0.115 C 
ATOM     29  C   UNL     1      34.827 -16.124 -21.322  0.00  0.00    +0.059 C 
ATOM     30  C   UNL     1      34.479 -15.942 -24.994  0.00  0.00    +0.209 C 
ATOM     31  C   UNL     1      33.834 -13.666 -24.944  0.00  0.00    +0.248 C 
ATOM     32  H   UNL     1      34.295 -14.125 -20.889  0.00  0.00    +0.153 HD
ATOM     33  H   UNL     1      33.720 -12.733 -23.084  0.00  0.00    +0.157 HD
ATOM     34  H   UNL     1      33.267 -11.696 -25.001  0.00  0.00    +0.146 HD
ATOM     35  H   UNL     1      33.358 -12.452 -26.526  0.00  0.00    +0.146 HD
ENDBRANCH  20  26
ENDBRANCH  19  20
ENDBRANCH   1  19
TORSDOF 8
ENDMDL
MODEL 3
REMARK VINA RESULT:     -11.5      1.702      2.280
REMARK  Name = 446560
REMARK  8 active torsions:
REMARK  status: ('A' for Active; 'I' for Inactive)
REMARK    1  A    between atoms: C_1  and  C_19
REMARK    2  A    between atoms: C_2  and  C_9
REMARK    3  A    between atoms: N_8  and  CA_11
REMARK    4  A    between atoms: CA_11  and  CB_12
REMARK    5  A    between atoms: CA_11  and  C_16
REMARK    6  A    between atoms: C_16  and  O_17
REMARK    7  A    between atoms: C_19  and  C_20
REMARK    8  A    between atoms: C_20  and  C_26
REMARK                            x       y       z     vdW  Elec       q    Type
REMARK                         _______ _______ _______ _____ _____    ______ ____
ROOT
ATOM      1  C   UNL     1      35.295 -20.148 -20.583  0.00  0.00    -0.022 C 
ATOM      2  C   UNL     1      34.513 -22.040 -18.734  0.00  0.00    +0.053 C 
ATOM      3  C   UNL     1      33.938 -20.367 -20.339  0.00  0.00    -0.004 C 
ATOM      4  C   UNL     1      36.256 -20.887 -19.893  0.00  0.00    -0.004 C 
ATOM      5  C   UNL     1      33.543 -21.322 -19.404  0.00  0.00    +0.004 C 
ATOM      6  C   UNL     1      35.860 -21.844 -18.958  0.00  0.00    +0.004 C 
ENDROOT
BRANCH   2   9
ATOM      7  O   UNL     1      33.218 -23.865 -18.036  0.00  0.00    -0.270 OA
ATOM      8  N   UNL     1      34.761 -23.026 -16.523  0.00  0.00    -0.293 N 
ATOM      9  C   ACE A   0      34.094 -23.058 -17.737  0.00  0.00    +0.246 C 
ATOM     10  H   UNL     1      35.449 -22.337 -16.379  0.00  0.00    +0.150 HD
BRANCH   8  11
ATOM     11  CA  UNL     1      34.482 -23.966 -15.461  0.00  0.00    +0.171 C 
BRANCH  11  12
ATOM     12  CB  UNL     1      35.795 -24.389 -14.767  0.00  0.00    +0.029 C 
ATOM     13  CG1 UNL     1      37.007 -23.618 -15.301  0.00  0.00    +0.002 C 
ATOM     14  CG2 UNL     1      36.055 -25.897 -14.833  0.00  0.00    +0.002 C 
ENDBRANCH  11  12
BRANCH  11  16
ATOM     15  OXT UNL     1      32.347 -22.957 -14.893  0.00  0.00    -0.248 OA
ATOM     16  C   UNL     1      33.418 -23.418 -14.515  0.00  0.00    +0.332 C 
BRANCH  16  17
ATOM     17  O   UNL     1      33.767 -23.430 -13.205  0.00  0.00    -0.479 OA
ATOM     18  H   UNL     1      33.199 -23.045 -12.566  0.00  0.00    +0.295 HD
ENDBRANCH  16  17
ENDBRANCH  11  16
ENDBRANCH   8  11
ENDBRANCH   2   9
BRANCH   1  19
ATOM     19  C   UNL     1      35.715 -19.126 -21.584  0.00  0.00    +0.031 C 
BRANCH  19  20
ATOM     20  C   UNL     1      35.112 -17.726 -21.348  0.00  0.00    +0.033 C 
BRANCH  20  26
ATOM     21  O   UNL     1      34.526 -14.708 -20.535  0.00  0.00    -0.209 OA
ATOM     22  N   UNL     1      34.708 -16.450 -24.765  0.00  0.00    -0.300 N 
ATOM     23  N   UNL     1      34.237 -14.098 -24.530  0.00  0.00    -0.264 N 
ATOM     24  N   UNL     1      34.157 -13.252 -22.291  0.00  0.00    -0.302 NA
ATOM     25  N   UNL     1      33.796 -11.863 -24.160  0.00  0.00    -0.320 N 
ATOM     26  C   UNL     1      34.900 -16.946 -22.614  0.00  0.00    +0.007 C 
ATOM     27  C   UNL     1      34.616 -15.579 -22.707  0.00  0.00    +0.120 C 
ATOM     28  C   UNL     1      34.506 -15.318 -24.046  0.00  0.00    +0.115 C 
ATOM     29  C   UNL     1      34.955 -17.474 -23.877  0.00  0.00    +0.059 C 
ATOM     30  C   UNL     1      34.436 -14.506 -21.741  0.00  0.00    +0.209 C 
ATOM     31  C   UNL     1      34.068 -13.083 -23.595  0.00  0.00    +0.248 C 
ATOM     32  H   UNL     1      34.682 -16.528 -25.746  0.00  0.00    +0.153 HD
ATOM     33  H   UNL     1      34.161 -13.929 -25.498  0.00  0.00    +0.157 HD
ATOM     34  H   UNL     1      33.737 -11.774 -25.138  0.00  0.00    +0.146 HD
ATOM     35  H   UNL     1      33.660 -11.074 -23.585  0.00  0.00    +0.146 HD
ENDBRANCH  20  26
ENDBRANCH  19  20
ENDBRANCH   1  19
TORSDOF 8
ENDMDL
MODEL 4
REMARK VINA RESULT:     -11.4      3.012     10.715
REMARK  Name = 446560
REMARK  8 active torsions:
REMARK  status: ('A' for Active; 'I' for Inactive)
REMARK    1  A    between atoms: C_1  and  C_19
REMARK    2  A    between atoms: C_2  and  C_9
REMARK    3  A    between atoms: N_8  and  CA_11
REMARK    4  A    between atoms: CA_11  and  CB_12
REMARK    5  A    between atoms: CA_11  and  C_16
REMARK    6  A    between atoms: C_16  and  O_17
REMARK    7  A    between atoms: C_19  and  C_20
REMARK    8  A    between atoms: C_20  and  C_26
REMARK                            x       y       z     vdW  Elec       q    Type
REMARK                         _______ _______ _______ _____ _____    ______ ____
ROOT
ATOM      1  C   UNL     1      35.157 -17.040 -23.107  0.00  0.00    -0.022 C 
ATOM      2  C   UNL     1      34.345 -14.528 -23.911  0.00  0.00    +0.053 C 
ATOM      3  C   UNL     1      34.941 -16.776 -24.460  0.00  0.00    -0.004 C 
ATOM      4  C   UNL     1      34.961 -16.033 -22.160  0.00  0.00    -0.004 C 
ATOM      5  C   UNL     1      34.532 -15.507 -24.867  0.00  0.00    +0.004 C 
ATOM      6  C   UNL     1      34.550 -14.764 -22.568  0.00  0.00    +0.004 C 
ENDROOT
BRANCH   2   9
ATOM      7  O   UNL     1      33.357 -13.043 -25.432  0.00  0.00    -0.270 OA
ATOM      8  N   UNL     1      34.151 -12.148 -23.446  0.00  0.00    -0.293 N 
ATOM      9  C   ACE A   0      33.910 -13.176 -24.343  0.00  0.00    +0.246 C 
ATOM     10  H   UNL     1      34.603 -12.357 -22.597  0.00  0.00    +0.150 HD
BRANCH   8  11
ATOM     11  CA  UNL     1      33.764 -10.781 -23.712  0.00  0.00    +0.171 C 
BRANCH  11  12
ATOM     12  CB  UNL     1      32.949 -10.218 -22.528  0.00  0.00    +0.029 C 
ATOM     13  CG1 UNL     1      32.121 -11.302 -21.828  0.00  0.00    +0.002 C 
ATOM     14  CG2 UNL     1      32.054  -9.038 -22.917  0.00  0.00    +0.002 C 
ENDBRANCH  11  12
BRANCH  11  16
ATOM     15  OXT UNL     1      35.290  -8.900 -23.530  0.00  0.00    -0.248 OA
ATOM     16  C   UNL     1      34.975  -9.939 -24.100  0.00  0.00    +0.332 C 
BRANCH  16  17
ATOM     17  O   UNL     1      35.664 -10.401 -25.173  0.00  0.00    -0.479 OA
ATOM     18  H   UNL     1      35.487 -11.257 -25.509  0.00  0.00    +0.295 HD
ENDBRANCH  16  17
ENDBRANCH  11  16
ENDBRANCH   8  11
ENDBRANCH   2   9
BRANCH   1  19
ATOM     19  C   UNL     1      35.594 -18.398 -22.673  0.00  0.00    +0.031 C 
BRANCH  19  20
ATOM     20  C   UNL     1      34.610 -19.103 -21.717  0.00  0.00    +0.033 C 
BRANCH  20  26
ATOM     21  O   UNL     1      32.368 -20.847 -20.289  0.00  0.00    -0.209 OA
ATOM     22  N   UNL     1      36.865 -20.882 -19.435  0.00  0.00    -0.300 N 
ATOM     23  N   UNL     1      35.458 -22.355 -18.146  0.00  0.00    -0.264 N 
ATOM     24  N   UNL     1      33.116 -22.286 -18.644  0.00  0.00    -0.302 NA
ATOM     25  N   UNL     1      33.995 -23.713 -16.986  0.00  0.00    -0.320 N 
ATOM     26  C   UNL     1      35.288 -19.963 -20.690  0.00  0.00    +0.007 C 
ATOM     27  C   UNL     1      34.665 -20.881 -19.838  0.00  0.00    +0.120 C 
ATOM     28  C   UNL     1      35.672 -21.424 -19.085  0.00  0.00    +0.115 C 
ATOM     29  C   UNL     1      36.635 -19.968 -20.439  0.00  0.00    +0.059 C 
ATOM     30  C   UNL     1      33.292 -21.314 -19.632  0.00  0.00    +0.209 C 
ATOM     31  C   UNL     1      34.141 -22.759 -17.962  0.00  0.00    +0.248 C 
ATOM     32  H   UNL     1      37.741 -21.103 -19.042  0.00  0.00    +0.153 HD
ATOM     33  H   UNL     1      36.195 -22.733 -17.613  0.00  0.00    +0.157 HD
ATOM     34  H   UNL     1      34.783 -24.042 -16.498  0.00  0.00    +0.146 HD
ATOM     35  H   UNL     1      33.101 -24.069 -16.777  0.00  0.00    +0.146 HD
ENDBRANCH  20  26
ENDBRANCH  19  20
ENDBRANCH   1  19
TORSDOF 8
ENDMDL
MODEL 5
REMARK VINA RESULT:     -11.1      4.460     10.941
REMARK  Name = 446560
REMARK  8 active torsions:
REMARK  status: ('A' for Active; 'I' for Inactive)
REMARK    1  A    between atoms: C_1  and  C_19
REMARK    2  A    between atoms: C_2  and  C_9
REMARK    3  A    between atoms: N_8  and  CA_11
REMARK    4  A    between atoms: CA_11  and  CB_12
REMARK    5  A    between atoms: CA_11  and  C_16
REMARK    6  A    between atoms: C_16  and  O_17
REMARK    7  A    between atoms: C_19  and  C_20
REMARK    8  A    between atoms: C_20  and  C_26
REMARK                            x       y       z     vdW  Elec       q    Type
REMARK                         _______ _______ _______ _____ _____    ______ ____
ROOT
ATOM      1  C   UNL     1      34.237 -23.078 -16.004  0.00  0.00    -0.022 C 
ATOM      2  C   UNL     1      35.344 -22.067 -18.321  0.00  0.00    +0.053 C 
ATOM      3  C   UNL     1      33.474 -23.010 -17.170  0.00  0.00    -0.004 C 
ATOM      4  C   UNL     1      35.560 -22.635 -16.010  0.00  0.00    -0.004 C 
ATOM      5  C   UNL     1      34.033 -22.499 -18.341  0.00  0.00    +0.004 C 
ATOM      6  C   UNL     1      36.119 -22.123 -17.181  0.00  0.00    +0.004 C 
ENDROOT
BRANCH   2   9
ATOM      7  O   UNL     1      36.711 -22.226 -20.219  0.00  0.00    -0.270 OA
ATOM      8  N   UNL     1      35.551 -20.241 -19.916  0.00  0.00    -0.293 N 
ATOM      9  C   ACE A   0      35.941 -21.524 -19.567  0.00  0.00    +0.246 C 
ATOM     10  H   UNL     1      34.928 -19.759 -19.325  0.00  0.00    +0.150 HD
BRANCH   8  11
ATOM     11  CA  UNL     1      36.026 -19.585 -21.113  0.00  0.00    +0.171 C 
BRANCH  11  12
ATOM     12  CB  UNL     1      34.930 -18.661 -21.684  0.00  0.00    +0.029 C 
ATOM     13  CG1 UNL     1      34.919 -18.654 -23.217  0.00  0.00    +0.002 C 
ATOM     14  CG2 UNL     1      35.008 -17.228 -21.149  0.00  0.00    +0.002 C 
ENDBRANCH  11  12
BRANCH  11  16
ATOM     15  OXT UNL     1      37.780 -18.613 -19.743  0.00  0.00    -0.248 OA
ATOM     16  C   UNL     1      37.363 -18.895 -20.860  0.00  0.00    +0.332 C 
BRANCH  16  17
ATOM     17  O   UNL     1      38.048 -18.562 -21.982  0.00  0.00    -0.479 OA
ATOM     18  H   UNL     1      37.586 -18.254 -22.737  0.00  0.00    +0.295 HD
ENDBRANCH  16  17
ENDBRANCH  11  16
ENDBRANCH   8  11
ENDBRANCH   2   9
BRANCH   1  19
ATOM     19  C   UNL     1      33.638 -23.624 -14.753  0.00  0.00    +0.031 C 
BRANCH  19  20
ATOM     20  C   UNL     1      34.325 -24.901 -14.228  0.00  0.00    +0.033 C 
BRANCH  20  26
ATOM     21  O   UNL     1      36.393 -27.016 -15.394  0.00  0.00    -0.209 OA
ATOM     22  N   UNL     1      37.228 -23.741 -12.307  0.00  0.00    -0.300 N 
ATOM     23  N   UNL     1      39.055 -25.170 -12.962  0.00  0.00    -0.264 N 
ATOM     24  N   UNL     1      38.550 -26.862 -14.581  0.00  0.00    -0.302 NA
ATOM     25  N   UNL     1      40.712 -26.608 -13.679  0.00  0.00    -0.320 N 
ATOM     26  C   UNL     1      35.655 -24.641 -13.582  0.00  0.00    +0.007 C 
ATOM     27  C   UNL     1      36.841 -25.347 -13.815  0.00  0.00    +0.120 C 
ATOM     28  C   UNL     1      37.781 -24.760 -13.011  0.00  0.00    +0.115 C 
ATOM     29  C   UNL     1      35.898 -23.659 -12.659  0.00  0.00    +0.059 C 
ATOM     30  C   UNL     1      37.211 -26.468 -14.665  0.00  0.00    +0.209 C 
ATOM     31  C   UNL     1      39.394 -26.242 -13.780  0.00  0.00    +0.248 C 
ATOM     32  H   UNL     1      37.693 -23.162 -11.660  0.00  0.00    +0.153 HD
ATOM     33  H   UNL     1      39.717 -24.735 -12.376  0.00  0.00    +0.157 HD
ATOM     34  H   UNL     1      41.313 -26.123 -13.070  0.00  0.00    +0.146 HD
ATOM     35  H   UNL     1      41.057 -27.357 -14.218  0.00  0.00    +0.146 HD
ENDBRANCH  20  26
ENDBRANCH  19  20
ENDBRANCH   1  19
TORSDOF 8
ENDMDL
MODEL 6
REMARK VINA RESULT:     -11.1      2.046      2.820
REMARK  Name = 446560
REMARK  8 active torsions:
REMARK  status: ('A' for Active; 'I' for Inactive)
REMARK    1  A    between atoms: C_1  and  C_19
REMARK    2  A    between atoms: C_2  and  C_9
REMARK    3  A    between atoms: N_8  and  CA_11
REMARK    4  A    between atoms: CA_11  and  CB_12
REMARK    5  A    between atoms: CA_11  and  C_16
REMARK    6  A    between atoms: C_16  and  O_17
REMARK    7  A    between atoms: C_19  and  C_20
REMARK    8  A    between atoms: C_20  and  C_26
REMARK                            x       y       z     vdW  Elec       q    Type
REMARK                         _______ _______ _______ _____ _____    ______ ____
ROOT
ATOM      1  C   UNL     1      34.753 -19.875 -20.824  0.00  0.00    -0.022 C 
ATOM      2  C   UNL     1      34.405 -21.858 -18.937  0.00  0.00    +0.053 C 
ATOM      3  C   UNL     1      35.863 -20.502 -20.257  0.00  0.00    -0.004 C 
ATOM      4  C   UNL     1      33.466 -20.251 -20.436  0.00  0.00    -0.004 C 
ATOM      5  C   UNL     1      35.687 -21.504 -19.304  0.00  0.00    +0.004 C 
ATOM      6  C   UNL     1      33.291 -21.253 -19.481  0.00  0.00    +0.004 C 
ENDROOT
BRANCH   2   9
ATOM      7  O   UNL     1      33.434 -23.844 -18.157  0.00  0.00    -0.270 OA
ATOM      8  N   UNL     1      34.977 -22.807 -16.771  0.00  0.00    -0.293 N 
ATOM      9  C   ACE A   0      34.216 -22.926 -17.922  0.00  0.00    +0.246 C 
ATOM     10  H   UNL     1      35.577 -22.032 -16.677  0.00  0.00    +0.150 HD
BRANCH   8  11
ATOM     11  CA  UNL     1      34.924 -23.780 -15.703  0.00  0.00    +0.171 C 
BRANCH  11  12
ATOM     12  CB  UNL     1      36.270 -23.817 -14.948  0.00  0.00    +0.029 C 
ATOM     13  CG1 UNL     1      37.316 -22.895 -15.584  0.00  0.00    +0.002 C 
ATOM     14  CG2 UNL     1      36.837 -25.232 -14.793  0.00  0.00    +0.002 C 
ENDBRANCH  11  12
BRANCH  11  16
ATOM     15  OXT UNL     1      32.914 -22.623 -14.979  0.00  0.00    -0.248 OA
ATOM     16  C   UNL     1      33.709 -23.541 -14.812  0.00  0.00    +0.332 C 
BRANCH  16  17
ATOM     17  O   UNL     1      33.595 -24.402 -13.770  0.00  0.00    -0.479 OA
ATOM     18  H   UNL     1      33.783 -25.312 -13.893  0.00  0.00    +0.295 HD
ENDBRANCH  16  17
ENDBRANCH  11  16
ENDBRANCH   8  11
ENDBRANCH   2   9
BRANCH   1  19
ATOM     19  C   UNL     1      34.942 -18.804 -21.843  0.00  0.00    +0.031 C 
BRANCH  19  20
ATOM     20  C   UNL     1      35.228 -17.410 -21.247  0.00  0.00    +0.033 C 
BRANCH  20  26
ATOM     21  O   UNL     1      33.255 -15.576 -19.558  0.00  0.00    -0.209 OA
ATOM     22  N   UNL     1      34.565 -14.964 -23.901  0.00  0.00    -0.300 N 
ATOM     23  N   UNL     1      33.048 -13.356 -22.941  0.00  0.00    -0.264 N 
ATOM     24  N   UNL     1      32.403 -13.736 -20.665  0.00  0.00    -0.302 NA
ATOM     25  N   UNL     1      31.599 -11.894 -21.896  0.00  0.00    -0.320 N 
ATOM     26  C   UNL     1      34.786 -16.280 -22.133  0.00  0.00    +0.007 C 
ATOM     27  C   UNL     1      33.914 -15.245 -21.780  0.00  0.00    +0.120 C 
ATOM     28  C   UNL     1      33.807 -14.459 -22.896  0.00  0.00    +0.115 C 
ATOM     29  C   UNL     1      35.182 -16.103 -23.432  0.00  0.00    +0.059 C 
ATOM     30  C   UNL     1      33.182 -14.893 -20.573  0.00  0.00    +0.209 C 
ATOM     31  C   UNL     1      32.355 -13.033 -21.780  0.00  0.00    +0.248 C 
ATOM     32  H   UNL     1      34.659 -14.585 -24.805  0.00  0.00    +0.153 HD
ATOM     33  H   UNL     1      32.983 -12.804 -23.754  0.00  0.00    +0.157 HD
ATOM     34  H   UNL     1      31.587 -11.395 -22.744  0.00  0.00    +0.146 HD
ATOM     35  H   UNL     1      31.068 -11.575 -21.130  0.00  0.00    +0.146 HD
ENDBRANCH  20  26
ENDBRANCH  19  20
ENDBRANCH   1  19
TORSDOF 8
ENDMDL
MODEL 7
REMARK VINA RESULT:     -11.1      2.432      3.288
REMARK  Name = 446560
REMARK  8 active torsions:
REMARK  status: ('A' for Active; 'I' for Inactive)
REMARK    1  A    between atoms: C_1  and  C_19
REMARK    2  A    between atoms: C_2  and  C_9
REMARK    3  A    between atoms: N_8  and  CA_11
REMARK    4  A    between atoms: CA_11  and  CB_12
REMARK    5  A    between atoms: CA_11  and  C_16
REMARK    6  A    between atoms: C_16  and  O_17
REMARK    7  A    between atoms: C_19  and  C_20
REMARK    8  A    between atoms: C_20  and  C_26
REMARK                            x       y       z     vdW  Elec       q    Type
REMARK                         _______ _______ _______ _____ _____    ______ ____
ROOT
ATOM      1  C   UNL     1      35.010 -20.812 -19.995  0.00  0.00    -0.022 C 
ATOM      2  C   UNL     1      34.716 -22.402 -17.759  0.00  0.00    +0.053 C 
ATOM      3  C   UNL     1      33.745 -21.272 -19.627  0.00  0.00    -0.004 C 
ATOM      4  C   UNL     1      36.126 -21.157 -19.232  0.00  0.00    -0.004 C 
ATOM      5  C   UNL     1      33.596 -22.075 -18.496  0.00  0.00    +0.004 C 
ATOM      6  C   UNL     1      35.977 -21.961 -18.102  0.00  0.00    +0.004 C 
ENDROOT
BRANCH   2   9
ATOM      7  O   UNL     1      33.429 -23.549 -16.171  0.00  0.00    -0.270 OA
ATOM      8  N   UNL     1      35.735 -23.684 -15.959  0.00  0.00    -0.293 N 
ATOM      9  C   ACE A   0      34.559 -23.256 -16.555  0.00  0.00    +0.246 C 
ATOM     10  H   UNL     1      36.593 -23.393 -16.343  0.00  0.00    +0.150 HD
BRANCH   8  11
ATOM     11  CA  UNL     1      35.746 -24.540 -14.795  0.00  0.00    +0.171 C 
BRANCH  11  12
ATOM     12  CB  UNL     1      37.064 -25.343 -14.737  0.00  0.00    +0.029 C 
ATOM     13  CG1 UNL     1      37.129 -26.262 -13.513  0.00  0.00    +0.002 C 
ATOM     14  CG2 UNL     1      38.313 -24.458 -14.802  0.00  0.00    +0.002 C 
ENDBRANCH  11  12
BRANCH  11  16
ATOM     15  OXT UNL     1      36.276 -23.093 -12.918  0.00  0.00    -0.248 OA
ATOM     16  C   UNL     1      35.438 -23.743 -13.531  0.00  0.00    +0.332 C 
BRANCH  16  17
ATOM     17  O   UNL     1      34.158 -23.848 -13.096  0.00  0.00    -0.479 OA
ATOM     18  H   UNL     1      33.967 -24.330 -12.315  0.00  0.00    +0.295 HD
ENDBRANCH  16  17
ENDBRANCH  11  16
ENDBRANCH   8  11
ENDBRANCH   2   9
BRANCH   1  19
ATOM     19  C   UNL     1      35.167 -19.953 -21.204  0.00  0.00    +0.031 C 
BRANCH  19  20
ATOM     20  C   UNL     1      34.992 -18.445 -20.934  0.00  0.00    +0.033 C 
BRANCH  20  26
ATOM     21  O   UNL     1      34.395 -15.439 -20.085  0.00  0.00    -0.209 OA
ATOM     22  N   UNL     1      35.114 -17.030 -24.317  0.00  0.00    -0.300 N 
ATOM     23  N   UNL     1      34.691 -14.672 -24.052  0.00  0.00    -0.264 N 
ATOM     24  N   UNL     1      34.324 -13.906 -21.812  0.00  0.00    -0.302 NA
ATOM     25  N   UNL     1      34.274 -12.436 -23.653  0.00  0.00    -0.320 N 
ATOM     26  C   UNL     1      34.985 -17.612 -22.184  0.00  0.00    +0.007 C 
ATOM     27  C   UNL     1      34.762 -16.232 -22.257  0.00  0.00    +0.120 C 
ATOM     28  C   UNL     1      34.850 -15.917 -23.587  0.00  0.00    +0.115 C 
ATOM     29  C   UNL     1      35.201 -18.094 -23.447  0.00  0.00    +0.059 C 
ATOM     30  C   UNL     1      34.482 -15.190 -21.282  0.00  0.00    +0.209 C 
ATOM     31  C   UNL     1      34.425 -13.686 -23.108  0.00  0.00    +0.248 C 
ATOM     32  H   UNL     1      35.224 -17.070 -25.295  0.00  0.00    +0.153 HD
ATOM     33  H   UNL     1      34.758 -14.465 -25.013  0.00  0.00    +0.157 HD
ATOM     34  H   UNL     1      34.357 -12.310 -24.626  0.00  0.00    +0.146 HD
ATOM     35  H   UNL     1      34.084 -11.665 -23.071  0.00  0.00    +0.146 HD
ENDBRANCH  20  26
ENDBRANCH  19  20
ENDBRANCH   1  19
TORSDOF 8
ENDMDL
MODEL 8
REMARK VINA RESULT:     -11.0      2.135     10.372
REMARK  Name = 446560
REMARK  8 active torsions:
REMARK  status: ('A' for Active; 'I' for Inactive)
REMARK    1  A    between atoms: C_1  and  C_19
REMARK    2  A    between atoms: C_2  and  C_9
REMARK    3  A    between atoms: N_8  and  CA_11
REMARK    4  A    between atoms: CA_11  and  CB_12
REMARK    5  A    between atoms: CA_11  and  C_16
REMARK    6  A    between atoms: C_16  and  O_17
REMARK    7  A    between atoms: C_19  and  C_20
REMARK    8  A    between atoms: C_20  and  C_26
REMARK                            x       y       z     vdW  Elec       q    Type
REMARK                         _______ _______ _______ _____ _____    ______ ____
ROOT
ATOM      1  C   UNL     1      34.670 -21.560 -19.540  0.00  0.00    -0.022 C 
ATOM      2  C   UNL     1      35.493 -19.342 -20.960  0.00  0.00    +0.053 C 
ATOM      3  C   UNL     1      36.029 -21.258 -19.637  0.00  0.00    -0.004 C 
ATOM      4  C   UNL     1      33.727 -20.741 -20.162  0.00  0.00    -0.004 C 
ATOM      5  C   UNL     1      36.444 -20.137 -20.354  0.00  0.00    +0.004 C 
ATOM      6  C   UNL     1      34.144 -19.620 -20.881  0.00  0.00    +0.004 C 
ENDROOT
BRANCH   2   9
ATOM      7  O   UNL     1      37.113 -18.052 -22.060  0.00  0.00    -0.270 OA
ATOM      8  N   UNL     1      34.948 -17.222 -22.023  0.00  0.00    -0.293 N 
ATOM      9  C   ACE A   0      35.935 -18.147 -21.724  0.00  0.00    +0.246 C 
ATOM     10  H   UNL     1      34.030 -17.389 -21.707  0.00  0.00    +0.150 HD
BRANCH   8  11
ATOM     11  CA  UNL     1      35.216 -16.021 -22.780  0.00  0.00    +0.171 C 
BRANCH  11  12
ATOM     12  CB  UNL     1      34.986 -16.278 -24.285  0.00  0.00    +0.029 C 
ATOM     13  CG1 UNL     1      33.936 -15.334 -24.880  0.00  0.00    +0.002 C 
ATOM     14  CG2 UNL     1      34.630 -17.733 -24.602  0.00  0.00    +0.002 C 
ENDBRANCH  11  12
BRANCH  11  16
ATOM     15  OXT UNL     1      33.390 -14.952 -21.587  0.00  0.00    -0.248 OA
ATOM     16  C   UNL     1      34.435 -14.837 -22.217  0.00  0.00    +0.332 C 
BRANCH  16  17
ATOM     17  O   UNL     1      34.961 -13.622 -22.511  0.00  0.00    -0.479 OA
ATOM     18  H   UNL     1      35.720 -13.561 -23.058  0.00  0.00    +0.295 HD
ENDBRANCH  16  17
ENDBRANCH  11  16
ENDBRANCH   8  11
ENDBRANCH   2   9
BRANCH   1  19
ATOM     19  C   UNL     1      34.226 -22.759 -18.773  0.00  0.00    +0.031 C 
BRANCH  19  20
ATOM     20  C   UNL     1      33.065 -22.489 -17.794  0.00  0.00    +0.033 C 
BRANCH  20  26
ATOM     21  O   UNL     1      30.184 -22.834 -16.495  0.00  0.00    -0.209 OA
ATOM     22  N   UNL     1      34.201 -24.085 -14.693  0.00  0.00    -0.300 N 
ATOM     23  N   UNL     1      32.206 -24.511 -13.410  0.00  0.00    -0.264 N 
ATOM     24  N   UNL     1      30.138 -23.832 -14.411  0.00  0.00    -0.302 NA
ATOM     25  N   UNL     1      30.216 -24.858 -12.291  0.00  0.00    -0.320 N 
ATOM     26  C   UNL     1      33.245 -23.148 -16.457  0.00  0.00    +0.007 C 
ATOM     27  C   UNL     1      32.228 -23.483 -15.556  0.00  0.00    +0.120 C 
ATOM     28  C   UNL     1      32.861 -24.057 -14.486  0.00  0.00    +0.115 C 
ATOM     29  C   UNL     1      34.450 -23.519 -15.924  0.00  0.00    +0.059 C 
ATOM     30  C   UNL     1      30.780 -23.344 -15.553  0.00  0.00    +0.209 C 
ATOM     31  C   UNL     1      30.822 -24.372 -13.423  0.00  0.00    +0.248 C 
ATOM     32  H   UNL     1      34.877 -24.447 -14.074  0.00  0.00    +0.153 HD
ATOM     33  H   UNL     1      32.679 -24.920 -12.649  0.00  0.00    +0.157 HD
ATOM     34  H   UNL     1      30.759 -25.255 -11.573  0.00  0.00    +0.146 HD
ATOM     35  H   UNL     1      29.237 -24.810 -12.199  0.00  0.00    +0.146 HD
ENDBRANCH  20  26
ENDBRANCH  19  20
ENDBRANCH   1  19
TORSDOF 8
ENDMDL
MODEL 9
REMARK VINA RESULT:     -10.8      3.069      4.021
REMARK  Name = 446560
REMARK  8 active torsions:
REMARK  status: ('A' for Active; 'I' for Inactive)
REMARK    1  A    between atoms: C_1  and  C_19
REMARK    2  A    between atoms: C_2  and  C_9
REMARK    3  A    between atoms: N_8  and  CA_11
REMARK    4  A    between atoms: CA_11  and  CB_12
REMARK    5  A    between atoms: CA_11  and  C_16
REMARK    6  A    between atoms: C_16  and  O_17
REMARK    7  A    between atoms: C_19  and  C_20
REMARK    8  A    between atoms: C_20  and  C_26
REMARK                            x       y       z     vdW  Elec       q    Type
REMARK                         _______ _______ _______ _____ _____    ______ ____
ROOT
ATOM      1  C   UNL     1      35.412 -21.188 -19.338  0.00  0.00    -0.022 C 
ATOM      2  C   UNL     1      36.328 -22.376 -17.022  0.00  0.00    +0.053 C 
ATOM      3  C   UNL     1      34.562 -22.002 -18.588  0.00  0.00    -0.004 C 
ATOM      4  C   UNL     1      36.726 -20.976 -18.917  0.00  0.00    -0.004 C 
ATOM      5  C   UNL     1      35.025 -22.601 -17.417  0.00  0.00    +0.004 C 
ATOM      6  C   UNL     1      37.188 -21.577 -17.746  0.00  0.00    +0.004 C 
ENDROOT
BRANCH   2   9
ATOM      7  O   UNL     1      37.540 -22.369 -15.016  0.00  0.00    -0.270 OA
ATOM      8  N   UNL     1      36.397 -24.314 -15.552  0.00  0.00    -0.293 N 
ATOM      9  C   ACE A   0      36.820 -23.014 -15.775  0.00  0.00    +0.246 C 
ATOM     10  H   UNL     1      35.820 -24.745 -16.223  0.00  0.00    +0.150 HD
BRANCH   8  11
ATOM     11  CA  UNL     1      36.771 -25.059 -14.372  0.00  0.00    +0.171 C 
BRANCH  11  12
ATOM     12  CB  UNL     1      35.683 -24.918 -13.285  0.00  0.00    +0.029 C 
ATOM     13  CG1 UNL     1      34.338 -24.473 -13.868  0.00  0.00    +0.002 C 
ATOM     14  CG2 UNL     1      36.094 -23.994 -12.135  0.00  0.00    +0.002 C 
ENDBRANCH  11  12
BRANCH  11  16
ATOM     15  OXT UNL     1      38.104 -27.088 -14.288  0.00  0.00    -0.248 OA
ATOM     16  C   UNL     1      37.123 -26.500 -14.728  0.00  0.00    +0.332 C 
BRANCH  16  17
ATOM     17  O   UNL     1      36.286 -27.081 -15.624  0.00  0.00    -0.479 OA
ATOM     18  H   UNL     1      36.636 -27.557 -16.351  0.00  0.00    +0.295 HD
ENDBRANCH  16  17
ENDBRANCH  11  16
ENDBRANCH   8  11
ENDBRANCH   2   9
BRANCH   1  19
ATOM     19  C   UNL     1      34.917 -20.548 -20.590  0.00  0.00    +0.031 C 
BRANCH  19  20
ATOM     20  C   UNL     1      35.498 -19.143 -20.854  0.00  0.00    +0.033 C 
BRANCH  20  26
ATOM     21  O   UNL     1      34.870 -16.038 -20.584  0.00  0.00    -0.209 OA
ATOM     22  N   UNL     1      34.870 -18.540 -24.418  0.00  0.00    -0.300 N 
ATOM     23  N   UNL     1      34.345 -16.195 -24.599  0.00  0.00    -0.264 N 
ATOM     24  N   UNL     1      34.363 -14.945 -22.555  0.00  0.00    -0.302 NA
ATOM     25  N   UNL     1      33.860 -13.937 -24.625  0.00  0.00    -0.320 N 
ATOM     26  C   UNL     1      35.194 -18.620 -22.228  0.00  0.00    +0.007 C 
ATOM     27  C   UNL     1      34.866 -17.300 -22.557  0.00  0.00    +0.120 C 
ATOM     28  C   UNL     1      34.676 -17.296 -23.912  0.00  0.00    +0.115 C 
ATOM     29  C   UNL     1      35.196 -19.374 -23.371  0.00  0.00    +0.059 C 
ATOM     30  C   UNL     1      34.708 -16.068 -21.799  0.00  0.00    +0.209 C 
ATOM     31  C   UNL     1      34.198 -15.025 -23.861  0.00  0.00    +0.248 C 
ATOM     32  H   UNL     1      34.793 -18.801 -25.365  0.00  0.00    +0.153 HD
ATOM     33  H   UNL     1      34.211 -16.212 -25.574  0.00  0.00    +0.157 HD
ATOM     34  H   UNL     1      33.745 -14.035 -25.598  0.00  0.00    +0.146 HD
ATOM     35  H   UNL     1      33.733 -13.058 -24.201  0.00  0.00    +0.146 HD
ENDBRANCH  20  26
ENDBRANCH  19  20
ENDBRANCH   1  19
TORSDOF 8
ENDMDL
