MODEL 1
REMARK VINA RESULT:     -12.7      0.000      0.000
REMARK  Name = 10389239
REMARK  2 active torsions:
REMARK  status: ('A' for Active; 'I' for Inactive)
REMARK    1  A    between atoms: C_2  and  C_14
REMARK    2  A    between atoms: C_4  and  C_20
REMARK                            x       y       z     vdW  Elec       q    Type
REMARK                         _______ _______ _______ _____ _____    ______ ____
ROOT
ATOM      1  N   UNL     1      35.228 -17.712 -23.845  0.00  0.00    -0.244 NA
ATOM      2  C   UNL     1      34.130 -15.272 -23.038  0.00  0.00    +0.016 C 
ATOM      3  C   UNL     1      34.408 -16.256 -22.096  0.00  0.00    +0.020 C 
ATOM      4  C   UNL     1      34.952 -17.448 -22.548  0.00  0.00    +0.083 C 
ATOM      5  C   UNL     1      34.398 -15.505 -24.382  0.00  0.00    +0.022 C 
ATOM      6  C   UNL     1      34.944 -16.731 -24.730  0.00  0.00    +0.099 C 
ENDROOT
BRANCH   2  14
ATOM      7  O   UNL     1      33.295  -9.733 -23.307  0.00  0.00    -0.270 OA
ATOM      8  N   UNL     1      32.774 -13.903 -21.503  0.00  0.00    -0.316 N 
ATOM      9  N   UNL     1      31.755  -9.941 -21.597  0.00  0.00    -0.300 N 
ATOM     10  C   UNL     1      32.389 -12.602 -21.359  0.00  0.00    +0.031 C 
ATOM     11  C   UNL     1      31.554 -12.053 -20.265  0.00  0.00    +0.063 C 
ATOM     12  C   UNL     1      32.925 -11.865 -22.394  0.00  0.00    +0.064 C 
ATOM     13  C   UNL     1      30.868 -10.786 -20.788  0.00  0.00    +0.096 C 
ATOM     14  C   UNL     1      33.563 -14.012 -22.622  0.00  0.00    +0.048 C 
ATOM     15  C   UNL     1      33.678 -12.759 -23.192  0.00  0.00    +0.020 C 
ATOM     16  C   UNL     1      32.694 -10.436 -22.500  0.00  0.00    +0.247 C 
ATOM     17  H   UNL     1      32.527 -14.643 -20.903  0.00  0.00    +0.152 HD
ATOM     18  H   UNL     1      31.682  -8.965 -21.494  0.00  0.00    +0.150 HD
ENDBRANCH   2  14
BRANCH   4  20
ATOM     19  N   UNL     1      36.927 -19.734 -20.366  0.00  0.00    -0.244 NA
ATOM     20  C   UNL     1      35.268 -18.516 -21.629  0.00  0.00    +0.037 C 
ATOM     21  C   UNL     1      34.277 -19.344 -21.122  0.00  0.00    +0.005 C 
ATOM     22  C   UNL     1      34.609 -20.375 -20.231  0.00  0.00    +0.018 C 
ATOM     23  C   UNL     1      35.965 -20.536 -19.876  0.00  0.00    +0.081 C 
ATOM     24  C   UNL     1      36.567 -18.752 -21.224  0.00  0.00    +0.100 C 
ATOM     25  C   UNL     1      33.629 -21.231 -19.698  0.00  0.00    +0.001 C 
ATOM     26  C   UNL     1      36.292 -21.559 -18.991  0.00  0.00    +0.019 C 
ATOM     27  C   UNL     1      33.986 -22.246 -18.815  0.00  0.00    +0.000 C 
ATOM     28  C   UNL     1      35.319 -22.411 -18.461  0.00  0.00    +0.002 C 
ENDBRANCH   4  20
TORSDOF 2
ENDMDL
MODEL 2
REMARK VINA RESULT:     -12.5      1.176      1.588
REMARK  Name = 10389239
REMARK  2 active torsions:
REMARK  status: ('A' for Active; 'I' for Inactive)
REMARK    1  A    between atoms: C_2  and  C_14
REMARK    2  A    between atoms: C_4  and  C_20
REMARK                            x       y       z     vdW  Elec       q    Type
REMARK                         _______ _______ _______ _____ _____    ______ ____
ROOT
ATOM      1  N   UNL     1      35.189 -17.350 -24.099  0.00  0.00    -0.244 NA
ATOM      2  C   UNL     1      34.048 -14.944 -23.249  0.00  0.00    +0.016 C 
ATOM      3  C   UNL     1      34.381 -15.924 -22.321  0.00  0.00    +0.020 C 
ATOM      4  C   UNL     1      34.943 -17.099 -22.793  0.00  0.00    +0.083 C 
ATOM      5  C   UNL     1      34.284 -15.165 -24.602  0.00  0.00    +0.022 C 
ATOM      6  C   UNL     1      34.852 -16.374 -24.971  0.00  0.00    +0.099 C 
ENDROOT
BRANCH   2  14
ATOM      7  O   UNL     1      30.650 -11.737 -20.148  0.00  0.00    -0.270 OA
ATOM      8  N   UNL     1      33.749 -12.505 -23.422  0.00  0.00    -0.316 N 
ATOM      9  N   UNL     1      31.589  -9.877 -21.148  0.00  0.00    -0.300 N 
ATOM     10  C   UNL     1      33.049 -11.512 -22.802  0.00  0.00    +0.031 C 
ATOM     11  C   UNL     1      33.055 -10.076 -23.169  0.00  0.00    +0.063 C 
ATOM     12  C   UNL     1      32.306 -12.066 -21.780  0.00  0.00    +0.064 C 
ATOM     13  C   UNL     1      32.680  -9.271 -21.920  0.00  0.00    +0.096 C 
ATOM     14  C   UNL     1      33.460 -13.701 -22.812  0.00  0.00    +0.048 C 
ATOM     15  C   UNL     1      32.561 -13.458 -21.792  0.00  0.00    +0.020 C 
ATOM     16  C   UNL     1      31.445 -11.249 -20.945  0.00  0.00    +0.247 C 
ATOM     17  H   UNL     1      34.363 -12.384 -24.182  0.00  0.00    +0.152 HD
ATOM     18  H   UNL     1      30.918  -9.278 -20.749  0.00  0.00    +0.150 HD
ENDBRANCH   2  14
BRANCH   4  20
ATOM     19  N   UNL     1      37.044 -19.343 -20.687  0.00  0.00    -0.244 NA
ATOM     20  C   UNL     1      35.315 -18.161 -21.889  0.00  0.00    +0.037 C 
ATOM     21  C   UNL     1      34.362 -19.013 -21.351  0.00  0.00    +0.005 C 
ATOM     22  C   UNL     1      34.747 -20.037 -20.474  0.00  0.00    +0.018 C 
ATOM     23  C   UNL     1      36.117 -20.168 -20.166  0.00  0.00    +0.081 C 
ATOM     24  C   UNL     1      36.632 -18.368 -21.529  0.00  0.00    +0.100 C 
ATOM     25  C   UNL     1      33.806 -20.917 -19.911  0.00  0.00    +0.001 C 
ATOM     26  C   UNL     1      36.499 -21.185 -19.296  0.00  0.00    +0.019 C 
ATOM     27  C   UNL     1      34.216 -21.926 -19.044  0.00  0.00    +0.000 C 
ATOM     28  C   UNL     1      35.564 -22.060 -18.736  0.00  0.00    +0.002 C 
ENDBRANCH   4  20
TORSDOF 2
ENDMDL
MODEL 3
REMARK VINA RESULT:     -12.4      6.351     11.664
REMARK  Name = 10389239
REMARK  2 active torsions:
REMARK  status: ('A' for Active; 'I' for Inactive)
REMARK    1  A    between atoms: C_2  and  C_14
REMARK    2  A    between atoms: C_4  and  C_20
REMARK                            x       y       z     vdW  Elec       q    Type
REMARK                         _______ _______ _______ _____ _____    ______ ____
ROOT
ATOM      1  N   UNL     1      32.532 -22.523 -17.704  0.00  0.00    -0.244 NA
ATOM      2  C   UNL     1      34.501 -23.585 -16.030  0.00  0.00    +0.016 C 
ATOM      3  C   UNL     1      34.860 -22.775 -17.100  0.00  0.00    +0.020 C 
ATOM      4  C   UNL     1      33.846 -22.273 -17.901  0.00  0.00    +0.083 C 
ATOM      5  C   UNL     1      33.160 -23.867 -15.795  0.00  0.00    +0.022 C 
ATOM      6  C   UNL     1      32.222 -23.315 -16.654  0.00  0.00    +0.099 C 
ENDROOT
BRANCH   2  14
ATOM      7  O   UNL     1      36.455 -25.906 -11.313  0.00  0.00    -0.270 OA
ATOM      8  N   UNL     1      36.845 -24.138 -15.513  0.00  0.00    -0.316 N 
ATOM      9  N   UNL     1      38.528 -26.069 -12.322  0.00  0.00    -0.300 N 
ATOM     10  C   UNL     1      37.565 -24.712 -14.505  0.00  0.00    +0.031 C 
ATOM     11  C   UNL     1      39.036 -24.887 -14.470  0.00  0.00    +0.063 C 
ATOM     12  C   UNL     1      36.697 -25.088 -13.501  0.00  0.00    +0.064 C 
ATOM     13  C   UNL     1      39.347 -26.064 -13.540  0.00  0.00    +0.096 C 
ATOM     14  C   UNL     1      35.517 -24.134 -15.164  0.00  0.00    +0.048 C 
ATOM     15  C   UNL     1      35.397 -24.713 -13.916  0.00  0.00    +0.020 C 
ATOM     16  C   UNL     1      37.179 -25.720 -12.287  0.00  0.00    +0.247 C 
ATOM     17  H   UNL     1      37.217 -23.785 -16.353  0.00  0.00    +0.152 HD
ATOM     18  H   UNL     1      38.959 -26.335 -11.477  0.00  0.00    +0.150 HD
ENDBRANCH   2  14
BRANCH   4  20
ATOM     19  N   UNL     1      33.357 -20.199 -20.957  0.00  0.00    -0.244 NA
ATOM     20  C   UNL     1      34.142 -21.424 -19.031  0.00  0.00    +0.037 C 
ATOM     21  C   UNL     1      35.439 -21.013 -19.300  0.00  0.00    +0.005 C 
ATOM     22  C   UNL     1      35.702 -20.188 -20.403  0.00  0.00    +0.018 C 
ATOM     23  C   UNL     1      34.617 -19.801 -21.217  0.00  0.00    +0.081 C 
ATOM     24  C   UNL     1      33.146 -20.994 -19.884  0.00  0.00    +0.100 C 
ATOM     25  C   UNL     1      37.005 -19.753 -20.703  0.00  0.00    +0.001 C 
ATOM     26  C   UNL     1      34.878 -18.982 -22.311  0.00  0.00    +0.019 C 
ATOM     27  C   UNL     1      37.237 -18.935 -21.805  0.00  0.00    +0.000 C 
ATOM     28  C   UNL     1      36.173 -18.549 -22.610  0.00  0.00    +0.002 C 
ENDBRANCH   4  20
TORSDOF 2
ENDMDL
MODEL 4
REMARK VINA RESULT:     -12.3      2.943     10.166
REMARK  Name = 10389239
REMARK  2 active torsions:
REMARK  status: ('A' for Active; 'I' for Inactive)
REMARK    1  A    between atoms: C_2  and  C_14
REMARK    2  A    between atoms: C_4  and  C_20
REMARK                            x       y       z     vdW  Elec       q    Type
REMARK                         _______ _______ _______ _____ _____    ______ ____
ROOT
ATOM      1  N   UNL     1      31.453 -10.507 -20.723  0.00  0.00    -0.244 NA
ATOM      2  C   UNL     1      32.743 -12.839 -21.563  0.00  0.00    +0.016 C 
ATOM      3  C   UNL     1      32.909 -11.657 -22.274  0.00  0.00    +0.020 C 
ATOM      4  C   UNL     1      32.248 -10.528 -21.816  0.00  0.00    +0.083 C 
ATOM      5  C   UNL     1      31.932 -12.859 -20.433  0.00  0.00    +0.022 C 
ATOM      6  C   UNL     1      31.316 -11.676 -20.058  0.00  0.00    +0.099 C 
ENDROOT
BRANCH   2  14
ATOM      7  O   UNL     1      34.705 -16.494 -25.338  0.00  0.00    -0.270 OA
ATOM      8  N   UNL     1      33.854 -14.990 -21.103  0.00  0.00    -0.316 N 
ATOM      9  N   UNL     1      35.625 -17.706 -23.599  0.00  0.00    -0.300 N 
ATOM     10  C   UNL     1      34.434 -16.012 -21.796  0.00  0.00    +0.031 C 
ATOM     11  C   UNL     1      35.017 -17.243 -21.213  0.00  0.00    +0.063 C 
ATOM     12  C   UNL     1      34.370 -15.726 -23.144  0.00  0.00    +0.064 C 
ATOM     13  C   UNL     1      36.061 -17.780 -22.199  0.00  0.00    +0.096 C 
ATOM     14  C   UNL     1      33.409 -14.045 -21.996  0.00  0.00    +0.048 C 
ATOM     15  C   UNL     1      33.711 -14.480 -23.271  0.00  0.00    +0.020 C 
ATOM     16  C   UNL     1      34.901 -16.643 -24.135  0.00  0.00    +0.247 C 
ATOM     17  H   UNL     1      33.769 -14.937 -20.124  0.00  0.00    +0.152 HD
ATOM     18  H   UNL     1      35.859 -18.454 -24.195  0.00  0.00    +0.150 HD
ENDBRANCH   2  14
BRANCH   4  20
ATOM     19  N   UNL     1      31.325  -7.265 -23.359  0.00  0.00    -0.244 NA
ATOM     20  C   UNL     1      32.373  -9.264 -22.502  0.00  0.00    +0.037 C 
ATOM     21  C   UNL     1      33.602  -8.815 -22.964  0.00  0.00    +0.005 C 
ATOM     22  C   UNL     1      33.698  -7.584 -23.628  0.00  0.00    +0.018 C 
ATOM     23  C   UNL     1      32.519  -6.831 -23.807  0.00  0.00    +0.081 C 
ATOM     24  C   UNL     1      31.275  -8.458 -22.724  0.00  0.00    +0.100 C 
ATOM     25  C   UNL     1      34.928  -7.101 -24.107  0.00  0.00    +0.001 C 
ATOM     26  C   UNL     1      32.615  -5.609 -24.465  0.00  0.00    +0.019 C 
ATOM     27  C   UNL     1      34.995  -5.875 -24.764  0.00  0.00    +0.000 C 
ATOM     28  C   UNL     1      33.837  -5.128 -24.943  0.00  0.00    +0.002 C 
ENDBRANCH   4  20
TORSDOF 2
ENDMDL
MODEL 5
REMARK VINA RESULT:     -12.3      3.196     10.258
REMARK  Name = 10389239
REMARK  2 active torsions:
REMARK  status: ('A' for Active; 'I' for Inactive)
REMARK    1  A    between atoms: C_2  and  C_14
REMARK    2  A    between atoms: C_4  and  C_20
REMARK                            x       y       z     vdW  Elec       q    Type
REMARK                         _______ _______ _______ _____ _____    ______ ____
ROOT
ATOM      1  N   UNL     1      31.370 -10.505 -20.717  0.00  0.00    -0.244 NA
ATOM      2  C   UNL     1      32.732 -12.815 -21.503  0.00  0.00    +0.016 C 
ATOM      3  C   UNL     1      32.900 -11.632 -22.213  0.00  0.00    +0.020 C 
ATOM      4  C   UNL     1      32.202 -10.515 -21.783  0.00  0.00    +0.083 C 
ATOM      5  C   UNL     1      31.884 -12.847 -20.402  0.00  0.00    +0.022 C 
ATOM      6  C   UNL     1      31.232 -11.674 -20.053  0.00  0.00    +0.099 C 
ENDROOT
BRANCH   2  14
ATOM      7  O   UNL     1      35.606 -17.558 -20.665  0.00  0.00    -0.270 OA
ATOM      8  N   UNL     1      33.674 -14.300 -23.229  0.00  0.00    -0.316 N 
ATOM      9  N   UNL     1      35.549 -17.926 -22.946  0.00  0.00    -0.300 N 
ATOM     10  C   UNL     1      34.357 -15.479 -23.304  0.00  0.00    +0.031 C 
ATOM     11  C   UNL     1      34.833 -16.136 -24.545  0.00  0.00    +0.063 C 
ATOM     12  C   UNL     1      34.556 -15.958 -22.027  0.00  0.00    +0.064 C 
ATOM     13  C   UNL     1      34.964 -17.636 -24.261  0.00  0.00    +0.096 C 
ATOM     14  C   UNL     1      33.436 -14.009 -21.907  0.00  0.00    +0.048 C 
ATOM     15  C   UNL     1      33.978 -15.020 -21.139  0.00  0.00    +0.020 C 
ATOM     16  C   UNL     1      35.268 -17.200 -21.790  0.00  0.00    +0.247 C 
ATOM     17  H   UNL     1      33.398 -13.748 -23.995  0.00  0.00    +0.152 HD
ATOM     18  H   UNL     1      36.178 -18.680 -22.877  0.00  0.00    +0.150 HD
ENDBRANCH   2  14
BRANCH   4  20
ATOM     19  N   UNL     1      31.283  -7.238 -23.301  0.00  0.00    -0.244 NA
ATOM     20  C   UNL     1      32.327  -9.251 -22.469  0.00  0.00    +0.037 C 
ATOM     21  C   UNL     1      33.550  -8.815 -22.957  0.00  0.00    +0.005 C 
ATOM     22  C   UNL     1      33.646  -7.584 -23.620  0.00  0.00    +0.018 C 
ATOM     23  C   UNL     1      32.471  -6.818 -23.773  0.00  0.00    +0.081 C 
ATOM     24  C   UNL     1      31.232  -8.432 -22.667  0.00  0.00    +0.100 C 
ATOM     25  C   UNL     1      34.870  -7.113 -24.125  0.00  0.00    +0.001 C 
ATOM     26  C   UNL     1      32.567  -5.595 -24.431  0.00  0.00    +0.019 C 
ATOM     27  C   UNL     1      34.937  -5.886 -24.781  0.00  0.00    +0.000 C 
ATOM     28  C   UNL     1      33.784  -5.127 -24.934  0.00  0.00    +0.002 C 
ENDBRANCH   4  20
TORSDOF 2
ENDMDL
MODEL 6
REMARK VINA RESULT:     -11.5      3.236     10.372
REMARK  Name = 10389239
REMARK  2 active torsions:
REMARK  status: ('A' for Active; 'I' for Inactive)
REMARK    1  A    between atoms: C_2  and  C_14
REMARK    2  A    between atoms: C_4  and  C_20
REMARK                            x       y       z     vdW  Elec       q    Type
REMARK                         _______ _______ _______ _____ _____    ______ ____
ROOT
ATOM      1  N   UNL     1      31.338 -10.508 -20.495  0.00  0.00    -0.244 NA
ATOM      2  C   UNL     1      32.694 -12.786 -21.378  0.00  0.00    +0.016 C 
ATOM      3  C   UNL     1      32.888 -11.568 -22.019  0.00  0.00    +0.020 C 
ATOM      4  C   UNL     1      32.191 -10.468 -21.543  0.00  0.00    +0.083 C 
ATOM      5  C   UNL     1      31.824 -12.868 -20.297  0.00  0.00    +0.022 C 
ATOM      6  C   UNL     1      31.176 -11.710 -19.898  0.00  0.00    +0.099 C 
ENDROOT
BRANCH   2  14
ATOM      7  O   UNL     1      35.620 -17.529 -20.744  0.00  0.00    -0.270 OA
ATOM      8  N   UNL     1      33.600 -14.217 -23.167  0.00  0.00    -0.316 N 
ATOM      9  N   UNL     1      35.506 -17.836 -23.031  0.00  0.00    -0.300 N 
ATOM     10  C   UNL     1      34.288 -15.389 -23.292  0.00  0.00    +0.031 C 
ATOM     11  C   UNL     1      34.736 -16.009 -24.562  0.00  0.00    +0.063 C 
ATOM     12  C   UNL     1      34.524 -15.901 -22.033  0.00  0.00    +0.064 C 
ATOM     13  C   UNL     1      34.884 -17.516 -24.322  0.00  0.00    +0.096 C 
ATOM     14  C   UNL     1      33.395 -13.963 -21.833  0.00  0.00    +0.048 C 
ATOM     15  C   UNL     1      33.964 -14.990 -21.106  0.00  0.00    +0.020 C 
ATOM     16  C   UNL     1      35.251 -17.143 -21.849  0.00  0.00    +0.247 C 
ATOM     17  H   UNL     1      33.300 -13.647 -23.911  0.00  0.00    +0.152 HD
ATOM     18  H   UNL     1      36.141 -18.587 -22.999  0.00  0.00    +0.150 HD
ENDBRANCH   2  14
BRANCH   4  20
ATOM     19  N   UNL     1      33.574  -7.715 -23.638  0.00  0.00    -0.244 NA
ATOM     20  C   UNL     1      32.341  -9.171 -22.158  0.00  0.00    +0.037 C 
ATOM     21  C   UNL     1      31.449  -8.143 -21.893  0.00  0.00    +0.005 C 
ATOM     22  C   UNL     1      31.615  -6.891 -22.502  0.00  0.00    +0.018 C 
ATOM     23  C   UNL     1      32.707  -6.718 -23.379  0.00  0.00    +0.081 C 
ATOM     24  C   UNL     1      33.379  -8.907 -23.030  0.00  0.00    +0.100 C 
ATOM     25  C   UNL     1      30.728  -5.829 -22.256  0.00  0.00    +0.001 C 
ATOM     26  C   UNL     1      32.871  -5.476 -23.984  0.00  0.00    +0.019 C 
ATOM     27  C   UNL     1      30.917  -4.596 -22.874  0.00  0.00    +0.000 C 
ATOM     28  C   UNL     1      31.990  -4.419 -23.739  0.00  0.00    +0.002 C 
ENDBRANCH   4  20
TORSDOF 2
ENDMDL
MODEL 7
REMARK VINA RESULT:     -11.4      2.941      6.021
REMARK  Name = 10389239
REMARK  2 active torsions:
REMARK  status: ('A' for Active; 'I' for Inactive)
REMARK    1  A    between atoms: C_2  and  C_14
REMARK    2  A    between atoms: C_4  and  C_20
REMARK                            x       y       z     vdW  Elec       q    Type
REMARK                         _______ _______ _______ _____ _____    ______ ____
ROOT
ATOM      1  N   UNL     1      31.796 -12.606 -20.432  0.00  0.00    -0.244 NA
ATOM      2  C   UNL     1      32.035 -10.050 -21.537  0.00  0.00    +0.016 C 
ATOM      3  C   UNL     1      32.663 -11.132 -22.142  0.00  0.00    +0.020 C 
ATOM      4  C   UNL     1      32.514 -12.378 -21.555  0.00  0.00    +0.083 C 
ATOM      5  C   UNL     1      31.288 -10.242 -20.380  0.00  0.00    +0.022 C 
ATOM      6  C   UNL     1      31.200 -11.529 -19.873  0.00  0.00    +0.099 C 
ENDROOT
BRANCH   2  14
ATOM      7  O   UNL     1      34.188  -6.163 -24.959  0.00  0.00    -0.270 OA
ATOM      8  N   UNL     1      31.431  -7.663 -21.633  0.00  0.00    -0.316 N 
ATOM      9  N   UNL     1      32.601  -4.678 -24.174  0.00  0.00    -0.300 N 
ATOM     10  C   UNL     1      31.755  -6.552 -22.357  0.00  0.00    +0.031 C 
ATOM     11  C   UNL     1      31.218  -5.187 -22.150  0.00  0.00    +0.063 C 
ATOM     12  C   UNL     1      32.691  -6.901 -23.307  0.00  0.00    +0.064 C 
ATOM     13  C   UNL     1      31.333  -4.431 -23.478  0.00  0.00    +0.096 C 
ATOM     14  C   UNL     1      32.157  -8.729 -22.106  0.00  0.00    +0.048 C 
ATOM     15  C   UNL     1      32.952  -8.282 -23.143  0.00  0.00    +0.020 C 
ATOM     16  C   UNL     1      33.237  -5.918 -24.224  0.00  0.00    +0.247 C 
ATOM     17  H   UNL     1      30.782  -7.696 -20.893  0.00  0.00    +0.152 HD
ATOM     18  H   UNL     1      33.030  -3.920 -24.635  0.00  0.00    +0.150 HD
ENDBRANCH   2  14
BRANCH   4  20
ATOM     19  N   UNL     1      33.763 -14.805 -24.091  0.00  0.00    -0.244 NA
ATOM     20  C   UNL     1      33.137 -13.548 -22.127  0.00  0.00    +0.037 C 
ATOM     21  C   UNL     1      33.700 -14.528 -21.323  0.00  0.00    +0.005 C 
ATOM     22  C   UNL     1      34.300 -15.656 -21.902  0.00  0.00    +0.018 C 
ATOM     23  C   UNL     1      34.308 -15.755 -23.309  0.00  0.00    +0.081 C 
ATOM     24  C   UNL     1      33.194 -13.733 -23.494  0.00  0.00    +0.100 C 
ATOM     25  C   UNL     1      34.879 -16.666 -21.115  0.00  0.00    +0.001 C 
ATOM     26  C   UNL     1      34.904 -16.875 -23.883  0.00  0.00    +0.019 C 
ATOM     27  C   UNL     1      35.468 -17.776 -21.716  0.00  0.00    +0.000 C 
ATOM     28  C   UNL     1      35.480 -17.880 -23.102  0.00  0.00    +0.002 C 
ENDBRANCH   4  20
TORSDOF 2
ENDMDL
MODEL 8
REMARK VINA RESULT:     -11.4      3.203      6.345
REMARK  Name = 10389239
REMARK  2 active torsions:
REMARK  status: ('A' for Active; 'I' for Inactive)
REMARK    1  A    between atoms: C_2  and  C_14
REMARK    2  A    between atoms: C_4  and  C_20
REMARK                            x       y       z     vdW  Elec       q    Type
REMARK                         _______ _______ _______ _____ _____    ______ ____
ROOT
ATOM      1  N   UNL     1      31.968 -12.373 -20.174  0.00  0.00    -0.244 NA
ATOM      2  C   UNL     1      31.882  -9.855 -21.382  0.00  0.00    +0.016 C 
ATOM      3  C   UNL     1      32.478 -10.924 -22.041  0.00  0.00    +0.020 C 
ATOM      4  C   UNL     1      32.495 -12.152 -21.399  0.00  0.00    +0.083 C 
ATOM      5  C   UNL     1      31.330 -10.041 -20.120  0.00  0.00    +0.022 C 
ATOM      6  C   UNL     1      31.397 -11.310 -19.565  0.00  0.00    +0.099 C 
ENDROOT
BRANCH   2  14
ATOM      7  O   UNL     1      30.220  -4.525 -21.920  0.00  0.00    -0.270 OA
ATOM      8  N   UNL     1      32.484  -8.291 -23.188  0.00  0.00    -0.316 N 
ATOM      9  N   UNL     1      31.674  -4.314 -23.703  0.00  0.00    -0.300 N 
ATOM     10  C   UNL     1      32.261  -6.990 -23.534  0.00  0.00    +0.031 C 
ATOM     11  C   UNL     1      32.758  -6.312 -24.754  0.00  0.00    +0.063 C 
ATOM     12  C   UNL     1      31.471  -6.404 -22.567  0.00  0.00    +0.064 C 
ATOM     13  C   UNL     1      32.830  -4.809 -24.460  0.00  0.00    +0.096 C 
ATOM     14  C   UNL     1      31.837  -8.554 -22.006  0.00  0.00    +0.048 C 
ATOM     15  C   UNL     1      31.195  -7.401 -21.601  0.00  0.00    +0.020 C 
ATOM     16  C   UNL     1      31.057  -5.018 -22.670  0.00  0.00    +0.247 C 
ATOM     17  H   UNL     1      33.022  -8.937 -23.702  0.00  0.00    +0.152 HD
ATOM     18  H   UNL     1      31.312  -3.429 -23.941  0.00  0.00    +0.150 HD
ENDBRANCH   2  14
BRANCH   4  20
ATOM     19  N   UNL     1      33.695 -14.492 -24.039  0.00  0.00    -0.244 NA
ATOM     20  C   UNL     1      33.096 -13.308 -22.021  0.00  0.00    +0.037 C 
ATOM     21  C   UNL     1      33.643 -14.331 -21.261  0.00  0.00    +0.005 C 
ATOM     22  C   UNL     1      34.221 -15.443 -21.888  0.00  0.00    +0.018 C 
ATOM     23  C   UNL     1      34.225 -15.484 -23.298  0.00  0.00    +0.081 C 
ATOM     24  C   UNL     1      33.146 -13.436 -23.395  0.00  0.00    +0.100 C 
ATOM     25  C   UNL     1      34.785 -16.496 -21.146  0.00  0.00    +0.001 C 
ATOM     26  C   UNL     1      34.799 -16.588 -23.920  0.00  0.00    +0.019 C 
ATOM     27  C   UNL     1      35.352 -17.589 -21.795  0.00  0.00    +0.000 C 
ATOM     28  C   UNL     1      35.359 -17.635 -23.184  0.00  0.00    +0.002 C 
ENDBRANCH   4  20
TORSDOF 2
ENDMDL
MODEL 9
REMARK VINA RESULT:     -11.3      1.166      1.534
REMARK  Name = 10389239
REMARK  2 active torsions:
REMARK  status: ('A' for Active; 'I' for Inactive)
REMARK    1  A    between atoms: C_2  and  C_14
REMARK    2  A    between atoms: C_4  and  C_20
REMARK                            x       y       z     vdW  Elec       q    Type
REMARK                         _______ _______ _______ _____ _____    ______ ____
ROOT
ATOM      1  N   UNL     1      35.220 -19.351 -23.297  0.00  0.00    -0.244 NA
ATOM      2  C   UNL     1      34.484 -16.674 -22.977  0.00  0.00    +0.016 C 
ATOM      3  C   UNL     1      34.607 -17.500 -21.867  0.00  0.00    +0.020 C 
ATOM      4  C   UNL     1      34.974 -18.820 -22.079  0.00  0.00    +0.083 C 
ATOM      5  C   UNL     1      34.727 -17.183 -24.248  0.00  0.00    +0.022 C 
ATOM      6  C   UNL     1      35.090 -18.516 -24.353  0.00  0.00    +0.099 C 
ENDROOT
BRANCH   2  14
ATOM      7  O   UNL     1      34.547 -11.201 -24.199  0.00  0.00    -0.270 OA
ATOM      8  N   UNL     1      33.291 -14.877 -21.786  0.00  0.00    -0.316 N 
ATOM      9  N   UNL     1      32.916 -10.883 -22.594  0.00  0.00    -0.300 N 
ATOM     10  C   UNL     1      33.110 -13.528 -21.884  0.00  0.00    +0.031 C 
ATOM     11  C   UNL     1      32.322 -12.683 -20.956  0.00  0.00    +0.063 C 
ATOM     12  C   UNL     1      33.803 -13.066 -22.983  0.00  0.00    +0.064 C 
ATOM     13  C   UNL     1      31.869 -11.437 -21.726  0.00  0.00    +0.096 C 
ATOM     14  C   UNL     1      34.104 -15.291 -22.814  0.00  0.00    +0.048 C 
ATOM     15  C   UNL     1      34.442 -14.185 -23.568  0.00  0.00    +0.020 C 
ATOM     16  C   UNL     1      33.806 -11.659 -23.335  0.00  0.00    +0.247 C 
ATOM     17  H   UNL     1      32.903 -15.459 -21.094  0.00  0.00    +0.152 HD
ATOM     18  H   UNL     1      32.993  -9.904 -22.656  0.00  0.00    +0.150 HD
ENDBRANCH   2  14
BRANCH   4  20
ATOM     19  N   UNL     1      36.573 -20.904 -19.436  0.00  0.00    -0.244 NA
ATOM     20  C   UNL     1      35.122 -19.737 -20.974  0.00  0.00    +0.037 C 
ATOM     21  C   UNL     1      34.018 -20.333 -20.382  0.00  0.00    +0.005 C 
ATOM     22  C   UNL     1      34.187 -21.220 -19.310  0.00  0.00    +0.018 C 
ATOM     23  C   UNL     1      35.500 -21.481 -18.863  0.00  0.00    +0.081 C 
ATOM     24  C   UNL     1      36.367 -20.054 -20.468  0.00  0.00    +0.100 C 
ATOM     25  C   UNL     1      33.090 -21.841 -18.688  0.00  0.00    +0.001 C 
ATOM     26  C   UNL     1      35.667 -22.362 -17.799  0.00  0.00    +0.019 C 
ATOM     27  C   UNL     1      33.287 -22.719 -17.625  0.00  0.00    +0.000 C 
ATOM     28  C   UNL     1      34.577 -22.979 -17.180  0.00  0.00    +0.002 C 
ENDBRANCH   4  20
TORSDOF 2
ENDMDL
