MODEL 1
REMARK VINA RESULT:     -12.5      0.000      0.000
REMARK  Name = 24779676
REMARK  4 active torsions:
REMARK  status: ('A' for Active; 'I' for Inactive)
REMARK    1  A    between atoms: N_2  and  C_22
REMARK    2  A    between atoms: N_3  and  C_14
REMARK    3  A    between atoms: C_10  and  C_21
REMARK    4  A    between atoms: C_22  and  C_24
REMARK                            x       y       z     vdW  Elec       q    Type
REMARK                         _______ _______ _______ _____ _____    ______ ____
ROOT
ATOM      1  N   UNL     1      32.829 -24.005 -14.027  0.00  0.00    -0.123 N 
ATOM      2  N   UNL     1      34.311 -22.979 -17.601  0.00  0.00    -0.254 N 
ATOM      3  N   UNL     1      34.909 -24.850 -13.297  0.00  0.00    -0.274 N 
ATOM      4  N   UNL     1      34.616 -23.915 -15.454  0.00  0.00    -0.295 NA
ATOM      5  N   UNL     1      32.495 -23.070 -16.159  0.00  0.00    -0.314 NA
ATOM      6  N   UNL     1      32.226 -24.307 -12.863  0.00  0.00    -0.170 NA
ATOM      7  C   UNL     1      34.167 -24.260 -14.283  0.00  0.00    +0.279 C 
ATOM      8  C   UNL     1      32.008 -23.421 -14.948  0.00  0.00    +0.219 C 
ATOM      9  C   UNL     1      33.766 -23.319 -16.385  0.00  0.00    +0.203 C 
ATOM     10  C   UNL     1      30.776 -23.335 -14.341  0.00  0.00    +0.203 C 
ATOM     11  C   UNL     1      30.970 -23.894 -13.062  0.00  0.00    +0.116 C 
ATOM     12  H   UNL     1      35.264 -23.167 -17.766  0.00  0.00    +0.161 HD
ATOM     13  H   UNL     1      34.440 -25.059 -12.457  0.00  0.00    +0.156 HD
ENDROOT
BRANCH   3  14
ATOM     14  C   UNL     1      36.262 -25.191 -13.355  0.00  0.00    +0.051 C 
ATOM     15  C   UNL     1      36.690 -26.207 -14.209  0.00  0.00    +0.015 C 
ATOM     16  C   UNL     1      37.186 -24.514 -12.558  0.00  0.00    +0.015 C 
ATOM     17  C   UNL     1      38.042 -26.546 -14.267  0.00  0.00    +0.001 C 
ATOM     18  C   UNL     1      38.538 -24.853 -12.617  0.00  0.00    +0.001 C 
ATOM     19  C   UNL     1      38.965 -25.869 -13.471  0.00  0.00    +0.000 C 
ENDBRANCH   3  14
BRANCH  10  21
ATOM     20  N   UNL     1      28.616 -22.356 -15.360  0.00  0.00    -0.195 NA
ATOM     21  C   UNL     1      29.588 -22.797 -14.902  0.00  0.00    +0.087 C 
ENDBRANCH  10  21
BRANCH   2  22
ATOM     22  C   UNL     1      33.539 -22.363 -18.633  0.00  0.00    +0.125 C 
BRANCH  22  24
ATOM     23 CL   UNL     1      36.935 -18.556 -21.820  0.00  0.00    -0.082 Cl
ATOM     24  C   UNL     1      34.388 -21.411 -19.429  0.00  0.00    -0.002 C 
ATOM     25  C   UNL     1      35.779 -21.464 -19.329  0.00  0.00    -0.002 C 
ATOM     26  C   UNL     1      33.785 -20.474 -20.270  0.00  0.00    -0.002 C 
ATOM     27  C   UNL     1      36.566 -20.581 -20.068  0.00  0.00    +0.011 C 
ATOM     28  C   UNL     1      34.573 -19.592 -21.009  0.00  0.00    +0.011 C 
ATOM     29  C   UNL     1      35.963 -19.645 -20.908  0.00  0.00    +0.058 C 
ENDBRANCH  22  24
ENDBRANCH   2  22
TORSDOF 4
ENDMDL
MODEL 2
REMARK VINA RESULT:     -11.2      1.456      5.522
REMARK  Name = 24779676
REMARK  4 active torsions:
REMARK  status: ('A' for Active; 'I' for Inactive)
REMARK    1  A    between atoms: N_2  and  C_22
REMARK    2  A    between atoms: N_3  and  C_14
REMARK    3  A    between atoms: C_10  and  C_21
REMARK    4  A    between atoms: C_22  and  C_24
REMARK                            x       y       z     vdW  Elec       q    Type
REMARK                         _______ _______ _______ _____ _____    ______ ____
ROOT
ATOM      1  N   UNL     1      33.924 -24.007 -14.021  0.00  0.00    -0.123 N 
ATOM      2  N   UNL     1      34.415 -22.549 -17.716  0.00  0.00    -0.254 N 
ATOM      3  N   UNL     1      31.571 -23.966 -14.211  0.00  0.00    -0.274 N 
ATOM      4  N   UNL     1      32.990 -23.254 -15.970  0.00  0.00    -0.295 NA
ATOM      5  N   UNL     1      35.368 -23.309 -15.741  0.00  0.00    -0.314 NA
ATOM      6  N   UNL     1      33.878 -24.499 -12.770  0.00  0.00    -0.170 NA
ATOM      7  C   UNL     1      32.795 -23.728 -14.774  0.00  0.00    +0.279 C 
ATOM      8  C   UNL     1      35.187 -23.801 -14.496  0.00  0.00    +0.219 C 
ATOM      9  C   UNL     1      34.286 -23.049 -16.442  0.00  0.00    +0.203 C 
ATOM     10  C   UNL     1      36.030 -24.187 -13.478  0.00  0.00    +0.203 C 
ATOM     11  C   UNL     1      35.170 -24.607 -12.444  0.00  0.00    +0.116 C 
ATOM     12  H   UNL     1      33.603 -22.356 -18.238  0.00  0.00    +0.161 HD
ATOM     13  H   UNL     1      31.570 -24.327 -13.295  0.00  0.00    +0.156 HD
ENDROOT
BRANCH   3  14
ATOM     14  C   UNL     1      30.322 -23.752 -14.797  0.00  0.00    +0.051 C 
ATOM     15  C   UNL     1      29.679 -22.524 -14.639  0.00  0.00    +0.015 C 
ATOM     16  C   UNL     1      29.717 -24.766 -15.540  0.00  0.00    +0.015 C 
ATOM     17  C   UNL     1      28.431 -22.311 -15.225  0.00  0.00    +0.001 C 
ATOM     18  C   UNL     1      28.470 -24.552 -16.126  0.00  0.00    +0.001 C 
ATOM     19  C   UNL     1      27.827 -23.325 -15.968  0.00  0.00    +0.000 C 
ENDBRANCH   3  14
BRANCH  10  21
ATOM     20  N   UNL     1      38.610 -24.136 -13.506  0.00  0.00    -0.195 NA
ATOM     21  C   UNL     1      37.450 -24.159 -13.493  0.00  0.00    +0.087 C 
ENDBRANCH  10  21
BRANCH   2  22
ATOM     22  C   UNL     1      35.691 -22.298 -18.307  0.00  0.00    +0.125 C 
BRANCH  22  24
ATOM     23 CL   UNL     1      35.253 -18.053 -22.545  0.00  0.00    -0.082 Cl
ATOM     24  C   UNL     1      35.581 -21.237 -19.367  0.00  0.00    -0.002 C 
ATOM     25  C   UNL     1      34.332 -20.891 -19.882  0.00  0.00    -0.002 C 
ATOM     26  C   UNL     1      36.730 -20.597 -19.835  0.00  0.00    -0.002 C 
ATOM     27  C   UNL     1      34.231 -19.906 -20.864  0.00  0.00    +0.011 C 
ATOM     28  C   UNL     1      36.628 -19.613 -20.818  0.00  0.00    +0.011 C 
ATOM     29  C   UNL     1      35.379 -19.267 -21.332  0.00  0.00    +0.058 C 
ENDBRANCH  22  24
ENDBRANCH   2  22
TORSDOF 4
ENDMDL
MODEL 3
REMARK VINA RESULT:     -10.7      1.735      5.420
REMARK  Name = 24779676
REMARK  4 active torsions:
REMARK  status: ('A' for Active; 'I' for Inactive)
REMARK    1  A    between atoms: N_2  and  C_22
REMARK    2  A    between atoms: N_3  and  C_14
REMARK    3  A    between atoms: C_10  and  C_21
REMARK    4  A    between atoms: C_22  and  C_24
REMARK                            x       y       z     vdW  Elec       q    Type
REMARK                         _______ _______ _______ _____ _____    ______ ____
ROOT
ATOM      1  N   UNL     1      35.933 -24.686 -13.903  0.00  0.00    -0.123 N 
ATOM      2  N   UNL     1      35.675 -22.378 -17.163  0.00  0.00    -0.254 N 
ATOM      3  N   UNL     1      33.592 -24.681 -13.594  0.00  0.00    -0.274 N 
ATOM      4  N   UNL     1      34.630 -23.525 -15.384  0.00  0.00    -0.295 NA
ATOM      5  N   UNL     1      37.002 -23.552 -15.665  0.00  0.00    -0.314 NA
ATOM      6  N   UNL     1      36.138 -25.462 -12.824  0.00  0.00    -0.170 NA
ATOM      7  C   UNL     1      34.678 -24.275 -14.321  0.00  0.00    +0.279 C 
ATOM      8  C   UNL     1      37.074 -24.331 -14.563  0.00  0.00    +0.219 C 
ATOM      9  C   UNL     1      35.803 -23.170 -16.047  0.00  0.00    +0.203 C 
ATOM     10  C   UNL     1      38.102 -24.918 -13.861  0.00  0.00    +0.203 C 
ATOM     11  C   UNL     1      37.467 -25.601 -12.804  0.00  0.00    +0.116 C 
ATOM     12  H   UNL     1      34.776 -22.094 -17.446  0.00  0.00    +0.161 HD
ATOM     13  H   UNL     1      33.775 -25.249 -12.810  0.00  0.00    +0.156 HD
ENDROOT
BRANCH   3  14
ATOM     14  C   UNL     1      32.253 -24.377 -13.844  0.00  0.00    +0.051 C 
ATOM     15  C   UNL     1      31.287 -25.381 -13.787  0.00  0.00    +0.015 C 
ATOM     16  C   UNL     1      31.882 -23.068 -14.153  0.00  0.00    +0.015 C 
ATOM     17  C   UNL     1      29.949 -25.076 -14.036  0.00  0.00    +0.001 C 
ATOM     18  C   UNL     1      30.543 -22.763 -14.401  0.00  0.00    +0.001 C 
ATOM     19  C   UNL     1      29.577 -23.768 -14.343  0.00  0.00    +0.000 C 
ENDBRANCH   3  14
BRANCH  10  21
ATOM     20  N   UNL     1      40.622 -24.775 -14.402  0.00  0.00    -0.195 NA
ATOM     21  C   UNL     1      39.489 -24.839 -14.159  0.00  0.00    +0.087 C 
ENDBRANCH  10  21
BRANCH   2  22
ATOM     22  C   UNL     1      36.806 -21.951 -17.925  0.00  0.00    +0.125 C 
BRANCH  22  24
ATOM     23 CL   UNL     1      35.057 -18.548 -22.566  0.00  0.00    -0.082 Cl
ATOM     24  C   UNL     1      36.369 -21.101 -19.085  0.00  0.00    -0.002 C 
ATOM     25  C   UNL     1      35.052 -21.168 -19.544  0.00  0.00    -0.002 C 
ATOM     26  C   UNL     1      37.279 -20.242 -19.703  0.00  0.00    -0.002 C 
ATOM     27  C   UNL     1      34.648 -20.379 -20.620  0.00  0.00    +0.011 C 
ATOM     28  C   UNL     1      36.873 -19.453 -20.779  0.00  0.00    +0.011 C 
ATOM     29  C   UNL     1      35.558 -19.522 -21.237  0.00  0.00    +0.058 C 
ENDBRANCH  22  24
ENDBRANCH   2  22
TORSDOF 4
ENDMDL
MODEL 4
REMARK VINA RESULT:     -10.4      2.686      6.824
REMARK  Name = 24779676
REMARK  4 active torsions:
REMARK  status: ('A' for Active; 'I' for Inactive)
REMARK    1  A    between atoms: N_2  and  C_22
REMARK    2  A    between atoms: N_3  and  C_14
REMARK    3  A    between atoms: C_10  and  C_21
REMARK    4  A    between atoms: C_22  and  C_24
REMARK                            x       y       z     vdW  Elec       q    Type
REMARK                         _______ _______ _______ _____ _____    ______ ____
ROOT
ATOM      1  N   UNL     1      31.976 -23.054 -16.294  0.00  0.00    -0.123 N 
ATOM      2  N   UNL     1      35.671 -23.040 -14.754  0.00  0.00    -0.254 N 
ATOM      3  N   UNL     1      32.695 -22.007 -18.284  0.00  0.00    -0.274 N 
ATOM      4  N   UNL     1      34.190 -22.522 -16.519  0.00  0.00    -0.295 NA
ATOM      5  N   UNL     1      33.426 -23.580 -14.519  0.00  0.00    -0.314 NA
ATOM      6  N   UNL     1      30.698 -23.112 -16.710  0.00  0.00    -0.170 NA
ATOM      7  C   UNL     1      33.002 -22.511 -17.050  0.00  0.00    +0.279 C 
ATOM      8  C   UNL     1      32.184 -23.579 -15.051  0.00  0.00    +0.219 C 
ATOM      9  C   UNL     1      34.388 -23.061 -15.250  0.00  0.00    +0.203 C 
ATOM     10  C   UNL     1      30.950 -24.011 -14.623  0.00  0.00    +0.203 C 
ATOM     11  C   UNL     1      30.075 -23.699 -15.684  0.00  0.00    +0.116 C 
ATOM     12  H   UNL     1      36.388 -22.650 -15.305  0.00  0.00    +0.161 HD
ATOM     13  H   UNL     1      31.752 -22.065 -18.561  0.00  0.00    +0.156 HD
ENDROOT
BRANCH   3  14
ATOM     14  C   UNL     1      33.576 -21.420 -19.194  0.00  0.00    +0.051 C 
ATOM     15  C   UNL     1      33.104 -20.491 -20.121  0.00  0.00    +0.015 C 
ATOM     16  C   UNL     1      34.928 -21.763 -19.175  0.00  0.00    +0.015 C 
ATOM     17  C   UNL     1      33.986 -19.904 -21.030  0.00  0.00    +0.001 C 
ATOM     18  C   UNL     1      35.809 -21.175 -20.084  0.00  0.00    +0.001 C 
ATOM     19  C   UNL     1      35.338 -20.246 -21.011  0.00  0.00    +0.000 C 
ENDBRANCH   3  14
BRANCH  10  21
ATOM     20  N   UNL     1      30.405 -25.142 -12.368  0.00  0.00    -0.195 NA
ATOM     21  C   UNL     1      30.650 -24.633 -13.382  0.00  0.00    +0.087 C 
ENDBRANCH  10  21
BRANCH   2  22
ATOM     22  C   UNL     1      35.996 -23.564 -13.466  0.00  0.00    +0.125 C 
BRANCH  22  24
ATOM     23 CL   UNL     1      41.111 -26.718 -13.705  0.00  0.00    -0.082 Cl
ATOM     24  C   UNL     1      37.274 -24.352 -13.524  0.00  0.00    -0.002 C 
ATOM     25  C   UNL     1      37.643 -25.167 -12.454  0.00  0.00    -0.002 C 
ATOM     26  C   UNL     1      38.093 -24.269 -14.652  0.00  0.00    -0.002 C 
ATOM     27  C   UNL     1      38.829 -25.899 -12.510  0.00  0.00    +0.011 C 
ATOM     28  C   UNL     1      39.279 -25.001 -14.707  0.00  0.00    +0.011 C 
ATOM     29  C   UNL     1      39.647 -25.816 -13.636  0.00  0.00    +0.058 C 
ENDBRANCH  22  24
ENDBRANCH   2  22
TORSDOF 4
ENDMDL
MODEL 5
REMARK VINA RESULT:      -9.6      3.059      7.523
REMARK  Name = 24779676
REMARK  4 active torsions:
REMARK  status: ('A' for Active; 'I' for Inactive)
REMARK    1  A    between atoms: N_2  and  C_22
REMARK    2  A    between atoms: N_3  and  C_14
REMARK    3  A    between atoms: C_10  and  C_21
REMARK    4  A    between atoms: C_22  and  C_24
REMARK                            x       y       z     vdW  Elec       q    Type
REMARK                         _______ _______ _______ _____ _____    ______ ____
ROOT
ATOM      1  N   UNL     1      36.427 -22.754 -16.409  0.00  0.00    -0.123 N 
ATOM      2  N   UNL     1      32.464 -23.263 -16.647  0.00  0.00    -0.254 N 
ATOM      3  N   UNL     1      36.472 -21.422 -18.357  0.00  0.00    -0.274 N 
ATOM      4  N   UNL     1      34.461 -22.341 -17.506  0.00  0.00    -0.295 NA
ATOM      5  N   UNL     1      34.454 -23.686 -15.531  0.00  0.00    -0.314 NA
ATOM      6  N   UNL     1      37.756 -22.650 -16.230  0.00  0.00    -0.170 NA
ATOM      7  C   UNL     1      35.748 -22.155 -17.458  0.00  0.00    +0.279 C 
ATOM      8  C   UNL     1      35.792 -23.506 -15.463  0.00  0.00    +0.219 C 
ATOM      9  C   UNL     1      33.826 -23.111 -16.533  0.00  0.00    +0.203 C 
ATOM     10  C   UNL     1      36.780 -23.925 -14.602  0.00  0.00    +0.203 C 
ATOM     11  C   UNL     1      37.966 -23.369 -15.123  0.00  0.00    +0.116 C 
ATOM     12  H   UNL     1      31.997 -22.831 -17.398  0.00  0.00    +0.161 HD
ATOM     13  H   UNL     1      37.442 -21.364 -18.199  0.00  0.00    +0.156 HD
ENDROOT
BRANCH   3  14
ATOM     14  C   UNL     1      35.982 -20.746 -19.477  0.00  0.00    +0.051 C 
ATOM     15  C   UNL     1      34.638 -20.865 -19.830  0.00  0.00    +0.015 C 
ATOM     16  C   UNL     1      36.838 -19.953 -20.242  0.00  0.00    +0.015 C 
ATOM     17  C   UNL     1      34.149 -20.189 -20.949  0.00  0.00    +0.001 C 
ATOM     18  C   UNL     1      36.348 -19.277 -21.360  0.00  0.00    +0.001 C 
ATOM     19  C   UNL     1      35.004 -19.396 -21.713  0.00  0.00    +0.000 C 
ENDBRANCH   3  14
BRANCH  10  21
ATOM     20  N   UNL     1      36.480 -25.403 -12.507  0.00  0.00    -0.195 NA
ATOM     21  C   UNL     1      36.615 -24.738 -13.449  0.00  0.00    +0.087 C 
ENDBRANCH  10  21
BRANCH   2  22
ATOM     22  C   UNL     1      31.704 -24.029 -15.710  0.00  0.00    +0.125 C 
BRANCH  22  24
ATOM     23 CL   UNL     1      26.022 -22.071 -15.498  0.00  0.00    -0.082 Cl
ATOM     24  C   UNL     1      30.284 -23.539 -15.658  0.00  0.00    -0.002 C 
ATOM     25  C   UNL     1      29.351 -24.001 -16.587  0.00  0.00    -0.002 C 
ATOM     26  C   UNL     1      29.898 -22.623 -14.678  0.00  0.00    -0.002 C 
ATOM     27  C   UNL     1      28.034 -23.546 -16.537  0.00  0.00    +0.011 C 
ATOM     28  C   UNL     1      28.580 -22.169 -14.629  0.00  0.00    +0.011 C 
ATOM     29  C   UNL     1      27.648 -22.631 -15.558  0.00  0.00    +0.058 C 
ENDBRANCH  22  24
ENDBRANCH   2  22
TORSDOF 4
ENDMDL
