MODEL 1
REMARK VINA RESULT:     -11.9      0.000      0.000
REMARK  Name = 11507920
REMARK  4 active torsions:
REMARK  status: ('A' for Active; 'I' for Inactive)
REMARK    1  A    between atoms: C_1  and  C_8
REMARK    2  A    between atoms: C_2  and  C_17
REMARK    3  A    between atoms: C_17  and  N_18
REMARK    4  A    between atoms: N_18  and  C_21
REMARK                            x       y       z     vdW  Elec       q    Type
REMARK                         _______ _______ _______ _____ _____    ______ ____
ROOT
ATOM      1  C   UNL     1      34.887 -19.152 -21.632  0.00  0.00    -0.000 C 
ATOM      2  C   UNL     1      34.906 -16.841 -22.334  0.00  0.00    -0.003 C 
ATOM      3  C   UNL     1      34.895 -17.795 -21.315  0.00  0.00    -0.003 C 
ATOM      4  C   UNL     1      34.889 -19.559 -22.966  0.00  0.00    -0.000 C 
ATOM      5  C   UNL     1      34.908 -17.247 -23.669  0.00  0.00    -0.003 C 
ATOM      6  C   UNL     1      34.899 -18.606 -23.985  0.00  0.00    -0.000 C 
ENDROOT
BRANCH   1   8
ATOM      7  N   UNL     1      32.653 -22.153 -18.366  0.00  0.00    -0.312 N 
ATOM      8  C   UNL     1      34.874 -20.142 -20.575  0.00  0.00    +0.001 C 
ATOM      9  C   UNL     1      33.683 -21.543 -19.045  0.00  0.00    +0.048 C 
ATOM     10  C   UNL     1      34.876 -22.055 -18.530  0.00  0.00    +0.015 C 
ATOM     11  C   UNL     1      33.651 -20.586 -20.066  0.00  0.00    +0.015 C 
ATOM     12  C   UNL     1      36.080 -20.635 -20.080  0.00  0.00    +0.000 C 
ATOM     13  C   UNL     1      36.097 -21.591 -19.058  0.00  0.00    +0.001 C 
ATOM     14  C   UNL     1      34.525 -22.993 -17.520  0.00  0.00    +0.017 C 
ATOM     15  C   UNL     1      33.152 -23.031 -17.442  0.00  0.00    +0.062 C 
ATOM     16  H   UNL     1      31.696 -21.983 -18.522  0.00  0.00    +0.152 HD
ENDBRANCH   1   8
BRANCH   2  17
ATOM     17  C   UNL     1      34.914 -15.388 -21.997  0.00  0.00    +0.114 C 
BRANCH  17  18
ATOM     18  N   UNL     1      33.972 -14.638 -22.787  0.00  0.00    -0.327 N 
ATOM     19  H   UNL     1      33.808 -14.929 -23.713  0.00  0.00    +0.147 HD
BRANCH  18  21
ATOM     20  N   UNL     1      32.735 -11.161 -22.479  0.00  0.00    -0.228 NA
ATOM     21  C   UNL     1      33.283 -13.528 -22.319  0.00  0.00    +0.077 C 
ATOM     22  C   UNL     1      33.390 -12.264 -22.904  0.00  0.00    +0.139 C 
ATOM     23  C   UNL     1      32.429 -13.635 -21.214  0.00  0.00    +0.019 C 
ATOM     24  C   UNL     1      31.739 -12.522 -20.747  0.00  0.00    +0.022 C 
ATOM     25  C   UNL     1      31.924 -11.318 -21.408  0.00  0.00    +0.100 C 
ATOM     26  N   UNL     1      34.250 -12.130 -24.023  0.00  0.00    -0.342 N 
ATOM     27  H   UNL     1      34.351 -11.256 -24.463  0.00  0.00    +0.144 HD
ATOM     28  H   UNL     1      34.743 -12.912 -24.362  0.00  0.00    +0.144 HD
ENDBRANCH  18  21
ENDBRANCH  17  18
ENDBRANCH   2  17
TORSDOF 4
ENDMDL
MODEL 2
REMARK VINA RESULT:     -11.9      1.830      8.871
REMARK  Name = 11507920
REMARK  4 active torsions:
REMARK  status: ('A' for Active; 'I' for Inactive)
REMARK    1  A    between atoms: C_1  and  C_8
REMARK    2  A    between atoms: C_2  and  C_17
REMARK    3  A    between atoms: C_17  and  N_18
REMARK    4  A    between atoms: N_18  and  C_21
REMARK                            x       y       z     vdW  Elec       q    Type
REMARK                         _______ _______ _______ _____ _____    ______ ____
ROOT
ATOM      1  C   UNL     1      35.370 -19.405 -20.851  0.00  0.00    -0.000 C 
ATOM      2  C   UNL     1      34.488 -21.281 -19.612  0.00  0.00    -0.003 C 
ATOM      3  C   UNL     1      34.281 -20.154 -20.408  0.00  0.00    -0.003 C 
ATOM      4  C   UNL     1      36.666 -19.780 -20.500  0.00  0.00    -0.000 C 
ATOM      5  C   UNL     1      35.784 -21.657 -19.259  0.00  0.00    -0.003 C 
ATOM      6  C   UNL     1      36.873 -20.906 -19.703  0.00  0.00    -0.000 C 
ENDROOT
BRANCH   1   8
ATOM      7  N   UNL     1      34.506 -14.570 -21.586  0.00  0.00    -0.312 N 
ATOM      8  C   UNL     1      35.155 -18.234 -21.676  0.00  0.00    +0.001 C 
ATOM      9  C   UNL     1      34.737 -15.890 -21.900  0.00  0.00    +0.048 C 
ATOM     10  C   UNL     1      34.742 -15.986 -23.293  0.00  0.00    +0.015 C 
ATOM     11  C   UNL     1      34.941 -16.995 -21.067  0.00  0.00    +0.015 C 
ATOM     12  C   UNL     1      35.165 -18.361 -23.064  0.00  0.00    +0.000 C 
ATOM     13  C   UNL     1      34.959 -17.246 -23.886  0.00  0.00    +0.001 C 
ATOM     14  C   UNL     1      34.506 -14.678 -23.802  0.00  0.00    +0.017 C 
ATOM     15  C   UNL     1      34.365 -13.830 -22.729  0.00  0.00    +0.062 C 
ATOM     16  H   UNL     1      34.450 -14.209 -20.671  0.00  0.00    +0.152 HD
ENDBRANCH   1   8
BRANCH   2  17
ATOM     17  C   UNL     1      33.324 -22.083 -19.136  0.00  0.00    +0.114 C 
BRANCH  17  18
ATOM     18  N   UNL     1      33.715 -23.122 -18.219  0.00  0.00    -0.327 N 
ATOM     19  H   UNL     1      34.316 -23.829 -18.547  0.00  0.00    +0.147 HD
BRANCH  18  21
ATOM     20  N   UNL     1      33.792 -23.476 -14.532  0.00  0.00    -0.228 NA
ATOM     21  C   UNL     1      33.292 -23.185 -16.898  0.00  0.00    +0.077 C 
ATOM     22  C   UNL     1      34.164 -23.409 -15.830  0.00  0.00    +0.139 C 
ATOM     23  C   UNL     1      31.939 -23.019 -16.575  0.00  0.00    +0.019 C 
ATOM     24  C   UNL     1      31.517 -23.082 -15.252  0.00  0.00    +0.022 C 
ATOM     25  C   UNL     1      32.474 -23.310 -14.276  0.00  0.00    +0.100 C 
ATOM     26  N   UNL     1      35.539 -23.581 -16.131  0.00  0.00    -0.342 N 
ATOM     27  H   UNL     1      36.185 -23.741 -15.406  0.00  0.00    +0.144 HD
ATOM     28  H   UNL     1      35.848 -23.540 -17.065  0.00  0.00    +0.144 HD
ENDBRANCH  18  21
ENDBRANCH  17  18
ENDBRANCH   2  17
TORSDOF 4
ENDMDL
MODEL 3
REMARK VINA RESULT:     -11.6      1.455      2.071
REMARK  Name = 11507920
REMARK  4 active torsions:
REMARK  status: ('A' for Active; 'I' for Inactive)
REMARK    1  A    between atoms: C_1  and  C_8
REMARK    2  A    between atoms: C_2  and  C_17
REMARK    3  A    between atoms: C_17  and  N_18
REMARK    4  A    between atoms: N_18  and  C_21
REMARK                            x       y       z     vdW  Elec       q    Type
REMARK                         _______ _______ _______ _____ _____    ______ ____
ROOT
ATOM      1  C   UNL     1      34.919 -19.275 -21.699  0.00  0.00    -0.000 C 
ATOM      2  C   UNL     1      34.946 -17.001 -22.511  0.00  0.00    -0.003 C 
ATOM      3  C   UNL     1      34.925 -17.904 -21.448  0.00  0.00    -0.003 C 
ATOM      4  C   UNL     1      34.935 -19.745 -23.011  0.00  0.00    -0.000 C 
ATOM      5  C   UNL     1      34.961 -17.470 -23.825  0.00  0.00    -0.003 C 
ATOM      6  C   UNL     1      34.955 -18.843 -24.075  0.00  0.00    -0.000 C 
ENDROOT
BRANCH   1   8
ATOM      7  N   UNL     1      32.653 -22.169 -18.359  0.00  0.00    -0.312 N 
ATOM      8  C   UNL     1      34.896 -20.213 -20.595  0.00  0.00    +0.001 C 
ATOM      9  C   UNL     1      33.689 -21.567 -19.036  0.00  0.00    +0.048 C 
ATOM     10  C   UNL     1      34.877 -22.024 -18.460  0.00  0.00    +0.015 C 
ATOM     11  C   UNL     1      33.668 -20.662 -20.103  0.00  0.00    +0.015 C 
ATOM     12  C   UNL     1      36.097 -20.651 -20.040  0.00  0.00    +0.000 C 
ATOM     13  C   UNL     1      36.104 -21.556 -18.972  0.00  0.00    +0.001 C 
ATOM     14  C   UNL     1      34.516 -22.921 -17.416  0.00  0.00    +0.017 C 
ATOM     15  C   UNL     1      33.143 -22.989 -17.379  0.00  0.00    +0.062 C 
ATOM     16  H   UNL     1      31.698 -22.031 -18.553  0.00  0.00    +0.152 HD
ENDBRANCH   1   8
BRANCH   2  17
ATOM     17  C   UNL     1      34.952 -15.533 -22.245  0.00  0.00    +0.114 C 
BRANCH  17  18
ATOM     18  N   UNL     1      33.764 -14.884 -22.738  0.00  0.00    -0.327 N 
ATOM     19  H   UNL     1      32.961 -14.892 -22.169  0.00  0.00    +0.147 HD
BRANCH  18  21
ATOM     20  N   UNL     1      33.879 -12.229 -25.318  0.00  0.00    -0.228 NA
ATOM     21  C   UNL     1      33.687 -14.247 -23.969  0.00  0.00    +0.077 C 
ATOM     22  C   UNL     1      33.942 -12.884 -24.137  0.00  0.00    +0.139 C 
ATOM     23  C   UNL     1      33.345 -14.966 -25.121  0.00  0.00    +0.019 C 
ATOM     24  C   UNL     1      33.269 -14.327 -26.354  0.00  0.00    +0.022 C 
ATOM     25  C   UNL     1      33.543 -12.969 -26.399  0.00  0.00    +0.100 C 
ATOM     26  N   UNL     1      34.289 -12.135 -22.985  0.00  0.00    -0.342 N 
ATOM     27  H   UNL     1      34.476 -11.171 -23.063  0.00  0.00    +0.144 HD
ATOM     28  H   UNL     1      34.345 -12.577 -22.108  0.00  0.00    +0.144 HD
ENDBRANCH  18  21
ENDBRANCH  17  18
ENDBRANCH   2  17
TORSDOF 4
ENDMDL
MODEL 4
REMARK VINA RESULT:     -11.6      1.449      8.480
REMARK  Name = 11507920
REMARK  4 active torsions:
REMARK  status: ('A' for Active; 'I' for Inactive)
REMARK    1  A    between atoms: C_1  and  C_8
REMARK    2  A    between atoms: C_2  and  C_17
REMARK    3  A    between atoms: C_17  and  N_18
REMARK    4  A    between atoms: N_18  and  C_21
REMARK                            x       y       z     vdW  Elec       q    Type
REMARK                         _______ _______ _______ _____ _____    ______ ____
ROOT
ATOM      1  C   UNL     1      33.987 -15.232 -22.430  0.00  0.00    -0.000 C 
ATOM      2  C   UNL     1      35.183 -17.315 -22.172  0.00  0.00    -0.003 C 
ATOM      3  C   UNL     1      34.501 -16.235 -21.609  0.00  0.00    -0.003 C 
ATOM      4  C   UNL     1      34.155 -15.306 -23.812  0.00  0.00    -0.000 C 
ATOM      5  C   UNL     1      35.351 -17.390 -23.554  0.00  0.00    -0.003 C 
ATOM      6  C   UNL     1      34.838 -16.384 -24.375  0.00  0.00    -0.000 C 
ENDROOT
BRANCH   1   8
ATOM      7  N   UNL     1      32.314 -10.556 -22.383  0.00  0.00    -0.312 N 
ATOM      8  C   UNL     1      33.280 -14.111 -21.846  0.00  0.00    +0.001 C 
ATOM      9  C   UNL     1      32.531 -11.841 -21.941  0.00  0.00    +0.048 C 
ATOM     10  C   UNL     1      31.908 -11.958 -20.696  0.00  0.00    +0.015 C 
ATOM     11  C   UNL     1      33.224 -12.899 -22.540  0.00  0.00    +0.015 C 
ATOM     12  C   UNL     1      32.669 -14.257 -20.603  0.00  0.00    +0.000 C 
ATOM     13  C   UNL     1      31.979 -13.190 -20.015  0.00  0.00    +0.001 C 
ATOM     14  C   UNL     1      31.311 -10.699 -20.409  0.00  0.00    +0.017 C 
ATOM     15  C   UNL     1      31.578  -9.859 -21.465  0.00  0.00    +0.062 C 
ATOM     16  H   UNL     1      32.641 -10.191 -23.237  0.00  0.00    +0.152 HD
ENDBRANCH   1   8
BRANCH   2  17
ATOM     17  C   UNL     1      35.733 -18.389 -21.295  0.00  0.00    +0.114 C 
BRANCH  17  18
ATOM     18  N   UNL     1      34.984 -19.615 -21.397  0.00  0.00    -0.327 N 
ATOM     19  H   UNL     1      34.562 -19.831 -22.260  0.00  0.00    +0.147 HD
BRANCH  18  21
ATOM     20  N   UNL     1      33.370 -21.769 -18.852  0.00  0.00    -0.228 NA
ATOM     21  C   UNL     1      34.822 -20.510 -20.348  0.00  0.00    +0.077 C 
ATOM     22  C   UNL     1      33.569 -20.900 -19.869  0.00  0.00    +0.139 C 
ATOM     23  C   UNL     1      35.937 -21.074 -19.716  0.00  0.00    +0.019 C 
ATOM     24  C   UNL     1      35.772 -21.971 -18.666  0.00  0.00    +0.022 C 
ATOM     25  C   UNL     1      34.480 -22.283 -18.276  0.00  0.00    +0.100 C 
ATOM     26  N   UNL     1      32.425 -20.342 -20.492  0.00  0.00    -0.342 N 
ATOM     27  H   UNL     1      31.525 -20.592 -20.182  0.00  0.00    +0.144 HD
ATOM     28  H   UNL     1      32.530 -19.705 -21.235  0.00  0.00    +0.144 HD
ENDBRANCH  18  21
ENDBRANCH  17  18
ENDBRANCH   2  17
TORSDOF 4
ENDMDL
MODEL 5
REMARK VINA RESULT:     -11.4      2.137      8.206
REMARK  Name = 11507920
REMARK  4 active torsions:
REMARK  status: ('A' for Active; 'I' for Inactive)
REMARK    1  A    between atoms: C_1  and  C_8
REMARK    2  A    between atoms: C_2  and  C_17
REMARK    3  A    between atoms: C_17  and  N_18
REMARK    4  A    between atoms: N_18  and  C_21
REMARK                            x       y       z     vdW  Elec       q    Type
REMARK                         _______ _______ _______ _____ _____    ______ ____
ROOT
ATOM      1  C   UNL     1      33.561 -14.618 -23.187  0.00  0.00    -0.000 C 
ATOM      2  C   UNL     1      34.761 -16.650 -23.706  0.00  0.00    -0.003 C 
ATOM      3  C   UNL     1      34.215 -15.775 -22.766  0.00  0.00    -0.003 C 
ATOM      4  C   UNL     1      33.453 -14.333 -24.548  0.00  0.00    -0.000 C 
ATOM      5  C   UNL     1      34.653 -16.365 -25.068  0.00  0.00    -0.003 C 
ATOM      6  C   UNL     1      33.999 -15.206 -25.488  0.00  0.00    -0.000 C 
ENDROOT
BRANCH   1   8
ATOM      7  N   UNL     1      31.987 -10.176 -21.621  0.00  0.00    -0.312 N 
ATOM      8  C   UNL     1      32.996 -13.710 -22.211  0.00  0.00    +0.001 C 
ATOM      9  C   UNL     1      32.271 -11.522 -21.574  0.00  0.00    +0.048 C 
ATOM     10  C   UNL     1      31.902 -11.975 -20.305  0.00  0.00    +0.015 C 
ATOM     11  C   UNL     1      32.820 -12.365 -22.546  0.00  0.00    +0.015 C 
ATOM     12  C   UNL     1      32.637 -14.191 -20.952  0.00  0.00    +0.000 C 
ATOM     13  C   UNL     1      32.090 -13.336 -19.989  0.00  0.00    +0.001 C 
ATOM     14  C   UNL     1      31.387 -10.854 -19.596  0.00  0.00    +0.017 C 
ATOM     15  C   UNL     1      31.453  -9.764 -20.431  0.00  0.00    +0.062 C 
ATOM     16  H   UNL     1      32.145  -9.594 -22.400  0.00  0.00    +0.152 HD
ENDBRANCH   1   8
BRANCH   2  17
ATOM     17  C   UNL     1      35.460 -17.888 -23.257  0.00  0.00    +0.114 C 
BRANCH  17  18
ATOM     18  N   UNL     1      35.664 -17.914 -21.832  0.00  0.00    -0.327 N 
ATOM     19  H   UNL     1      35.933 -17.079 -21.386  0.00  0.00    +0.147 HD
BRANCH  18  21
ATOM     20  N   UNL     1      36.421 -20.709 -19.522  0.00  0.00    -0.228 NA
ATOM     21  C   UNL     1      35.503 -19.050 -21.050  0.00  0.00    +0.077 C 
ATOM     22  C   UNL     1      36.539 -19.607 -20.296  0.00  0.00    +0.139 C 
ATOM     23  C   UNL     1      34.263 -19.698 -20.983  0.00  0.00    +0.019 C 
ATOM     24  C   UNL     1      34.104 -20.835 -20.199  0.00  0.00    +0.022 C 
ATOM     25  C   UNL     1      35.204 -21.297 -19.494  0.00  0.00    +0.100 C 
ATOM     26  N   UNL     1      37.804 -18.970 -20.348  0.00  0.00    -0.342 N 
ATOM     27  H   UNL     1      38.559 -19.332 -19.830  0.00  0.00    +0.144 HD
ATOM     28  H   UNL     1      37.928 -18.165 -20.901  0.00  0.00    +0.144 HD
ENDBRANCH  18  21
ENDBRANCH  17  18
ENDBRANCH   2  17
TORSDOF 4
ENDMDL
MODEL 6
REMARK VINA RESULT:     -11.2      4.583     10.988
REMARK  Name = 11507920
REMARK  4 active torsions:
REMARK  status: ('A' for Active; 'I' for Inactive)
REMARK    1  A    between atoms: C_1  and  C_8
REMARK    2  A    between atoms: C_2  and  C_17
REMARK    3  A    between atoms: C_17  and  N_18
REMARK    4  A    between atoms: N_18  and  C_21
REMARK                            x       y       z     vdW  Elec       q    Type
REMARK                         _______ _______ _______ _____ _____    ______ ____
ROOT
ATOM      1  C   UNL     1      33.594 -22.648 -17.061  0.00  0.00    -0.000 C 
ATOM      2  C   UNL     1      33.712 -23.775 -14.928  0.00  0.00    -0.003 C 
ATOM      3  C   UNL     1      34.346 -23.130 -15.991  0.00  0.00    -0.003 C 
ATOM      4  C   UNL     1      32.210 -22.811 -17.072  0.00  0.00    -0.000 C 
ATOM      5  C   UNL     1      32.327 -23.939 -14.938  0.00  0.00    -0.003 C 
ATOM      6  C   UNL     1      31.575 -23.457 -16.011  0.00  0.00    -0.000 C 
ENDROOT
BRANCH   1   8
ATOM      7  N   UNL     1      33.672 -19.919 -21.210  0.00  0.00    -0.312 N 
ATOM      8  C   UNL     1      34.253 -21.980 -18.165  0.00  0.00    +0.001 C 
ATOM      9  C   UNL     1      34.159 -20.658 -20.156  0.00  0.00    +0.048 C 
ATOM     10  C   UNL     1      35.549 -20.696 -20.289  0.00  0.00    +0.015 C 
ATOM     11  C   UNL     1      33.484 -21.290 -19.106  0.00  0.00    +0.015 C 
ATOM     12  C   UNL     1      35.641 -22.035 -18.271  0.00  0.00    +0.000 C 
ATOM     13  C   UNL     1      36.304 -21.398 -19.327  0.00  0.00    +0.001 C 
ATOM     14  C   UNL     1      35.877 -19.953 -21.457  0.00  0.00    +0.017 C 
ATOM     15  C   UNL     1      34.702 -19.490 -22.002  0.00  0.00    +0.062 C 
ATOM     16  H   UNL     1      32.719 -19.727 -21.371  0.00  0.00    +0.152 HD
ENDBRANCH   1   8
BRANCH   2  17
ATOM     17  C   UNL     1      34.515 -24.291 -13.782  0.00  0.00    +0.114 C 
BRANCH  17  18
ATOM     18  N   UNL     1      35.249 -25.483 -14.121  0.00  0.00    -0.327 N 
ATOM     19  H   UNL     1      34.756 -26.230 -14.531  0.00  0.00    +0.147 HD
BRANCH  18  21
ATOM     20  N   UNL     1      38.739 -26.669 -14.487  0.00  0.00    -0.228 NA
ATOM     21  C   UNL     1      36.611 -25.639 -13.902  0.00  0.00    +0.077 C 
ATOM     22  C   UNL     1      37.411 -26.491 -14.668  0.00  0.00    +0.139 C 
ATOM     23  C   UNL     1      37.253 -24.929 -12.880  0.00  0.00    +0.019 C 
ATOM     24  C   UNL     1      38.618 -25.087 -12.663  0.00  0.00    +0.022 C 
ATOM     25  C   UNL     1      39.309 -25.960 -13.487  0.00  0.00    +0.100 C 
ATOM     26  N   UNL     1      36.783 -27.221 -15.708  0.00  0.00    -0.342 N 
ATOM     27  H   UNL     1      37.314 -27.832 -16.269  0.00  0.00    +0.144 HD
ATOM     28  H   UNL     1      35.818 -27.118 -15.870  0.00  0.00    +0.144 HD
ENDBRANCH  18  21
ENDBRANCH  17  18
ENDBRANCH   2  17
TORSDOF 4
ENDMDL
MODEL 7
REMARK VINA RESULT:     -11.1      5.141      9.089
REMARK  Name = 11507920
REMARK  4 active torsions:
REMARK  status: ('A' for Active; 'I' for Inactive)
REMARK    1  A    between atoms: C_1  and  C_8
REMARK    2  A    between atoms: C_2  and  C_17
REMARK    3  A    between atoms: C_17  and  N_18
REMARK    4  A    between atoms: N_18  and  C_21
REMARK                            x       y       z     vdW  Elec       q    Type
REMARK                         _______ _______ _______ _____ _____    ______ ____
ROOT
ATOM      1  C   UNL     1      34.637 -24.146 -14.214  0.00  0.00    -0.000 C 
ATOM      2  C   UNL     1      33.024 -23.274 -15.787  0.00  0.00    -0.003 C 
ATOM      3  C   UNL     1      34.316 -23.718 -15.502  0.00  0.00    -0.003 C 
ATOM      4  C   UNL     1      33.669 -24.130 -13.211  0.00  0.00    -0.000 C 
ATOM      5  C   UNL     1      32.055 -23.258 -14.784  0.00  0.00    -0.003 C 
ATOM      6  C   UNL     1      32.377 -23.685 -13.495  0.00  0.00    -0.000 C 
ENDROOT
BRANCH   1   8
ATOM      7  N   UNL     1      39.430 -24.886 -15.282  0.00  0.00    -0.312 N 
ATOM      8  C   UNL     1      35.978 -24.605 -13.918  0.00  0.00    +0.001 C 
ATOM      9  C   UNL     1      38.265 -24.907 -14.549  0.00  0.00    +0.048 C 
ATOM     10  C   UNL     1      38.562 -25.502 -13.321  0.00  0.00    +0.015 C 
ATOM     11  C   UNL     1      36.984 -24.450 -14.876  0.00  0.00    +0.015 C 
ATOM     12  C   UNL     1      36.245 -25.196 -12.684  0.00  0.00    +0.000 C 
ATOM     13  C   UNL     1      37.532 -25.649 -12.371  0.00  0.00    +0.001 C 
ATOM     14  C   UNL     1      39.945 -25.836 -13.344  0.00  0.00    +0.017 C 
ATOM     15  C   UNL     1      40.451 -25.445 -14.562  0.00  0.00    +0.062 C 
ATOM     16  H   UNL     1      39.517 -24.521 -16.192  0.00  0.00    +0.152 HD
ENDBRANCH   1   8
BRANCH   2  17
ATOM     17  C   UNL     1      32.679 -22.816 -17.164  0.00  0.00    +0.114 C 
BRANCH  17  18
ATOM     18  N   UNL     1      33.789 -22.935 -18.074  0.00  0.00    -0.327 N 
ATOM     19  H   UNL     1      34.289 -23.783 -18.088  0.00  0.00    +0.147 HD
BRANCH  18  21
ATOM     20  N   UNL     1      35.960 -20.533 -19.873  0.00  0.00    -0.228 NA
ATOM     21  C   UNL     1      34.195 -21.922 -18.933  0.00  0.00    +0.077 C 
ATOM     22  C   UNL     1      35.526 -21.513 -19.049  0.00  0.00    +0.139 C 
ATOM     23  C   UNL     1      33.263 -21.255 -19.738  0.00  0.00    +0.019 C 
ATOM     24  C   UNL     1      33.672 -20.242 -20.597  0.00  0.00    +0.022 C 
ATOM     25  C   UNL     1      35.020 -19.921 -20.628  0.00  0.00    +0.100 C 
ATOM     26  N   UNL     1      36.488 -22.172 -18.244  0.00  0.00    -0.342 N 
ATOM     27  H   UNL     1      37.436 -21.912 -18.298  0.00  0.00    +0.144 HD
ATOM     28  H   UNL     1      36.209 -22.890 -17.631  0.00  0.00    +0.144 HD
ENDBRANCH  18  21
ENDBRANCH  17  18
ENDBRANCH   2  17
TORSDOF 4
ENDMDL
MODEL 8
REMARK VINA RESULT:     -11.1      4.793     10.935
REMARK  Name = 11507920
REMARK  4 active torsions:
REMARK  status: ('A' for Active; 'I' for Inactive)
REMARK    1  A    between atoms: C_1  and  C_8
REMARK    2  A    between atoms: C_2  and  C_17
REMARK    3  A    between atoms: C_17  and  N_18
REMARK    4  A    between atoms: N_18  and  C_21
REMARK                            x       y       z     vdW  Elec       q    Type
REMARK                         _______ _______ _______ _____ _____    ______ ____
ROOT
ATOM      1  C   UNL     1      32.122  -9.779 -21.459  0.00  0.00    -0.000 C 
ATOM      2  C   UNL     1      32.137 -12.177 -21.169  0.00  0.00    -0.003 C 
ATOM      3  C   UNL     1      32.360 -11.055 -21.968  0.00  0.00    -0.003 C 
ATOM      4  C   UNL     1      31.662  -9.623 -20.152  0.00  0.00    -0.000 C 
ATOM      5  C   UNL     1      31.676 -12.022 -19.862  0.00  0.00    -0.003 C 
ATOM      6  C   UNL     1      31.438 -10.745 -19.353  0.00  0.00    -0.000 C 
ENDROOT
BRANCH   1   8
ATOM      7  N   UNL     1      34.923  -6.798 -24.276  0.00  0.00    -0.312 N 
ATOM      8  C   UNL     1      32.352  -8.615 -22.288  0.00  0.00    +0.001 C 
ATOM      9  C   UNL     1      33.802  -7.260 -23.624  0.00  0.00    +0.048 C 
ATOM     10  C   UNL     1      32.771  -6.356 -23.889  0.00  0.00    +0.015 C 
ATOM     11  C   UNL     1      33.622  -8.397 -22.828  0.00  0.00    +0.015 C 
ATOM     12  C   UNL     1      31.304  -7.730 -22.536  0.00  0.00    +0.000 C 
ATOM     13  C   UNL     1      31.498  -6.596 -23.334  0.00  0.00    +0.001 C 
ATOM     14  C   UNL     1      33.313  -5.338 -24.723  0.00  0.00    +0.017 C 
ATOM     15  C   UNL     1      34.637  -5.638 -24.942  0.00  0.00    +0.062 C 
ATOM     16  H   UNL     1      35.803  -7.240 -24.264  0.00  0.00    +0.152 HD
ENDBRANCH   1   8
BRANCH   2  17
ATOM     17  C   UNL     1      32.391 -13.543 -21.712  0.00  0.00    +0.114 C 
BRANCH  17  18
ATOM     18  N   UNL     1      32.870 -13.511 -23.070  0.00  0.00    -0.327 N 
ATOM     19  H   UNL     1      32.681 -12.710 -23.610  0.00  0.00    +0.147 HD
BRANCH  18  21
ATOM     20  N   UNL     1      34.199 -15.823 -25.640  0.00  0.00    -0.228 NA
ATOM     21  C   UNL     1      33.584 -14.545 -23.661  0.00  0.00    +0.077 C 
ATOM     22  C   UNL     1      33.520 -14.828 -25.028  0.00  0.00    +0.139 C 
ATOM     23  C   UNL     1      34.418 -15.365 -22.891  0.00  0.00    +0.019 C 
ATOM     24  C   UNL     1      35.132 -16.400 -23.486  0.00  0.00    +0.022 C 
ATOM     25  C   UNL     1      34.990 -16.585 -24.851  0.00  0.00    +0.100 C 
ATOM     26  N   UNL     1      32.681 -14.013 -25.828  0.00  0.00    -0.342 N 
ATOM     27  H   UNL     1      32.610 -14.180 -26.796  0.00  0.00    +0.144 HD
ATOM     28  H   UNL     1      32.171 -13.278 -25.418  0.00  0.00    +0.144 HD
ENDBRANCH  18  21
ENDBRANCH  17  18
ENDBRANCH   2  17
TORSDOF 4
ENDMDL
MODEL 9
REMARK VINA RESULT:     -11.0      1.219      1.720
REMARK  Name = 11507920
REMARK  4 active torsions:
REMARK  status: ('A' for Active; 'I' for Inactive)
REMARK    1  A    between atoms: C_1  and  C_8
REMARK    2  A    between atoms: C_2  and  C_17
REMARK    3  A    between atoms: C_17  and  N_18
REMARK    4  A    between atoms: N_18  and  C_21
REMARK                            x       y       z     vdW  Elec       q    Type
REMARK                         _______ _______ _______ _____ _____    ______ ____
ROOT
ATOM      1  C   UNL     1      34.940 -18.355 -22.273  0.00  0.00    -0.000 C 
ATOM      2  C   UNL     1      34.765 -16.021 -22.869  0.00  0.00    -0.003 C 
ATOM      3  C   UNL     1      34.834 -17.017 -21.895  0.00  0.00    -0.003 C 
ATOM      4  C   UNL     1      34.975 -18.699 -23.624  0.00  0.00    -0.000 C 
ATOM      5  C   UNL     1      34.800 -16.363 -24.221  0.00  0.00    -0.003 C 
ATOM      6  C   UNL     1      34.904 -17.703 -24.598  0.00  0.00    -0.000 C 
ENDROOT
BRANCH   1   8
ATOM      7  N   UNL     1      32.969 -21.692 -19.167  0.00  0.00    -0.312 N 
ATOM      8  C   UNL     1      35.011 -19.389 -21.262  0.00  0.00    +0.001 C 
ATOM      9  C   UNL     1      33.943 -20.961 -19.809  0.00  0.00    +0.048 C 
ATOM     10  C   UNL     1      35.174 -21.387 -19.307  0.00  0.00    +0.015 C 
ATOM     11  C   UNL     1      33.830 -19.965 -20.785  0.00  0.00    +0.015 C 
ATOM     12  C   UNL     1      36.254 -19.794 -20.779  0.00  0.00    +0.000 C 
ATOM     13  C   UNL     1      36.352 -20.791 -19.802  0.00  0.00    +0.001 C 
ATOM     14  C   UNL     1      34.904 -22.398 -18.343  0.00  0.00    +0.017 C 
ATOM     15  C   UNL     1      33.540 -22.562 -18.280  0.00  0.00    +0.062 C 
ATOM     16  H   UNL     1      32.001 -21.601 -19.324  0.00  0.00    +0.152 HD
ENDBRANCH   1   8
BRANCH   2  17
ATOM     17  C   UNL     1      34.652 -14.589 -22.466  0.00  0.00    +0.114 C 
BRANCH  17  18
ATOM     18  N   UNL     1      33.336 -14.056 -22.706  0.00  0.00    -0.327 N 
ATOM     19  H   UNL     1      32.835 -14.389 -23.486  0.00  0.00    +0.147 HD
BRANCH  18  21
ATOM     20  N   UNL     1      31.694 -12.461 -19.794  0.00  0.00    -0.228 NA
ATOM     21  C   UNL     1      32.733 -13.098 -21.903  0.00  0.00    +0.077 C 
ATOM     22  C   UNL     1      32.284 -13.366 -20.607  0.00  0.00    +0.139 C 
ATOM     23  C   UNL     1      32.547 -11.791 -22.371  0.00  0.00    +0.019 C 
ATOM     24  C   UNL     1      31.943 -10.833 -21.564  0.00  0.00    +0.022 C 
ATOM     25  C   UNL     1      31.538 -11.215 -20.295  0.00  0.00    +0.100 C 
ATOM     26  N   UNL     1      32.459 -14.682 -20.112  0.00  0.00    -0.342 N 
ATOM     27  H   UNL     1      32.156 -14.910 -19.203  0.00  0.00    +0.144 HD
ATOM     28  H   UNL     1      32.885 -15.369 -20.674  0.00  0.00    +0.144 HD
ENDBRANCH  18  21
ENDBRANCH  17  18
ENDBRANCH   2  17
TORSDOF 4
ENDMDL
