MODEL 1
REMARK VINA RESULT:     -12.7      0.000      0.000
REMARK  Name = 25101874
REMARK  5 active torsions:
REMARK  status: ('A' for Active; 'I' for Inactive)
REMARK    1  A    between atoms: N_1  and  C_22
REMARK    2  A    between atoms: C_2  and  N_8
REMARK    3  A    between atoms: N_8  and  C_11
REMARK    4  A    between atoms: C_11  and  C_14
REMARK    5  A    between atoms: C_22  and  C_28
REMARK                            x       y       z     vdW  Elec       q    Type
REMARK                         _______ _______ _______ _____ _____    ______ ____
ROOT
ATOM      1  N   UNL     1      34.369 -22.724 -18.778  0.00  0.00    +0.388 N 
ATOM      2  C   UNL     1      34.590 -20.199 -20.240  0.00  0.00    -0.066 C 
ATOM      3  C   UNL     1      35.653 -22.013 -18.846  0.00  0.00    -0.079 C 
ATOM      4  C   UNL     1      33.238 -21.786 -18.817  0.00  0.00    -0.079 C 
ATOM      5  C   UNL     1      35.758 -21.182 -20.127  0.00  0.00    -0.044 C 
ATOM      6  C   UNL     1      33.262 -20.948 -20.098  0.00  0.00    -0.044 C 
ATOM      7  H   UNL     1      34.303 -23.330 -19.595  0.00  0.00    -0.080 HD
ENDROOT
BRANCH   2   8
ATOM      8  N   UNL     1      34.652 -19.483 -21.512  0.00  0.00    +0.389 N 
ATOM      9  H   UNL     1      33.735 -19.087 -21.718  0.00  0.00    -0.084 HD
ATOM     10  H   UNL     1      34.929 -20.140 -22.243  0.00  0.00    -0.084 HD
BRANCH   8  11
ATOM     11  C   UNL     1      35.634 -18.410 -21.454  0.00  0.00    -0.034 C 
BRANCH  11  14
ATOM     12  O   UNL     1      33.560 -13.508 -23.172  0.00  0.00    -0.474 OA
ATOM     13  N   UNL     1      34.767 -16.177 -21.040  0.00  0.00    -0.247 NA
ATOM     14  C   UNL     1      35.075 -17.110 -21.967  0.00  0.00    +0.037 C 
ATOM     15  C   UNL     1      34.906 -16.936 -23.332  0.00  0.00    +0.011 C 
ATOM     16  C   UNL     1      34.380 -15.724 -23.784  0.00  0.00    +0.015 C 
ATOM     17  C   UNL     1      34.177 -15.487 -25.253  0.00  0.00    +0.033 C 
ATOM     18  C   UNL     1      34.075 -14.732 -22.851  0.00  0.00    +0.154 C 
ATOM     19  C   UNL     1      33.249 -14.300 -25.471  0.00  0.00    +0.052 C 
ATOM     20  C   UNL     1      34.272 -15.008 -21.505  0.00  0.00    +0.135 C 
ATOM     21  C   UNL     1      33.670 -13.158 -24.558  0.00  0.00    +0.206 C 
ENDBRANCH  11  14
ENDBRANCH   8  11
ENDBRANCH   2   8
BRANCH   1  22
ATOM     22  C   UNL     1      34.306 -23.552 -17.573  0.00  0.00    -0.055 C 
BRANCH  22  28
ATOM     23  O   UNL     1      31.516 -22.832 -15.781  0.00  0.00    -0.273 OA
ATOM     24  O   UNL     1      38.099 -23.757 -13.855  0.00  0.00    -0.270 OA
ATOM     25  N   UNL     1      33.743 -23.198 -15.182  0.00  0.00    -0.261 N 
ATOM     26  N   UNL     1      35.886 -23.495 -14.502  0.00  0.00    -0.255 N 
ATOM     27  N   UNL     1      32.773 -24.255 -12.772  0.00  0.00    -0.262 NA
ATOM     28  C   UNL     1      34.548 -22.716 -16.322  0.00  0.00    +0.076 C 
ATOM     29  C   UNL     1      36.010 -22.846 -15.815  0.00  0.00    +0.113 C 
ATOM     30  C   UNL     1      34.566 -23.641 -14.199  0.00  0.00    +0.196 C 
ATOM     31  C   UNL     1      34.110 -24.147 -13.056  0.00  0.00    +0.092 C 
ATOM     32  C   UNL     1      32.383 -23.219 -15.014  0.00  0.00    +0.252 C 
ATOM     33  C   UNL     1      36.896 -23.875 -13.640  0.00  0.00    +0.251 C 
ATOM     34  C   UNL     1      35.092 -24.585 -12.089  0.00  0.00    +0.022 C 
ATOM     35  C   UNL     1      31.954 -23.819 -13.684  0.00  0.00    +0.210 C 
ATOM     36  C   UNL     1      36.409 -24.470 -12.342  0.00  0.00    +0.059 C 
ENDBRANCH  22  28
ENDBRANCH   1  22
TORSDOF 5
ENDMDL
MODEL 2
REMARK VINA RESULT:     -12.5      0.934      1.632
REMARK  Name = 25101874
REMARK  5 active torsions:
REMARK  status: ('A' for Active; 'I' for Inactive)
REMARK    1  A    between atoms: N_1  and  C_22
REMARK    2  A    between atoms: C_2  and  N_8
REMARK    3  A    between atoms: N_8  and  C_11
REMARK    4  A    between atoms: C_11  and  C_14
REMARK    5  A    between atoms: C_22  and  C_28
REMARK                            x       y       z     vdW  Elec       q    Type
REMARK                         _______ _______ _______ _____ _____    ______ ____
ROOT
ATOM      1  N   UNL     1      34.401 -22.655 -18.809  0.00  0.00    +0.388 N 
ATOM      2  C   UNL     1      34.753 -20.126 -20.238  0.00  0.00    -0.066 C 
ATOM      3  C   UNL     1      35.711 -21.990 -18.833  0.00  0.00    -0.079 C 
ATOM      4  C   UNL     1      33.306 -21.677 -18.871  0.00  0.00    -0.079 C 
ATOM      5  C   UNL     1      35.882 -21.152 -20.102  0.00  0.00    -0.044 C 
ATOM      6  C   UNL     1      33.396 -20.828 -20.142  0.00  0.00    -0.044 C 
ATOM      7  H   UNL     1      34.337 -23.251 -19.634  0.00  0.00    -0.080 HD
ENDROOT
BRANCH   2   8
ATOM      8  N   UNL     1      34.878 -19.401 -21.500  0.00  0.00    +0.389 N 
ATOM      9  H   UNL     1      33.959 -19.062 -21.784  0.00  0.00    -0.084 HD
ATOM     10  H   UNL     1      35.256 -20.035 -22.205  0.00  0.00    -0.084 HD
BRANCH   8  11
ATOM     11  C   UNL     1      35.782 -18.270 -21.359  0.00  0.00    -0.034 C 
BRANCH  11  14
ATOM     12  O   UNL     1      33.352 -13.439 -22.791  0.00  0.00    -0.474 OA
ATOM     13  N   UNL     1      35.381 -16.438 -22.908  0.00  0.00    -0.247 NA
ATOM     14  C   UNL     1      35.106 -16.966 -21.695  0.00  0.00    +0.037 C 
ATOM     15  C   UNL     1      34.257 -16.384 -20.767  0.00  0.00    +0.011 C 
ATOM     16  C   UNL     1      33.647 -15.173 -21.098  0.00  0.00    +0.015 C 
ATOM     17  C   UNL     1      32.720 -14.501 -20.126  0.00  0.00    +0.033 C 
ATOM     18  C   UNL     1      33.893 -14.615 -22.354  0.00  0.00    +0.154 C 
ATOM     19  C   UNL     1      32.502 -13.048 -20.525  0.00  0.00    +0.052 C 
ATOM     20  C   UNL     1      34.768 -15.272 -23.208  0.00  0.00    +0.135 C 
ATOM     21  C   UNL     1      32.238 -12.971 -22.022  0.00  0.00    +0.206 C 
ENDBRANCH  11  14
ENDBRANCH   8  11
ENDBRANCH   2   8
BRANCH   1  22
ATOM     22  C   UNL     1      34.273 -23.492 -17.616  0.00  0.00    -0.055 C 
BRANCH  22  28
ATOM     23  O   UNL     1      31.465 -22.841 -15.825  0.00  0.00    -0.273 OA
ATOM     24  O   UNL     1      38.051 -23.709 -13.883  0.00  0.00    -0.270 OA
ATOM     25  N   UNL     1      33.694 -23.187 -15.221  0.00  0.00    -0.261 N 
ATOM     26  N   UNL     1      35.838 -23.467 -14.536  0.00  0.00    -0.255 N 
ATOM     27  N   UNL     1      32.728 -24.299 -12.835  0.00  0.00    -0.262 NA
ATOM     28  C   UNL     1      34.497 -22.675 -16.349  0.00  0.00    +0.076 C 
ATOM     29  C   UNL     1      35.959 -22.793 -15.837  0.00  0.00    +0.113 C 
ATOM     30  C   UNL     1      34.519 -23.636 -14.242  0.00  0.00    +0.196 C 
ATOM     31  C   UNL     1      34.064 -24.167 -13.111  0.00  0.00    +0.092 C 
ATOM     32  C   UNL     1      32.333 -23.230 -15.060  0.00  0.00    +0.252 C 
ATOM     33  C   UNL     1      36.849 -23.847 -13.676  0.00  0.00    +0.251 C 
ATOM     34  C   UNL     1      35.047 -24.609 -12.146  0.00  0.00    +0.022 C 
ATOM     35  C   UNL     1      31.907 -23.858 -13.743  0.00  0.00    +0.210 C 
ATOM     36  C   UNL     1      36.364 -24.472 -12.391  0.00  0.00    +0.059 C 
ENDBRANCH  22  28
ENDBRANCH   1  22
TORSDOF 5
ENDMDL
MODEL 3
REMARK VINA RESULT:     -12.4      0.903      1.301
REMARK  Name = 25101874
REMARK  5 active torsions:
REMARK  status: ('A' for Active; 'I' for Inactive)
REMARK    1  A    between atoms: N_1  and  C_22
REMARK    2  A    between atoms: C_2  and  N_8
REMARK    3  A    between atoms: N_8  and  C_11
REMARK    4  A    between atoms: C_11  and  C_14
REMARK    5  A    between atoms: C_22  and  C_28
REMARK                            x       y       z     vdW  Elec       q    Type
REMARK                         _______ _______ _______ _____ _____    ______ ____
ROOT
ATOM      1  N   UNL     1      34.851 -21.794 -18.310  0.00  0.00    +0.388 N 
ATOM      2  C   UNL     1      34.771 -20.606 -20.983  0.00  0.00    -0.066 C 
ATOM      3  C   UNL     1      33.610 -21.815 -19.097  0.00  0.00    -0.079 C 
ATOM      4  C   UNL     1      36.034 -21.840 -19.180  0.00  0.00    -0.079 C 
ATOM      5  C   UNL     1      33.548 -20.628 -20.063  0.00  0.00    -0.044 C 
ATOM      6  C   UNL     1      36.054 -20.654 -20.148  0.00  0.00    -0.044 C 
ATOM      7  H   UNL     1      34.877 -20.917 -17.791  0.00  0.00    -0.080 HD
ENDROOT
BRANCH   2   8
ATOM      8  N   UNL     1      34.744 -19.417 -21.831  0.00  0.00    +0.389 N 
ATOM      9  H   UNL     1      33.774 -19.164 -22.023  0.00  0.00    -0.084 HD
ATOM     10  H   UNL     1      35.235 -19.624 -22.701  0.00  0.00    -0.084 HD
BRANCH   8  11
ATOM     11  C   UNL     1      35.407 -18.299 -21.176  0.00  0.00    -0.034 C 
BRANCH  11  14
ATOM     12  O   UNL     1      33.711 -13.300 -23.025  0.00  0.00    -0.474 OA
ATOM     13  N   UNL     1      34.723 -15.993 -20.823  0.00  0.00    -0.247 NA
ATOM     14  C   UNL     1      34.948 -16.974 -21.724  0.00  0.00    +0.037 C 
ATOM     15  C   UNL     1      34.781 -16.827 -23.092  0.00  0.00    +0.011 C 
ATOM     16  C   UNL     1      34.348 -15.591 -23.577  0.00  0.00    +0.015 C 
ATOM     17  C   UNL     1      34.151 -15.381 -25.050  0.00  0.00    +0.033 C 
ATOM     18  C   UNL     1      34.131 -14.551 -22.671  0.00  0.00    +0.154 C 
ATOM     19  C   UNL     1      33.318 -14.131 -25.297  0.00  0.00    +0.052 C 
ATOM     20  C   UNL     1      34.317 -14.803 -21.319  0.00  0.00    +0.135 C 
ATOM     21  C   UNL     1      33.836 -13.000 -24.420  0.00  0.00    +0.206 C 
ENDBRANCH  11  14
ENDBRANCH   8  11
ENDBRANCH   2   8
BRANCH   1  22
ATOM     22  C   UNL     1      34.872 -22.904 -17.358  0.00  0.00    -0.055 C 
BRANCH  22  28
ATOM     23  O   UNL     1      32.548 -22.585 -14.905  0.00  0.00    -0.273 OA
ATOM     24  O   UNL     1      39.252 -24.294 -14.687  0.00  0.00    -0.270 OA
ATOM     25  N   UNL     1      34.801 -23.200 -14.895  0.00  0.00    -0.261 N 
ATOM     26  N   UNL     1      36.993 -23.767 -14.773  0.00  0.00    -0.255 N 
ATOM     27  N   UNL     1      34.198 -24.837 -12.699  0.00  0.00    -0.262 NA
ATOM     28  C   UNL     1      35.423 -22.458 -16.009  0.00  0.00    +0.076 C 
ATOM     29  C   UNL     1      36.934 -22.786 -15.866  0.00  0.00    +0.113 C 
ATOM     30  C   UNL     1      35.746 -23.933 -14.253  0.00  0.00    +0.196 C 
ATOM     31  C   UNL     1      35.463 -24.713 -13.214  0.00  0.00    +0.092 C 
ATOM     32  C   UNL     1      33.500 -23.207 -14.461  0.00  0.00    +0.252 C 
ATOM     33  C   UNL     1      38.104 -24.414 -14.267  0.00  0.00    +0.251 C 
ATOM     34  C   UNL     1      36.559 -25.444 -12.618  0.00  0.00    +0.022 C 
ATOM     35  C   UNL     1      33.270 -24.130 -13.276  0.00  0.00    +0.210 C 
ATOM     36  C   UNL     1      37.811 -25.322 -13.099  0.00  0.00    +0.059 C 
ENDBRANCH  22  28
ENDBRANCH   1  22
TORSDOF 5
ENDMDL
MODEL 4
REMARK VINA RESULT:     -12.3      1.092      2.918
REMARK  Name = 25101874
REMARK  5 active torsions:
REMARK  status: ('A' for Active; 'I' for Inactive)
REMARK    1  A    between atoms: N_1  and  C_22
REMARK    2  A    between atoms: C_2  and  N_8
REMARK    3  A    between atoms: N_8  and  C_11
REMARK    4  A    between atoms: C_11  and  C_14
REMARK    5  A    between atoms: C_22  and  C_28
REMARK                            x       y       z     vdW  Elec       q    Type
REMARK                         _______ _______ _______ _____ _____    ______ ____
ROOT
ATOM      1  N   UNL     1      35.036 -22.061 -18.534  0.00  0.00    +0.388 N 
ATOM      2  C   UNL     1      34.919 -20.078 -20.683  0.00  0.00    -0.066 C 
ATOM      3  C   UNL     1      36.231 -21.289 -18.901  0.00  0.00    -0.079 C 
ATOM      4  C   UNL     1      33.809 -21.284 -18.764  0.00  0.00    -0.079 C 
ATOM      5  C   UNL     1      36.190 -20.873 -20.373  0.00  0.00    -0.044 C 
ATOM      6  C   UNL     1      33.687 -20.868 -20.232  0.00  0.00    -0.044 C 
ATOM      7  H   UNL     1      35.001 -22.886 -19.131  0.00  0.00    -0.080 HD
ENDROOT
BRANCH   2   8
ATOM      8  N   UNL     1      34.849 -19.772 -22.110  0.00  0.00    +0.389 N 
ATOM      9  H   UNL     1      33.928 -19.392 -22.326  0.00  0.00    -0.084 HD
ATOM     10  H   UNL     1      35.011 -20.631 -22.636  0.00  0.00    -0.084 HD
BRANCH   8  11
ATOM     11  C   UNL     1      35.866 -18.799 -22.480  0.00  0.00    -0.034 C 
BRANCH  11  14
ATOM     12  O   UNL     1      33.702 -13.690 -23.185  0.00  0.00    -0.474 OA
ATOM     13  N   UNL     1      35.102 -16.651 -21.636  0.00  0.00    -0.247 NA
ATOM     14  C   UNL     1      35.276 -17.435 -22.723  0.00  0.00    +0.037 C 
ATOM     15  C   UNL     1      34.947 -17.058 -24.015  0.00  0.00    +0.011 C 
ATOM     16  C   UNL     1      34.396 -15.791 -24.215  0.00  0.00    +0.015 C 
ATOM     17  C   UNL     1      34.021 -15.337 -25.596  0.00  0.00    +0.033 C 
ATOM     18  C   UNL     1      34.226 -14.949 -23.114  0.00  0.00    +0.154 C 
ATOM     19  C   UNL     1      33.098 -14.127 -25.520  0.00  0.00    +0.052 C 
ATOM     20  C   UNL     1      34.578 -15.425 -21.859  0.00  0.00    +0.135 C 
ATOM     21  C   UNL     1      33.650 -13.137 -24.505  0.00  0.00    +0.206 C 
ENDBRANCH  11  14
ENDBRANCH   8  11
ENDBRANCH   2   8
BRANCH   1  22
ATOM     22  C   UNL     1      35.114 -22.494 -17.139  0.00  0.00    -0.055 C 
BRANCH  22  28
ATOM     23  O   UNL     1      36.098 -24.682 -14.739  0.00  0.00    -0.273 OA
ATOM     24  O   UNL     1      29.816 -22.550 -16.712  0.00  0.00    -0.270 OA
ATOM     25  N   UNL     1      34.007 -23.894 -15.415  0.00  0.00    -0.261 N 
ATOM     26  N   UNL     1      31.928 -23.224 -16.024  0.00  0.00    -0.255 N 
ATOM     27  N   UNL     1      33.187 -24.204 -12.750  0.00  0.00    -0.262 NA
ATOM     28  C   UNL     1      34.130 -23.623 -16.861  0.00  0.00    +0.076 C 
ATOM     29  C   UNL     1      32.684 -23.246 -17.284  0.00  0.00    +0.113 C 
ATOM     30  C   UNL     1      32.740 -23.628 -15.008  0.00  0.00    +0.196 C 
ATOM     31  C   UNL     1      32.348 -23.770 -13.745  0.00  0.00    +0.092 C 
ATOM     32  C   UNL     1      34.938 -24.367 -14.527  0.00  0.00    +0.252 C 
ATOM     33  C   UNL     1      30.596 -22.908 -15.834  0.00  0.00    +0.251 C 
ATOM     34  C   UNL     1      30.971 -23.452 -13.440  0.00  0.00    +0.022 C 
ATOM     35  C   UNL     1      34.405 -24.490 -13.109  0.00  0.00    +0.210 C 
ATOM     36  C   UNL     1      30.128 -23.040 -14.406  0.00  0.00    +0.059 C 
ENDBRANCH  22  28
ENDBRANCH   1  22
TORSDOF 5
ENDMDL
MODEL 5
REMARK VINA RESULT:     -12.0      2.169     11.154
REMARK  Name = 25101874
REMARK  5 active torsions:
REMARK  status: ('A' for Active; 'I' for Inactive)
REMARK    1  A    between atoms: N_1  and  C_22
REMARK    2  A    between atoms: C_2  and  N_8
REMARK    3  A    between atoms: N_8  and  C_11
REMARK    4  A    between atoms: C_11  and  C_14
REMARK    5  A    between atoms: C_22  and  C_28
REMARK                            x       y       z     vdW  Elec       q    Type
REMARK                         _______ _______ _______ _____ _____    ______ ____
ROOT
ATOM      1  N   UNL     1      35.877 -18.127 -21.694  0.00  0.00    +0.388 N 
ATOM      2  C   UNL     1      36.136 -20.651 -20.237  0.00  0.00    -0.066 C 
ATOM      3  C   UNL     1      37.205 -18.687 -21.406  0.00  0.00    -0.079 C 
ATOM      4  C   UNL     1      34.876 -19.190 -21.863  0.00  0.00    -0.079 C 
ATOM      5  C   UNL     1      37.181 -19.537 -20.133  0.00  0.00    -0.044 C 
ATOM      6  C   UNL     1      34.774 -20.056 -20.605  0.00  0.00    -0.044 C 
ATOM      7  H   UNL     1      35.598 -17.557 -20.897  0.00  0.00    -0.080 HD
ENDROOT
BRANCH   2   8
ATOM      8  N   UNL     1      36.060 -21.391 -18.979  0.00  0.00    +0.389 N 
ATOM      9  H   UNL     1      35.868 -20.739 -18.218  0.00  0.00    -0.084 HD
ATOM     10  H   UNL     1      36.950 -21.865 -18.825  0.00  0.00    -0.084 HD
BRANCH   8  11
ATOM     11  C   UNL     1      35.003 -22.390 -19.031  0.00  0.00    -0.034 C 
BRANCH  11  14
ATOM     12  O   UNL     1      33.071 -23.436 -13.886  0.00  0.00    -0.474 OA
ATOM     13  N   UNL     1      35.321 -22.824 -16.659  0.00  0.00    -0.247 NA
ATOM     14  C   UNL     1      34.433 -22.675 -17.666  0.00  0.00    +0.037 C 
ATOM     15  C   UNL     1      33.059 -22.769 -17.512  0.00  0.00    +0.011 C 
ATOM     16  C   UNL     1      32.553 -23.040 -16.239  0.00  0.00    +0.015 C 
ATOM     17  C   UNL     1      31.072 -23.153 -16.020  0.00  0.00    +0.033 C 
ATOM     18  C   UNL     1      33.446 -23.175 -15.174  0.00  0.00    +0.154 C 
ATOM     19  C   UNL     1      30.787 -23.830 -14.686  0.00  0.00    +0.052 C 
ATOM     20  C   UNL     1      34.805 -23.073 -15.435  0.00  0.00    +0.135 C 
ATOM     21  C   UNL     1      31.681 -23.223 -13.614  0.00  0.00    +0.206 C 
ENDBRANCH  11  14
ENDBRANCH   8  11
ENDBRANCH   2   8
BRANCH   1  22
ATOM     22  C   UNL     1      35.928 -17.278 -22.884  0.00  0.00    -0.055 C 
BRANCH  22  28
ATOM     23  O   UNL     1      34.104 -15.924 -20.363  0.00  0.00    -0.273 OA
ATOM     24  O   UNL     1      34.151 -14.689 -27.173  0.00  0.00    -0.270 OA
ATOM     25  N   UNL     1      34.194 -15.516 -22.660  0.00  0.00    -0.261 N 
ATOM     26  N   UNL     1      34.174 -15.074 -24.884  0.00  0.00    -0.255 N 
ATOM     27  N   UNL     1      33.556 -12.850 -22.069  0.00  0.00    -0.262 NA
ATOM     28  C   UNL     1      34.533 -16.811 -23.283  0.00  0.00    +0.076 C 
ATOM     29  C   UNL     1      34.436 -16.519 -24.805  0.00  0.00    +0.113 C 
ATOM     30  C   UNL     1      34.024 -14.578 -23.625  0.00  0.00    +0.196 C 
ATOM     31  C   UNL     1      33.726 -13.311 -23.349  0.00  0.00    +0.092 C 
ATOM     32  C   UNL     1      34.021 -15.195 -21.339  0.00  0.00    +0.252 C 
ATOM     33  C   UNL     1      34.038 -14.294 -26.016  0.00  0.00    +0.251 C 
ATOM     34  C   UNL     1      33.573 -12.408 -24.468  0.00  0.00    +0.022 C 
ATOM     35  C   UNL     1      33.689 -13.728 -21.118  0.00  0.00    +0.210 C 
ATOM     36  C   UNL     1      33.718 -12.847 -25.733  0.00  0.00    +0.059 C 
ENDBRANCH  22  28
ENDBRANCH   1  22
TORSDOF 5
ENDMDL
MODEL 6
REMARK VINA RESULT:     -11.8      1.868     11.149
REMARK  Name = 25101874
REMARK  5 active torsions:
REMARK  status: ('A' for Active; 'I' for Inactive)
REMARK    1  A    between atoms: N_1  and  C_22
REMARK    2  A    between atoms: C_2  and  N_8
REMARK    3  A    between atoms: N_8  and  C_11
REMARK    4  A    between atoms: C_11  and  C_14
REMARK    5  A    between atoms: C_22  and  C_28
REMARK                            x       y       z     vdW  Elec       q    Type
REMARK                         _______ _______ _______ _____ _____    ______ ____
ROOT
ATOM      1  N   UNL     1      34.863 -19.240 -21.272  0.00  0.00    +0.388 N 
ATOM      2  C   UNL     1      35.198 -21.589 -19.560  0.00  0.00    -0.066 C 
ATOM      3  C   UNL     1      36.155 -19.937 -21.208  0.00  0.00    -0.079 C 
ATOM      4  C   UNL     1      33.746 -20.171 -21.059  0.00  0.00    -0.079 C 
ATOM      5  C   UNL     1      36.348 -20.622 -19.852  0.00  0.00    -0.044 C 
ATOM      6  C   UNL     1      33.857 -20.864 -19.698  0.00  0.00    -0.044 C 
ATOM      7  H   UNL     1      34.842 -18.549 -20.524  0.00  0.00    -0.080 HD
ENDROOT
BRANCH   2   8
ATOM      8  N   UNL     1      35.347 -22.161 -18.224  0.00  0.00    +0.389 N 
ATOM      9  H   UNL     1      35.630 -21.427 -17.575  0.00  0.00    -0.084 HD
ATOM     10  H   UNL     1      36.054 -22.896 -18.259  0.00  0.00    -0.084 HD
BRANCH   8  11
ATOM     11  C   UNL     1      34.093 -22.743 -17.768  0.00  0.00    -0.034 C 
BRANCH  11  14
ATOM     12  O   UNL     1      34.139 -24.320 -12.401  0.00  0.00    -0.474 OA
ATOM     13  N   UNL     1      33.005 -23.581 -15.761  0.00  0.00    -0.247 NA
ATOM     14  C   UNL     1      34.158 -23.152 -16.320  0.00  0.00    +0.037 C 
ATOM     15  C   UNL     1      35.366 -23.070 -15.645  0.00  0.00    +0.011 C 
ATOM     16  C   UNL     1      35.400 -23.448 -14.301  0.00  0.00    +0.015 C 
ATOM     17  C   UNL     1      36.683 -23.376 -13.526  0.00  0.00    +0.033 C 
ATOM     18  C   UNL     1      34.229 -23.919 -13.704  0.00  0.00    +0.154 C 
ATOM     19  C   UNL     1      36.400 -23.448 -12.031  0.00  0.00    +0.052 C 
ATOM     20  C   UNL     1      33.068 -23.953 -14.464  0.00  0.00    +0.135 C 
ATOM     21  C   UNL     1      35.399 -24.561 -11.762  0.00  0.00    +0.206 C 
ENDBRANCH  11  14
ENDBRANCH   8  11
ENDBRANCH   2   8
BRANCH   1  22
ATOM     22  C   UNL     1      34.717 -18.550 -22.553  0.00  0.00    -0.055 C 
BRANCH  22  28
ATOM     23  O   UNL     1      35.325 -17.093 -25.558  0.00  0.00    -0.273 OA
ATOM     24  O   UNL     1      33.465 -14.419 -19.451  0.00  0.00    -0.270 OA
ATOM     25  N   UNL     1      34.654 -16.250 -23.486  0.00  0.00    -0.261 N 
ATOM     26  N   UNL     1      34.042 -15.328 -21.507  0.00  0.00    -0.255 N 
ATOM     27  N   UNL     1      33.244 -14.282 -24.903  0.00  0.00    -0.262 NA
ATOM     28  C   UNL     1      35.272 -17.132 -22.477  0.00  0.00    +0.076 C 
ATOM     29  C   UNL     1      34.918 -16.446 -21.129  0.00  0.00    +0.113 C 
ATOM     30  C   UNL     1      33.959 -15.265 -22.865  0.00  0.00    +0.196 C 
ATOM     31  C   UNL     1      33.286 -14.332 -23.533  0.00  0.00    +0.092 C 
ATOM     32  C   UNL     1      34.722 -16.299 -24.855  0.00  0.00    +0.252 C 
ATOM     33  C   UNL     1      33.416 -14.417 -20.678  0.00  0.00    +0.251 C 
ATOM     34  C   UNL     1      32.585 -13.336 -22.753  0.00  0.00    +0.022 C 
ATOM     35  C   UNL     1      33.919 -15.200 -25.532  0.00  0.00    +0.210 C 
ATOM     36  C   UNL     1      32.628 -13.358 -21.408  0.00  0.00    +0.059 C 
ENDBRANCH  22  28
ENDBRANCH   1  22
TORSDOF 5
ENDMDL
MODEL 7
REMARK VINA RESULT:     -11.7      3.494     11.827
REMARK  Name = 25101874
REMARK  5 active torsions:
REMARK  status: ('A' for Active; 'I' for Inactive)
REMARK    1  A    between atoms: N_1  and  C_22
REMARK    2  A    between atoms: C_2  and  N_8
REMARK    3  A    between atoms: N_8  and  C_11
REMARK    4  A    between atoms: C_11  and  C_14
REMARK    5  A    between atoms: C_22  and  C_28
REMARK                            x       y       z     vdW  Elec       q    Type
REMARK                         _______ _______ _______ _____ _____    ______ ____
ROOT
ATOM      1  N   UNL     1      34.274 -14.354 -22.688  0.00  0.00    +0.388 N 
ATOM      2  C   UNL     1      35.141 -17.148 -22.680  0.00  0.00    -0.066 C 
ATOM      3  C   UNL     1      34.837 -14.955 -21.471  0.00  0.00    -0.079 C 
ATOM      4  C   UNL     1      34.855 -14.956 -23.897  0.00  0.00    -0.079 C 
ATOM      5  C   UNL     1      34.580 -16.464 -21.431  0.00  0.00    -0.044 C 
ATOM      6  C   UNL     1      34.599 -16.465 -23.938  0.00  0.00    -0.044 C 
ATOM      7  H   UNL     1      33.272 -14.540 -22.695  0.00  0.00    -0.080 HD
ENDROOT
BRANCH   2   8
ATOM      8  N   UNL     1      34.805 -18.570 -22.672  0.00  0.00    +0.389 N 
ATOM      9  H   UNL     1      34.888 -18.939 -23.620  0.00  0.00    -0.084 HD
ATOM     10  H   UNL     1      33.849 -18.677 -22.332  0.00  0.00    -0.084 HD
BRANCH   8  11
ATOM     11  C   UNL     1      35.699 -19.308 -21.792  0.00  0.00    -0.034 C 
BRANCH  11  14
ATOM     12  O   UNL     1      32.712 -22.332 -18.156  0.00  0.00    -0.474 OA
ATOM     13  N   UNL     1      33.593 -20.100 -20.871  0.00  0.00    -0.247 NA
ATOM     14  C   UNL     1      34.941 -20.136 -20.788  0.00  0.00    +0.037 C 
ATOM     15  C   UNL     1      35.644 -20.875 -19.850  0.00  0.00    +0.011 C 
ATOM     16  C   UNL     1      34.920 -21.630 -18.925  0.00  0.00    +0.015 C 
ATOM     17  C   UNL     1      35.634 -22.446 -17.888  0.00  0.00    +0.033 C 
ATOM     18  C   UNL     1      33.525 -21.632 -19.001  0.00  0.00    +0.154 C 
ATOM     19  C   UNL     1      34.672 -22.846 -16.777  0.00  0.00    +0.052 C 
ATOM     20  C   UNL     1      32.916 -20.850 -19.972  0.00  0.00    +0.135 C 
ATOM     21  C   UNL     1      33.374 -23.348 -17.393  0.00  0.00    +0.206 C 
ENDBRANCH  11  14
ENDBRANCH   8  11
ENDBRANCH   2   8
BRANCH   1  22
ATOM     22  C   UNL     1      34.483 -12.906 -22.687  0.00  0.00    -0.055 C 
BRANCH  22  28
ATOM     23  O   UNL     1      31.867 -13.742 -20.692  0.00  0.00    -0.273 OA
ATOM     24  O   UNL     1      33.502  -7.820 -23.880  0.00  0.00    -0.270 OA
ATOM     25  N   UNL     1      32.491 -11.757 -21.752  0.00  0.00    -0.261 N 
ATOM     26  N   UNL     1      32.985  -9.795 -22.776  0.00  0.00    -0.255 N 
ATOM     27  N   UNL     1      31.299 -10.402 -19.605  0.00  0.00    -0.262 NA
ATOM     28  C   UNL     1      33.185 -12.166 -22.989  0.00  0.00    +0.076 C 
ATOM     29  C   UNL     1      33.445 -10.822 -23.721  0.00  0.00    +0.113 C 
ATOM     30  C   UNL     1      32.432 -10.403 -21.690  0.00  0.00    +0.196 C 
ATOM     31  C   UNL     1      31.871  -9.757 -20.672  0.00  0.00    +0.092 C 
ATOM     32  C   UNL     1      31.927 -12.525 -20.767  0.00  0.00    +0.252 C 
ATOM     33  C   UNL     1      33.027  -8.422 -22.921  0.00  0.00    +0.251 C 
ATOM     34  C   UNL     1      31.874  -8.311 -20.724  0.00  0.00    +0.022 C 
ATOM     35  C   UNL     1      31.318 -11.703 -19.643  0.00  0.00    +0.210 C 
ATOM     36  C   UNL     1      32.415  -7.660 -21.771  0.00  0.00    +0.059 C 
ENDBRANCH  22  28
ENDBRANCH   1  22
TORSDOF 5
ENDMDL
MODEL 8
REMARK VINA RESULT:     -11.6      2.014     10.986
REMARK  Name = 25101874
REMARK  5 active torsions:
REMARK  status: ('A' for Active; 'I' for Inactive)
REMARK    1  A    between atoms: N_1  and  C_22
REMARK    2  A    between atoms: C_2  and  N_8
REMARK    3  A    between atoms: N_8  and  C_11
REMARK    4  A    between atoms: C_11  and  C_14
REMARK    5  A    between atoms: C_22  and  C_28
REMARK                            x       y       z     vdW  Elec       q    Type
REMARK                         _______ _______ _______ _____ _____    ______ ____
ROOT
ATOM      1  N   UNL     1      34.982 -18.914 -21.546  0.00  0.00    +0.388 N 
ATOM      2  C   UNL     1      35.257 -21.255 -19.812  0.00  0.00    -0.066 C 
ATOM      3  C   UNL     1      36.298 -19.533 -21.334  0.00  0.00    -0.079 C 
ATOM      4  C   UNL     1      33.905 -19.912 -21.467  0.00  0.00    -0.079 C 
ATOM      5  C   UNL     1      36.372 -20.218 -19.967  0.00  0.00    -0.044 C 
ATOM      6  C   UNL     1      33.900 -20.610 -20.104  0.00  0.00    -0.044 C 
ATOM      7  H   UNL     1      34.833 -18.232 -20.803  0.00  0.00    -0.080 HD
ENDROOT
BRANCH   2   8
ATOM      8  N   UNL     1      35.284 -21.830 -18.470  0.00  0.00    +0.389 N 
ATOM      9  H   UNL     1      35.002 -21.119 -17.795  0.00  0.00    -0.084 HD
ATOM     10  H   UNL     1      36.232 -22.151 -18.271  0.00  0.00    -0.084 HD
BRANCH   8  11
ATOM     11  C   UNL     1      34.378 -22.965 -18.374  0.00  0.00    -0.034 C 
BRANCH  11  14
ATOM     12  O   UNL     1      32.697 -23.695 -13.090  0.00  0.00    -0.474 OA
ATOM     13  N   UNL     1      34.811 -23.271 -16.001  0.00  0.00    -0.247 NA
ATOM     14  C   UNL     1      33.874 -23.165 -16.969  0.00  0.00    +0.037 C 
ATOM     15  C   UNL     1      32.509 -23.230 -16.742  0.00  0.00    +0.011 C 
ATOM     16  C   UNL     1      32.065 -23.422 -15.432  0.00  0.00    +0.015 C 
ATOM     17  C   UNL     1      30.596 -23.501 -15.133  0.00  0.00    +0.033 C 
ATOM     18  C   UNL     1      33.009 -23.511 -14.407  0.00  0.00    +0.154 C 
ATOM     19  C   UNL     1      30.371 -24.098 -13.750  0.00  0.00    +0.052 C 
ATOM     20  C   UNL     1      34.354 -23.444 -14.741  0.00  0.00    +0.135 C 
ATOM     21  C   UNL     1      31.325 -23.447 -12.760  0.00  0.00    +0.206 C 
ENDBRANCH  11  14
ENDBRANCH   8  11
ENDBRANCH   2   8
BRANCH   1  22
ATOM     22  C   UNL     1      34.944 -18.221 -22.833  0.00  0.00    -0.055 C 
BRANCH  22  28
ATOM     23  O   UNL     1      35.353 -16.545 -25.756  0.00  0.00    -0.273 OA
ATOM     24  O   UNL     1      33.352 -14.415 -19.482  0.00  0.00    -0.270 OA
ATOM     25  N   UNL     1      34.640 -15.890 -23.631  0.00  0.00    -0.261 N 
ATOM     26  N   UNL     1      33.978 -15.145 -21.594  0.00  0.00    -0.255 N 
ATOM     27  N   UNL     1      33.021 -13.993 -24.914  0.00  0.00    -0.262 NA
ATOM     28  C   UNL     1      35.360 -16.762 -22.682  0.00  0.00    +0.076 C 
ATOM     29  C   UNL     1      34.965 -16.191 -21.293  0.00  0.00    +0.113 C 
ATOM     30  C   UNL     1      33.864 -15.014 -22.945  0.00  0.00    +0.196 C 
ATOM     31  C   UNL     1      33.092 -14.115 -23.550  0.00  0.00    +0.092 C 
ATOM     32  C   UNL     1      34.688 -15.854 -25.001  0.00  0.00    +0.252 C 
ATOM     33  C   UNL     1      33.281 -14.349 -20.706  0.00  0.00    +0.251 C 
ATOM     34  C   UNL     1      32.311 -13.239 -22.705  0.00  0.00    +0.022 C 
ATOM     35  C   UNL     1      33.770 -14.803 -25.604  0.00  0.00    +0.210 C 
ATOM     36  C   UNL     1      32.381 -13.332 -21.363  0.00  0.00    +0.059 C 
ENDBRANCH  22  28
ENDBRANCH   1  22
TORSDOF 5
ENDMDL
MODEL 9
REMARK VINA RESULT:     -11.6      2.136     11.303
REMARK  Name = 25101874
REMARK  5 active torsions:
REMARK  status: ('A' for Active; 'I' for Inactive)
REMARK    1  A    between atoms: N_1  and  C_22
REMARK    2  A    between atoms: C_2  and  N_8
REMARK    3  A    between atoms: N_8  and  C_11
REMARK    4  A    between atoms: C_11  and  C_14
REMARK    5  A    between atoms: C_22  and  C_28
REMARK                            x       y       z     vdW  Elec       q    Type
REMARK                         _______ _______ _______ _____ _____    ______ ____
ROOT
ATOM      1  N   UNL     1      35.210 -18.722 -21.474  0.00  0.00    +0.388 N 
ATOM      2  C   UNL     1      36.317 -20.926 -19.900  0.00  0.00    -0.066 C 
ATOM      3  C   UNL     1      36.655 -18.989 -21.480  0.00  0.00    -0.079 C 
ATOM      4  C   UNL     1      34.440 -19.960 -21.283  0.00  0.00    -0.079 C 
ATOM      5  C   UNL     1      37.102 -19.640 -20.168  0.00  0.00    -0.044 C 
ATOM      6  C   UNL     1      34.813 -20.643 -19.965  0.00  0.00    -0.044 C 
ATOM      7  H   UNL     1      35.009 -18.104 -20.689  0.00  0.00    -0.080 HD
ENDROOT
BRANCH   2   8
ATOM      8  N   UNL     1      36.687 -21.482 -18.600  0.00  0.00    +0.389 N 
ATOM      9  H   UNL     1      36.993 -20.726 -17.987  0.00  0.00    -0.084 HD
ATOM     10  H   UNL     1      37.441 -22.156 -18.737  0.00  0.00    -0.084 HD
BRANCH   8  11
ATOM     11  C   UNL     1      35.557 -22.165 -17.989  0.00  0.00    -0.034 C 
BRANCH  11  14
ATOM     12  O   UNL     1      36.828 -23.606 -12.735  0.00  0.00    -0.474 OA
ATOM     13  N   UNL     1      37.128 -22.445 -16.154  0.00  0.00    -0.247 NA
ATOM     14  C   UNL     1      35.848 -22.570 -16.568  0.00  0.00    +0.037 C 
ATOM     15  C   UNL     1      34.816 -23.043 -15.772  0.00  0.00    +0.011 C 
ATOM     16  C   UNL     1      35.111 -23.418 -14.460  0.00  0.00    +0.015 C 
ATOM     17  C   UNL     1      34.028 -23.937 -13.559  0.00  0.00    +0.033 C 
ATOM     18  C   UNL     1      36.421 -23.276 -13.997  0.00  0.00    +0.154 C 
ATOM     19  C   UNL     1      34.638 -24.638 -12.353  0.00  0.00    +0.052 C 
ATOM     20  C   UNL     1      37.384 -22.803 -14.876  0.00  0.00    +0.135 C 
ATOM     21  C   UNL     1      35.765 -23.785 -11.791  0.00  0.00    +0.206 C 
ENDBRANCH  11  14
ENDBRANCH   8  11
ENDBRANCH   2   8
BRANCH   1  22
ATOM     22  C   UNL     1      34.808 -18.055 -22.712  0.00  0.00    -0.055 C 
BRANCH  22  28
ATOM     23  O   UNL     1      35.239 -16.711 -25.798  0.00  0.00    -0.273 OA
ATOM     24  O   UNL     1      33.319 -13.876 -19.783  0.00  0.00    -0.270 OA
ATOM     25  N   UNL     1      34.552 -15.816 -23.753  0.00  0.00    -0.261 N 
ATOM     26  N   UNL     1      33.917 -14.842 -21.806  0.00  0.00    -0.255 N 
ATOM     27  N   UNL     1      32.969 -14.031 -25.227  0.00  0.00    -0.262 NA
ATOM     28  C   UNL     1      35.257 -16.598 -22.718  0.00  0.00    +0.076 C 
ATOM     29  C   UNL     1      34.882 -15.873 -21.397  0.00  0.00    +0.113 C 
ATOM     30  C   UNL     1      33.799 -14.854 -23.163  0.00  0.00    +0.196 C 
ATOM     31  C   UNL     1      33.044 -14.008 -23.858  0.00  0.00    +0.092 C 
ATOM     32  C   UNL     1      34.594 -15.928 -25.119  0.00  0.00    +0.252 C 
ATOM     33  C   UNL     1      33.243 -13.940 -21.007  0.00  0.00    +0.251 C 
ATOM     34  C   UNL     1      32.287 -13.029 -23.110  0.00  0.00    +0.022 C 
ATOM     35  C   UNL     1      33.696 -14.927 -25.829  0.00  0.00    +0.210 C 
ATOM     36  C   UNL     1      32.362 -12.980 -21.767  0.00  0.00    +0.059 C 
ENDBRANCH  22  28
ENDBRANCH   1  22
TORSDOF 5
ENDMDL
