MODEL 1
REMARK VINA RESULT:     -11.0      0.000      0.000
REMARK  Name = 135565042
REMARK  5 active torsions:
REMARK  status: ('A' for Active; 'I' for Inactive)
REMARK    1  A    between atoms: C_3  and  O_21
REMARK    2  A    between atoms: C_6  and  C_7
REMARK    3  A    between atoms: C_8  and  O_19
REMARK    4  A    between atoms: C_10  and  C_15
REMARK    5  A    between atoms: O_21  and  C_27
REMARK                            x       y       z     vdW  Elec       q    Type
REMARK                         _______ _______ _______ _____ _____    ______ ____
ROOT
ATOM      1  N   UNL     1      35.375 -22.895 -16.482  0.00  0.00    -0.110 NA
ATOM      2  N   UNL     1      35.437 -22.100 -17.584  0.00  0.00    -0.145 NA
ATOM      3  C   UNL     1      34.205 -23.490 -16.164  0.00  0.00    +0.244 C 
ATOM      4  C   UNL     1      33.056 -23.330 -16.911  0.00  0.00    +0.061 C 
ATOM      5  C   UNL     1      33.118 -22.521 -18.032  0.00  0.00    +0.026 C 
ATOM      6  C   UNL     1      34.326 -21.925 -18.332  0.00  0.00    +0.106 C 
ENDROOT
BRANCH   6   7
ATOM      7  C   UNL     1      34.483 -21.070 -19.482  0.00  0.00    +0.053 C 
ATOM      8  C   UNL     1      35.749 -20.671 -19.910  0.00  0.00    +0.135 C 
ATOM      9  C   UNL     1      33.348 -20.640 -20.168  0.00  0.00    +0.005 C 
ATOM     10  C   UNL     1      34.744 -19.413 -21.711  0.00  0.00    +0.006 C 
ATOM     11  C   UNL     1      35.880 -19.844 -21.025  0.00  0.00    +0.037 C 
ATOM     12  C   UNL     1      33.477 -19.812 -21.282  0.00  0.00    +0.000 C 
BRANCH  10  15
ATOM     13  N   UNL     1      35.321 -16.819 -24.099  0.00  0.00    -0.235 N 
ATOM     14  N   UNL     1      34.863 -17.721 -24.984  0.00  0.00    -0.180 NA
ATOM     15  C   UNL     1      34.879 -18.562 -22.860  0.00  0.00    +0.037 C 
ATOM     16  C   UNL     1      35.351 -17.273 -22.814  0.00  0.00    +0.081 C 
ATOM     17  C   UNL     1      34.594 -18.784 -24.221  0.00  0.00    +0.119 C 
ATOM     18  H   UNL     1      35.609 -15.913 -24.356  0.00  0.00    +0.174 HD
ENDBRANCH  10  15
BRANCH   8  19
ATOM     19  O   UNL     1      36.877 -21.077 -19.258  0.00  0.00    -0.505 OA
ATOM     20  H   UNL     1      36.840 -21.804 -18.668  0.00  0.00    +0.292 HD
ENDBRANCH   8  19
ENDBRANCH   6   7
BRANCH   3  21
ATOM     21  O   UNL     1      34.186 -24.283 -15.049  0.00  0.00    -0.463 OA
BRANCH  21  27
ATOM     22  N   UNL     1      37.093 -25.549 -12.256  0.00  0.00    +0.389 N 
ATOM     23  C   UNL     1      37.399 -25.733 -13.681  0.00  0.00    -0.042 C 
ATOM     24  C   UNL     1      36.212 -24.445 -11.849  0.00  0.00    -0.042 C 
ATOM     25  C   UNL     1      36.153 -25.565 -14.571  0.00  0.00    +0.024 C 
ATOM     26  C   UNL     1      34.990 -24.301 -12.777  0.00  0.00    +0.024 C 
ATOM     27  C   UNL     1      35.368 -24.298 -14.254  0.00  0.00    +0.164 C 
ATOM     28  C   UNL     1      36.975 -23.113 -11.731  0.00  0.00    -0.021 C 
ATOM     29  C   UNL     1      37.899 -27.186 -13.818  0.00  0.00    -0.021 C 
ATOM     30  C   UNL     1      38.542 -24.813 -14.149  0.00  0.00    -0.021 C 
ATOM     31  C   UNL     1      35.709 -24.809 -10.437  0.00  0.00    -0.021 C 
ATOM     32  H   UNL     1      37.982 -25.414 -11.774  0.00  0.00    -0.084 HD
ATOM     33  H   UNL     1      36.562 -26.386 -12.011  0.00  0.00    -0.084 HD
ENDBRANCH  21  27
ENDBRANCH   3  21
TORSDOF 5
ENDMDL
MODEL 2
REMARK VINA RESULT:     -10.1      1.318      2.598
REMARK  Name = 135565042
REMARK  5 active torsions:
REMARK  status: ('A' for Active; 'I' for Inactive)
REMARK    1  A    between atoms: C_3  and  O_21
REMARK    2  A    between atoms: C_6  and  C_7
REMARK    3  A    between atoms: C_8  and  O_19
REMARK    4  A    between atoms: C_10  and  C_15
REMARK    5  A    between atoms: O_21  and  C_27
REMARK                            x       y       z     vdW  Elec       q    Type
REMARK                         _______ _______ _______ _____ _____    ______ ____
ROOT
ATOM      1  N   UNL     1      33.616 -23.897 -16.705  0.00  0.00    -0.110 NA
ATOM      2  N   UNL     1      33.741 -23.064 -17.773  0.00  0.00    -0.145 NA
ATOM      3  C   UNL     1      34.562 -23.879 -15.742  0.00  0.00    +0.244 C 
ATOM      4  C   UNL     1      35.663 -23.048 -15.788  0.00  0.00    +0.061 C 
ATOM      5  C   UNL     1      35.790 -22.199 -16.875  0.00  0.00    +0.026 C 
ATOM      6  C   UNL     1      34.808 -22.240 -17.844  0.00  0.00    +0.106 C 
ENDROOT
BRANCH   6   7
ATOM      7  C   UNL     1      34.858 -21.390 -19.007  0.00  0.00    +0.053 C 
ATOM      8  C   UNL     1      33.693 -20.849 -19.550  0.00  0.00    +0.135 C 
ATOM      9  C   UNL     1      36.094 -21.112 -19.592  0.00  0.00    +0.005 C 
ATOM     10  C   UNL     1      34.998 -19.751 -21.261  0.00  0.00    +0.006 C 
ATOM     11  C   UNL     1      33.762 -20.030 -20.676  0.00  0.00    +0.037 C 
ATOM     12  C   UNL     1      36.164 -20.293 -20.718  0.00  0.00    +0.000 C 
BRANCH  10  15
ATOM     13  N   UNL     1      35.464 -17.177 -23.694  0.00  0.00    -0.235 N 
ATOM     14  N   UNL     1      34.923 -18.070 -24.540  0.00  0.00    -0.180 NA
ATOM     15  C   UNL     1      35.070 -18.906 -22.419  0.00  0.00    +0.037 C 
ATOM     16  C   UNL     1      35.574 -17.629 -22.412  0.00  0.00    +0.081 C 
ATOM     17  C   UNL     1      34.684 -19.125 -23.756  0.00  0.00    +0.119 C 
ATOM     18  H   UNL     1      35.754 -16.279 -23.975  0.00  0.00    +0.174 HD
ENDBRANCH  10  15
BRANCH   8  19
ATOM     19  O   UNL     1      32.472 -21.105 -18.998  0.00  0.00    -0.505 OA
ATOM     20  H   UNL     1      32.334 -21.892 -18.509  0.00  0.00    +0.292 HD
ENDBRANCH   8  19
ENDBRANCH   6   7
BRANCH   3  21
ATOM     21  O   UNL     1      34.398 -24.732 -14.684  0.00  0.00    -0.463 OA
BRANCH  21  27
ATOM     22  N   UNL     1      38.211 -24.328 -12.910  0.00  0.00    +0.389 N 
ATOM     23  C   UNL     1      37.039 -24.105 -12.053  0.00  0.00    -0.042 C 
ATOM     24  C   UNL     1      38.100 -25.248 -14.050  0.00  0.00    -0.042 C 
ATOM     25  C   UNL     1      35.743 -23.937 -12.869  0.00  0.00    +0.024 C 
ATOM     26  C   UNL     1      36.782 -25.058 -14.827  0.00  0.00    +0.024 C 
ATOM     27  C   UNL     1      35.560 -25.029 -13.915  0.00  0.00    +0.164 C 
ATOM     28  C   UNL     1      38.284 -26.716 -13.626  0.00  0.00    -0.021 C 
ATOM     29  C   UNL     1      37.313 -22.785 -11.302  0.00  0.00    -0.021 C 
ATOM     30  C   UNL     1      36.883 -25.208 -10.989  0.00  0.00    -0.021 C 
ATOM     31  C   UNL     1      39.272 -24.894 -14.989  0.00  0.00    -0.021 C 
ATOM     32  H   UNL     1      38.956 -24.685 -12.310  0.00  0.00    -0.084 HD
ATOM     33  H   UNL     1      38.370 -23.419 -13.345  0.00  0.00    -0.084 HD
ENDBRANCH  21  27
ENDBRANCH   3  21
TORSDOF 5
ENDMDL
MODEL 3
REMARK VINA RESULT:      -9.9      3.218     11.380
REMARK  Name = 135565042
REMARK  5 active torsions:
REMARK  status: ('A' for Active; 'I' for Inactive)
REMARK    1  A    between atoms: C_3  and  O_21
REMARK    2  A    between atoms: C_6  and  C_7
REMARK    3  A    between atoms: C_8  and  O_19
REMARK    4  A    between atoms: C_10  and  C_15
REMARK    5  A    between atoms: O_21  and  C_27
REMARK                            x       y       z     vdW  Elec       q    Type
REMARK                         _______ _______ _______ _____ _____    ______ ____
ROOT
ATOM      1  N   UNL     1      34.450 -19.047 -23.860  0.00  0.00    -0.110 NA
ATOM      2  N   UNL     1      34.457 -19.821 -22.742  0.00  0.00    -0.145 NA
ATOM      3  C   UNL     1      35.011 -17.819 -23.814  0.00  0.00    +0.244 C 
ATOM      4  C   UNL     1      35.598 -17.306 -22.676  0.00  0.00    +0.061 C 
ATOM      5  C   UNL     1      35.606 -18.094 -21.538  0.00  0.00    +0.026 C 
ATOM      6  C   UNL     1      35.024 -19.343 -21.614  0.00  0.00    +0.106 C 
ENDROOT
BRANCH   6   7
ATOM      7  C   UNL     1      34.989 -20.232 -20.479  0.00  0.00    +0.053 C 
ATOM      8  C   UNL     1      33.778 -20.716 -19.986  0.00  0.00    +0.135 C 
ATOM      9  C   UNL     1      36.189 -20.606 -19.873  0.00  0.00    +0.005 C 
ATOM     10  C   UNL     1      34.965 -21.949 -18.281  0.00  0.00    +0.006 C 
ATOM     11  C   UNL     1      33.765 -21.575 -18.887  0.00  0.00    +0.037 C 
ATOM     12  C   UNL     1      36.177 -21.464 -18.774  0.00  0.00    +0.000 C 
BRANCH  10  15
ATOM     13  N   UNL     1      34.283 -24.324 -15.700  0.00  0.00    -0.235 N 
ATOM     14  N   UNL     1      35.512 -23.996 -15.265  0.00  0.00    -0.180 NA
ATOM     15  C   UNL     1      34.952 -22.834 -17.150  0.00  0.00    +0.037 C 
ATOM     16  C   UNL     1      33.901 -23.657 -16.826  0.00  0.00    +0.081 C 
ATOM     17  C   UNL     1      35.916 -23.085 -16.155  0.00  0.00    +0.119 C 
ATOM     18  H   UNL     1      33.712 -24.986 -15.247  0.00  0.00    +0.174 HD
ENDBRANCH  10  15
BRANCH   8  19
ATOM     19  O   UNL     1      32.591 -20.366 -20.559  0.00  0.00    -0.505 OA
ATOM     20  H   UNL     1      31.787 -20.703 -20.214  0.00  0.00    +0.292 HD
ENDBRANCH   8  19
ENDBRANCH   6   7
BRANCH   3  21
ATOM     21  O   UNL     1      34.984 -17.073 -24.961  0.00  0.00    -0.463 OA
BRANCH  21  27
ATOM     22  N   UNL     1      32.725 -13.548 -24.394  0.00  0.00    +0.389 N 
ATOM     23  C   UNL     1      33.511 -14.039 -23.254  0.00  0.00    -0.042 C 
ATOM     24  C   UNL     1      33.190 -13.830 -25.759  0.00  0.00    -0.042 C 
ATOM     25  C   UNL     1      34.000 -15.484 -23.462  0.00  0.00    +0.024 C 
ATOM     26  C   UNL     1      33.688 -15.280 -25.918  0.00  0.00    +0.024 C 
ATOM     27  C   UNL     1      34.661 -15.692 -24.819  0.00  0.00    +0.164 C 
ATOM     28  C   UNL     1      34.261 -12.825 -26.222  0.00  0.00    -0.021 C 
ATOM     29  C   UNL     1      32.551 -14.022 -22.045  0.00  0.00    -0.021 C 
ATOM     30  C   UNL     1      34.684 -13.100 -22.915  0.00  0.00    -0.021 C 
ATOM     31  C   UNL     1      31.960 -13.637 -26.669  0.00  0.00    -0.021 C 
ATOM     32  H   UNL     1      32.667 -12.533 -24.302  0.00  0.00    -0.084 HD
ATOM     33  H   UNL     1      31.848 -14.064 -24.325  0.00  0.00    -0.084 HD
ENDBRANCH  21  27
ENDBRANCH   3  21
TORSDOF 5
ENDMDL
MODEL 4
REMARK VINA RESULT:      -9.7      7.922     14.467
REMARK  Name = 135565042
REMARK  5 active torsions:
REMARK  status: ('A' for Active; 'I' for Inactive)
REMARK    1  A    between atoms: C_3  and  O_21
REMARK    2  A    between atoms: C_6  and  C_7
REMARK    3  A    between atoms: C_8  and  O_19
REMARK    4  A    between atoms: C_10  and  C_15
REMARK    5  A    between atoms: O_21  and  C_27
REMARK                            x       y       z     vdW  Elec       q    Type
REMARK                         _______ _______ _______ _____ _____    ______ ____
ROOT
ATOM      1  N   UNL     1      32.830 -11.121 -23.067  0.00  0.00    -0.110 NA
ATOM      2  N   UNL     1      33.408 -12.334 -22.854  0.00  0.00    -0.145 NA
ATOM      3  C   UNL     1      31.806 -10.732 -22.277  0.00  0.00    +0.244 C 
ATOM      4  C   UNL     1      31.312 -11.512 -21.251  0.00  0.00    +0.061 C 
ATOM      5  C   UNL     1      31.901 -12.746 -21.034  0.00  0.00    +0.026 C 
ATOM      6  C   UNL     1      32.944 -13.118 -21.858  0.00  0.00    +0.106 C 
ENDROOT
BRANCH   6   7
ATOM      7  C   UNL     1      33.617 -14.383 -21.701  0.00  0.00    +0.053 C 
ATOM      8  C   UNL     1      34.007 -15.129 -22.813  0.00  0.00    +0.135 C 
ATOM      9  C   UNL     1      33.876 -14.860 -20.416  0.00  0.00    +0.005 C 
ATOM     10  C   UNL     1      34.916 -16.828 -21.356  0.00  0.00    +0.006 C 
ATOM     11  C   UNL     1      34.657 -16.351 -22.641  0.00  0.00    +0.037 C 
ATOM     12  C   UNL     1      34.525 -16.082 -20.243  0.00  0.00    +0.000 C 
BRANCH  10  15
ATOM     13  N   UNL     1      35.925 -20.222 -20.875  0.00  0.00    -0.235 N 
ATOM     14  N   UNL     1      37.168 -19.717 -20.950  0.00  0.00    -0.180 NA
ATOM     15  C   UNL     1      35.587 -18.085 -21.178  0.00  0.00    +0.037 C 
ATOM     16  C   UNL     1      34.942 -19.285 -21.006  0.00  0.00    +0.081 C 
ATOM     17  C   UNL     1      36.956 -18.412 -21.135  0.00  0.00    +0.119 C 
ATOM     18  H   UNL     1      35.741 -21.179 -20.738  0.00  0.00    +0.174 HD
ENDBRANCH  10  15
BRANCH   8  19
ATOM     19  O   UNL     1      33.767 -14.687 -24.081  0.00  0.00    -0.505 OA
ATOM     20  H   UNL     1      32.886 -14.607 -24.390  0.00  0.00    +0.292 HD
ENDBRANCH   8  19
ENDBRANCH   6   7
BRANCH   3  21
ATOM     21  O   UNL     1      31.253  -9.505 -22.524  0.00  0.00    -0.463 OA
BRANCH  21  27
ATOM     22  N   UNL     1      32.809  -5.588 -22.824  0.00  0.00    +0.389 N 
ATOM     23  C   UNL     1      32.016  -5.912 -21.630  0.00  0.00    -0.042 C 
ATOM     24  C   UNL     1      33.560  -6.658 -23.496  0.00  0.00    -0.042 C 
ATOM     25  C   UNL     1      31.226  -7.224 -21.793  0.00  0.00    +0.024 C 
ATOM     26  C   UNL     1      32.740  -7.957 -23.621  0.00  0.00    +0.024 C 
ATOM     27  C   UNL     1      32.088  -8.371 -22.307  0.00  0.00    +0.164 C 
ATOM     28  C   UNL     1      34.915  -6.925 -22.817  0.00  0.00    -0.021 C 
ATOM     29  C   UNL     1      31.007  -4.755 -21.472  0.00  0.00    -0.021 C 
ATOM     30  C   UNL     1      32.878  -5.940 -20.354  0.00  0.00    -0.021 C 
ATOM     31  C   UNL     1      33.857  -6.133 -24.916  0.00  0.00    -0.021 C 
ATOM     32  H   UNL     1      33.487  -4.877 -22.548  0.00  0.00    -0.084 HD
ATOM     33  H   UNL     1      32.110  -5.312 -23.513  0.00  0.00    -0.084 HD
ENDBRANCH  21  27
ENDBRANCH   3  21
TORSDOF 5
ENDMDL
MODEL 5
REMARK VINA RESULT:      -9.6      3.010     10.994
REMARK  Name = 135565042
REMARK  5 active torsions:
REMARK  status: ('A' for Active; 'I' for Inactive)
REMARK    1  A    between atoms: C_3  and  O_21
REMARK    2  A    between atoms: C_6  and  C_7
REMARK    3  A    between atoms: C_8  and  O_19
REMARK    4  A    between atoms: C_10  and  C_15
REMARK    5  A    between atoms: O_21  and  C_27
REMARK                            x       y       z     vdW  Elec       q    Type
REMARK                         _______ _______ _______ _____ _____    ______ ____
ROOT
ATOM      1  N   UNL     1      35.738 -17.508 -22.079  0.00  0.00    -0.110 NA
ATOM      2  N   UNL     1      35.512 -18.395 -21.073  0.00  0.00    -0.145 NA
ATOM      3  C   UNL     1      35.309 -17.802 -23.325  0.00  0.00    +0.244 C 
ATOM      4  C   UNL     1      34.643 -18.971 -23.632  0.00  0.00    +0.061 C 
ATOM      5  C   UNL     1      34.412 -19.874 -22.608  0.00  0.00    +0.026 C 
ATOM      6  C   UNL     1      34.863 -19.548 -21.346  0.00  0.00    +0.106 C 
ENDROOT
BRANCH   6   7
ATOM      7  C   UNL     1      34.664 -20.427 -20.220  0.00  0.00    +0.053 C 
ATOM      8  C   UNL     1      35.748 -20.914 -19.491  0.00  0.00    +0.135 C 
ATOM      9  C   UNL     1      33.365 -20.790 -19.864  0.00  0.00    +0.005 C 
ATOM     10  C   UNL     1      34.236 -22.127 -18.050  0.00  0.00    +0.006 C 
ATOM     11  C   UNL     1      35.535 -21.764 -18.406  0.00  0.00    +0.037 C 
ATOM     12  C   UNL     1      33.150 -21.640 -18.780  0.00  0.00    +0.000 C 
BRANCH  10  15
ATOM     13  N   UNL     1      32.999 -24.228 -15.438  0.00  0.00    -0.235 N 
ATOM     14  N   UNL     1      34.298 -24.364 -15.121  0.00  0.00    -0.180 NA
ATOM     15  C   UNL     1      34.015 -23.001 -16.932  0.00  0.00    +0.037 C 
ATOM     16  C   UNL     1      32.777 -23.422 -16.515  0.00  0.00    +0.081 C 
ATOM     17  C   UNL     1      34.914 -23.612 -16.037  0.00  0.00    +0.119 C 
ATOM     18  H   UNL     1      32.275 -24.670 -14.938  0.00  0.00    +0.174 HD
ENDBRANCH  10  15
BRANCH   8  19
ATOM     19  O   UNL     1      37.029 -20.575 -19.817  0.00  0.00    -0.505 OA
ATOM     20  H   UNL     1      37.269 -20.461 -20.716  0.00  0.00    +0.292 HD
ENDBRANCH   8  19
ENDBRANCH   6   7
BRANCH   3  21
ATOM     21  O   UNL     1      35.556 -16.882 -24.307  0.00  0.00    -0.463 OA
BRANCH  21  27
ATOM     22  N   UNL     1      32.784 -13.758 -23.672  0.00  0.00    +0.389 N 
ATOM     23  C   UNL     1      33.577 -14.204 -22.518  0.00  0.00    -0.042 C 
ATOM     24  C   UNL     1      33.351 -13.883 -25.022  0.00  0.00    -0.042 C 
ATOM     25  C   UNL     1      34.281 -15.549 -22.780  0.00  0.00    +0.024 C 
ATOM     26  C   UNL     1      34.061 -15.234 -25.234  0.00  0.00    +0.024 C 
ATOM     27  C   UNL     1      35.030 -15.573 -24.107  0.00  0.00    +0.164 C 
ATOM     28  C   UNL     1      34.285 -12.709 -25.366  0.00  0.00    -0.021 C 
ATOM     29  C   UNL     1      32.568 -14.401 -21.367  0.00  0.00    -0.021 C 
ATOM     30  C   UNL     1      34.583 -13.132 -22.061  0.00  0.00    -0.021 C 
ATOM     31  C   UNL     1      32.151 -13.809 -25.989  0.00  0.00    -0.021 C 
ATOM     32  H   UNL     1      32.575 -12.770 -23.527  0.00  0.00    -0.084 HD
ATOM     33  H   UNL     1      31.989 -14.397 -23.682  0.00  0.00    -0.084 HD
ENDBRANCH  21  27
ENDBRANCH   3  21
TORSDOF 5
ENDMDL
MODEL 6
REMARK VINA RESULT:      -9.3      2.710     10.476
REMARK  Name = 135565042
REMARK  5 active torsions:
REMARK  status: ('A' for Active; 'I' for Inactive)
REMARK    1  A    between atoms: C_3  and  O_21
REMARK    2  A    between atoms: C_6  and  C_7
REMARK    3  A    between atoms: C_8  and  O_19
REMARK    4  A    between atoms: C_10  and  C_15
REMARK    5  A    between atoms: O_21  and  C_27
REMARK                            x       y       z     vdW  Elec       q    Type
REMARK                         _______ _______ _______ _____ _____    ______ ____
ROOT
ATOM      1  N   UNL     1      36.689 -18.743 -21.107  0.00  0.00    -0.110 NA
ATOM      2  N   UNL     1      36.597 -19.627 -20.077  0.00  0.00    -0.145 NA
ATOM      3  C   UNL     1      35.675 -18.659 -21.995  0.00  0.00    +0.244 C 
ATOM      4  C   UNL     1      34.536 -19.434 -21.908  0.00  0.00    +0.061 C 
ATOM      5  C   UNL     1      34.442 -20.333 -20.859  0.00  0.00    +0.026 C 
ATOM      6  C   UNL     1      35.494 -20.398 -19.968  0.00  0.00    +0.106 C 
ENDROOT
BRANCH   6   7
ATOM      7  C   UNL     1      35.480 -21.303 -18.846  0.00  0.00    +0.053 C 
ATOM      8  C   UNL     1      34.344 -22.054 -18.546  0.00  0.00    +0.135 C 
ATOM      9  C   UNL     1      36.622 -21.420 -18.054  0.00  0.00    +0.005 C 
ATOM     10  C   UNL     1      35.493 -23.042 -16.664  0.00  0.00    +0.006 C 
ATOM     11  C   UNL     1      34.350 -22.924 -17.456  0.00  0.00    +0.037 C 
ATOM     12  C   UNL     1      36.629 -22.289 -16.963  0.00  0.00    +0.000 C 
BRANCH  10  15
ATOM     13  N   UNL     1      34.816 -25.118 -13.836  0.00  0.00    -0.235 N 
ATOM     14  N   UNL     1      36.127 -25.406 -13.909  0.00  0.00    -0.180 NA
ATOM     15  C   UNL     1      35.500 -23.938 -15.542  0.00  0.00    +0.037 C 
ATOM     16  C   UNL     1      34.391 -24.244 -14.792  0.00  0.00    +0.081 C 
ATOM     17  C   UNL     1      36.539 -24.682 -14.953  0.00  0.00    +0.119 C 
ATOM     18  H   UNL     1      34.219 -25.503 -13.155  0.00  0.00    +0.174 HD
ENDBRANCH  10  15
BRANCH   8  19
ATOM     19  O   UNL     1      33.213 -21.959 -19.303  0.00  0.00    -0.505 OA
ATOM     20  H   UNL     1      33.216 -21.444 -20.086  0.00  0.00    +0.292 HD
ENDBRANCH   8  19
ENDBRANCH   6   7
BRANCH   3  21
ATOM     21  O   UNL     1      35.807 -17.757 -23.015  0.00  0.00    -0.463 OA
BRANCH  21  27
ATOM     22  N   UNL     1      33.130 -14.536 -22.461  0.00  0.00    +0.389 N 
ATOM     23  C   UNL     1      33.752 -15.113 -21.261  0.00  0.00    -0.042 C 
ATOM     24  C   UNL     1      33.853 -14.591 -23.739  0.00  0.00    -0.042 C 
ATOM     25  C   UNL     1      34.418 -16.472 -21.546  0.00  0.00    +0.024 C 
ATOM     26  C   UNL     1      34.518 -15.961 -23.975  0.00  0.00    +0.024 C 
ATOM     27  C   UNL     1      35.323 -16.439 -22.772  0.00  0.00    +0.164 C 
ATOM     28  C   UNL     1      34.877 -13.450 -23.871  0.00  0.00    -0.021 C 
ATOM     29  C   UNL     1      32.601 -15.338 -20.258  0.00  0.00    -0.021 C 
ATOM     30  C   UNL     1      34.745 -14.138 -20.600  0.00  0.00    -0.021 C 
ATOM     31  C   UNL     1      32.786 -14.375 -24.833  0.00  0.00    -0.021 C 
ATOM     32  H   UNL     1      32.952 -13.551 -22.261  0.00  0.00    -0.084 HD
ATOM     33  H   UNL     1      32.313 -15.126 -22.618  0.00  0.00    -0.084 HD
ENDBRANCH  21  27
ENDBRANCH   3  21
TORSDOF 5
ENDMDL
MODEL 7
REMARK VINA RESULT:      -9.3      7.957     14.313
REMARK  Name = 135565042
REMARK  5 active torsions:
REMARK  status: ('A' for Active; 'I' for Inactive)
REMARK    1  A    between atoms: C_3  and  O_21
REMARK    2  A    between atoms: C_6  and  C_7
REMARK    3  A    between atoms: C_8  and  O_19
REMARK    4  A    between atoms: C_10  and  C_15
REMARK    5  A    between atoms: O_21  and  C_27
REMARK                            x       y       z     vdW  Elec       q    Type
REMARK                         _______ _______ _______ _____ _____    ______ ____
ROOT
ATOM      1  N   UNL     1      32.551 -11.122 -22.935  0.00  0.00    -0.110 NA
ATOM      2  N   UNL     1      33.195 -12.306 -22.754  0.00  0.00    -0.145 NA
ATOM      3  C   UNL     1      31.509 -10.810 -22.134  0.00  0.00    +0.244 C 
ATOM      4  C   UNL     1      31.062 -11.643 -21.129  0.00  0.00    +0.061 C 
ATOM      5  C   UNL     1      31.718 -12.847 -20.943  0.00  0.00    +0.026 C 
ATOM      6  C   UNL     1      32.778 -13.140 -21.778  0.00  0.00    +0.106 C 
ENDROOT
BRANCH   6   7
ATOM      7  C   UNL     1      33.520 -14.370 -21.654  0.00  0.00    +0.053 C 
ATOM      8  C   UNL     1      33.911 -15.086 -22.785  0.00  0.00    +0.135 C 
ATOM      9  C   UNL     1      33.847 -14.841 -20.383  0.00  0.00    +0.005 C 
ATOM     10  C   UNL     1      34.955 -16.745 -21.373  0.00  0.00    +0.006 C 
ATOM     11  C   UNL     1      34.629 -16.274 -22.645  0.00  0.00    +0.037 C 
ATOM     12  C   UNL     1      34.563 -16.029 -20.241  0.00  0.00    +0.000 C 
BRANCH  10  15
ATOM     13  N   UNL     1      36.154 -20.082 -20.931  0.00  0.00    -0.235 N 
ATOM     14  N   UNL     1      37.365 -19.520 -21.087  0.00  0.00    -0.180 NA
ATOM     15  C   UNL     1      35.695 -17.967 -21.228  0.00  0.00    +0.037 C 
ATOM     16  C   UNL     1      35.121 -19.195 -21.008  0.00  0.00    +0.081 C 
ATOM     17  C   UNL     1      37.078 -18.228 -21.268  0.00  0.00    +0.119 C 
ATOM     18  H   UNL     1      36.025 -21.046 -20.776  0.00  0.00    +0.174 HD
ENDBRANCH  10  15
BRANCH   8  19
ATOM     19  O   UNL     1      33.606 -14.648 -24.040  0.00  0.00    -0.505 OA
ATOM     20  H   UNL     1      32.739 -14.759 -24.376  0.00  0.00    +0.292 HD
ENDBRANCH   8  19
ENDBRANCH   6   7
BRANCH   3  21
ATOM     21  O   UNL     1      30.889  -9.610 -22.350  0.00  0.00    -0.463 OA
BRANCH  21  27
ATOM     22  N   UNL     1      32.430  -5.707 -21.855  0.00  0.00    +0.389 N 
ATOM     23  C   UNL     1      33.116  -6.800 -21.152  0.00  0.00    -0.042 C 
ATOM     24  C   UNL     1      31.733  -5.995 -23.116  0.00  0.00    -0.042 C 
ATOM     25  C   UNL     1      32.277  -8.092 -21.123  0.00  0.00    +0.024 C 
ATOM     26  C   UNL     1      30.922  -7.304 -23.049  0.00  0.00    +0.024 C 
ATOM     27  C   UNL     1      31.732  -8.470 -22.494  0.00  0.00    +0.164 C 
ATOM     28  C   UNL     1      32.694  -6.002 -24.318  0.00  0.00    -0.021 C 
ATOM     29  C   UNL     1      33.303  -6.312 -19.700  0.00  0.00    -0.021 C 
ATOM     30  C   UNL     1      34.521  -7.064 -21.725  0.00  0.00    -0.021 C 
ATOM     31  C   UNL     1      30.748  -4.825 -23.326  0.00  0.00    -0.021 C 
ATOM     32  H   UNL     1      33.133  -4.996 -22.059  0.00  0.00    -0.084 HD
ATOM     33  H   UNL     1      31.681  -5.441 -21.217  0.00  0.00    -0.084 HD
ENDBRANCH  21  27
ENDBRANCH   3  21
TORSDOF 5
ENDMDL
MODEL 8
REMARK VINA RESULT:      -9.2      7.482     14.210
REMARK  Name = 135565042
REMARK  5 active torsions:
REMARK  status: ('A' for Active; 'I' for Inactive)
REMARK    1  A    between atoms: C_3  and  O_21
REMARK    2  A    between atoms: C_6  and  C_7
REMARK    3  A    between atoms: C_8  and  O_19
REMARK    4  A    between atoms: C_10  and  C_15
REMARK    5  A    between atoms: O_21  and  C_27
REMARK                            x       y       z     vdW  Elec       q    Type
REMARK                         _______ _______ _______ _____ _____    ______ ____
ROOT
ATOM      1  N   UNL     1      32.042 -11.895 -22.003  0.00  0.00    -0.110 NA
ATOM      2  N   UNL     1      32.576 -13.112 -21.712  0.00  0.00    -0.145 NA
ATOM      3  C   UNL     1      32.594 -11.151 -22.985  0.00  0.00    +0.244 C 
ATOM      4  C   UNL     1      33.686 -11.569 -23.718  0.00  0.00    +0.061 C 
ATOM      5  C   UNL     1      34.230 -12.808 -23.423  0.00  0.00    +0.026 C 
ATOM      6  C   UNL     1      33.645 -13.545 -22.413  0.00  0.00    +0.106 C 
ENDROOT
BRANCH   6   7
ATOM      7  C   UNL     1      34.143 -14.846 -22.041  0.00  0.00    +0.053 C 
ATOM      8  C   UNL     1      33.943 -15.349 -20.756  0.00  0.00    +0.135 C 
ATOM      9  C   UNL     1      34.834 -15.604 -22.987  0.00  0.00    +0.005 C 
ATOM     10  C   UNL     1      35.124 -17.367 -21.361  0.00  0.00    +0.006 C 
ATOM     11  C   UNL     1      34.433 -16.609 -20.416  0.00  0.00    +0.037 C 
ATOM     12  C   UNL     1      35.325 -16.864 -22.647  0.00  0.00    +0.000 C 
BRANCH  10  15
ATOM     13  N   UNL     1      37.013 -20.280 -20.514  0.00  0.00    -0.235 N 
ATOM     14  N   UNL     1      35.810 -20.878 -20.471  0.00  0.00    -0.180 NA
ATOM     15  C   UNL     1      35.627 -18.666 -21.011  0.00  0.00    +0.037 C 
ATOM     16  C   UNL     1      36.958 -18.955 -20.833  0.00  0.00    +0.081 C 
ATOM     17  C   UNL     1      34.967 -19.887 -20.775  0.00  0.00    +0.119 C 
ATOM     18  H   UNL     1      37.856 -20.755 -20.331  0.00  0.00    +0.174 HD
ENDBRANCH  10  15
BRANCH   8  19
ATOM     19  O   UNL     1      33.271 -14.629 -19.812  0.00  0.00    -0.505 OA
ATOM     20  H   UNL     1      33.645 -14.509 -18.961  0.00  0.00    +0.292 HD
ENDBRANCH   8  19
ENDBRANCH   6   7
BRANCH   3  21
ATOM     21  O   UNL     1      32.026  -9.934 -23.246  0.00  0.00    -0.463 OA
BRANCH  21  27
ATOM     22  N   UNL     1      33.049  -5.892 -22.562  0.00  0.00    +0.389 N 
ATOM     23  C   UNL     1      32.348  -6.604 -21.485  0.00  0.00    -0.042 C 
ATOM     24  C   UNL     1      33.907  -6.652 -23.482  0.00  0.00    -0.042 C 
ATOM     25  C   UNL     1      31.729  -7.929 -21.968  0.00  0.00    +0.024 C 
ATOM     26  C   UNL     1      33.258  -7.977 -23.925  0.00  0.00    +0.024 C 
ATOM     27  C   UNL     1      32.714  -8.787 -22.754  0.00  0.00    +0.164 C 
ATOM     28  C   UNL     1      35.310  -6.893 -22.895  0.00  0.00    -0.021 C 
ATOM     29  C   UNL     1      31.204  -5.670 -21.039  0.00  0.00    -0.021 C 
ATOM     30  C   UNL     1      33.252  -6.831 -20.258  0.00  0.00    -0.021 C 
ATOM     31  C   UNL     1      34.082  -5.757 -24.726  0.00  0.00    -0.021 C 
ATOM     32  H   UNL     1      33.638  -5.186 -22.119  0.00  0.00    -0.084 HD
ATOM     33  H   UNL     1      32.295  -5.551 -23.158  0.00  0.00    -0.084 HD
ENDBRANCH  21  27
ENDBRANCH   3  21
TORSDOF 5
ENDMDL
MODEL 9
REMARK VINA RESULT:      -9.2      3.222     11.346
REMARK  Name = 135565042
REMARK  5 active torsions:
REMARK  status: ('A' for Active; 'I' for Inactive)
REMARK    1  A    between atoms: C_3  and  O_21
REMARK    2  A    between atoms: C_6  and  C_7
REMARK    3  A    between atoms: C_8  and  O_19
REMARK    4  A    between atoms: C_10  and  C_15
REMARK    5  A    between atoms: O_21  and  C_27
REMARK                            x       y       z     vdW  Elec       q    Type
REMARK                         _______ _______ _______ _____ _____    ______ ____
ROOT
ATOM      1  N   UNL     1      35.269 -17.401 -22.092  0.00  0.00    -0.110 NA
ATOM      2  N   UNL     1      35.115 -18.294 -21.078  0.00  0.00    -0.145 NA
ATOM      3  C   UNL     1      35.150 -17.827 -23.368  0.00  0.00    +0.244 C 
ATOM      4  C   UNL     1      34.876 -19.139 -23.697  0.00  0.00    +0.061 C 
ATOM      5  C   UNL     1      34.718 -20.048 -22.665  0.00  0.00    +0.026 C 
ATOM      6  C   UNL     1      34.847 -19.584 -21.372  0.00  0.00    +0.106 C 
ENDROOT
BRANCH   6   7
ATOM      7  C   UNL     1      34.696 -20.459 -20.236  0.00  0.00    +0.053 C 
ATOM      8  C   UNL     1      33.431 -20.818 -19.771  0.00  0.00    +0.135 C 
ATOM      9  C   UNL     1      35.837 -20.948 -19.599  0.00  0.00    +0.005 C 
ATOM     10  C   UNL     1      34.447 -22.155 -18.034  0.00  0.00    +0.006 C 
ATOM     11  C   UNL     1      33.306 -21.665 -18.671  0.00  0.00    +0.037 C 
ATOM     12  C   UNL     1      35.713 -21.796 -18.499  0.00  0.00    +0.000 C 
BRANCH  10  15
ATOM     13  N   UNL     1      33.429 -24.272 -15.342  0.00  0.00    -0.235 N 
ATOM     14  N   UNL     1      34.749 -24.377 -15.110  0.00  0.00    -0.180 NA
ATOM     15  C   UNL     1      34.318 -23.028 -16.902  0.00  0.00    +0.037 C 
ATOM     16  C   UNL     1      33.119 -23.476 -16.405  0.00  0.00    +0.081 C 
ATOM     17  C   UNL     1      35.287 -23.616 -16.066  0.00  0.00    +0.119 C 
ATOM     18  H   UNL     1      32.749 -24.729 -14.795  0.00  0.00    +0.174 HD
ENDBRANCH  10  15
BRANCH   8  19
ATOM     19  O   UNL     1      32.298 -20.354 -20.374  0.00  0.00    -0.505 OA
ATOM     20  H   UNL     1      31.462 -20.513 -19.984  0.00  0.00    +0.292 HD
ENDBRANCH   8  19
ENDBRANCH   6   7
BRANCH   3  21
ATOM     21  O   UNL     1      35.312 -16.897 -24.358  0.00  0.00    -0.463 OA
BRANCH  21  27
ATOM     22  N   UNL     1      33.746 -12.988 -24.708  0.00  0.00    +0.389 N 
ATOM     23  C   UNL     1      33.556 -13.898 -25.846  0.00  0.00    -0.042 C 
ATOM     24  C   UNL     1      33.846 -13.549 -23.353  0.00  0.00    -0.042 C 
ATOM     25  C   UNL     1      34.452 -15.147 -25.750  0.00  0.00    +0.024 C 
ATOM     26  C   UNL     1      34.735 -14.807 -23.306  0.00  0.00    +0.024 C 
ATOM     27  C   UNL     1      34.377 -15.822 -24.386  0.00  0.00    +0.164 C 
ATOM     28  C   UNL     1      32.462 -13.829 -22.741  0.00  0.00    -0.021 C 
ATOM     29  C   UNL     1      33.976 -13.097 -27.097  0.00  0.00    -0.021 C 
ATOM     30  C   UNL     1      32.079 -14.289 -26.033  0.00  0.00    -0.021 C 
ATOM     31  C   UNL     1      34.511 -12.453 -22.495  0.00  0.00    -0.021 C 
ATOM     32  H   UNL     1      32.955 -12.343 -24.706  0.00  0.00    -0.084 HD
ATOM     33  H   UNL     1      34.667 -12.583 -24.872  0.00  0.00    -0.084 HD
ENDBRANCH  21  27
ENDBRANCH   3  21
TORSDOF 5
ENDMDL
