MODEL 1
REMARK VINA RESULT:     -11.4      0.000      0.000
REMARK  Name = 5288708
REMARK  4 active torsions:
REMARK  status: ('A' for Active; 'I' for Inactive)
REMARK    1  A    between atoms: N_1  and  C_9
REMARK    2  A    between atoms: N_1  and  C_16
REMARK    3  A    between atoms: C_15  and  S_21
REMARK    4  A    between atoms: S_21  and  N_24
REMARK                            x       y       z     vdW  Elec       q    Type
REMARK                         _______ _______ _______ _____ _____    ______ ____
ROOT
ATOM      1  N   UNL     1      36.244 -18.500 -21.606  0.00  0.00    -0.311 N 
ATOM      2  H   UNL     1      37.149 -18.234 -21.326  0.00  0.00    +0.152 HD
ENDROOT
BRANCH   1   9
ATOM      3  O   UNL     1      34.954 -16.280 -20.259  0.00  0.00    -0.270 OA
ATOM      4  N   UNL     1      33.936 -14.853 -21.843  0.00  0.00    -0.280 N 
ATOM      5  C   UNL     1      34.475 -15.956 -23.788  0.00  0.00    +0.019 C 
ATOM      6  C   UNL     1      35.028 -16.694 -22.657  0.00  0.00    +0.069 C 
ATOM      7  C   UNL     1      33.823 -14.848 -23.238  0.00  0.00    +0.051 C 
ATOM      8  C   UNL     1      34.665 -15.961 -21.397  0.00  0.00    +0.251 C 
ATOM      9  C   UNL     1      35.735 -17.824 -22.668  0.00  0.00    +0.066 C 
ATOM     10  C   UNL     1      34.493 -16.157 -25.155  0.00  0.00    +0.001 C 
ATOM     11  C   UNL     1      33.173 -13.911 -24.016  0.00  0.00    +0.015 C 
ATOM     12  C   UNL     1      33.841 -15.219 -25.963  0.00  0.00    +0.000 C 
ATOM     13  C   UNL     1      33.186 -14.107 -25.399  0.00  0.00    +0.001 C 
ATOM     14  H   UNL     1      33.551 -14.166 -21.252  0.00  0.00    +0.155 HD
ENDBRANCH   1   9
BRANCH   1  16
ATOM     15  C   UNL     1      34.464 -21.567 -19.355  0.00  0.00    +0.122 C 
ATOM     16  C   UNL     1      35.649 -19.526 -20.854  0.00  0.00    +0.048 C 
ATOM     17  C   UNL     1      33.667 -20.674 -20.072  0.00  0.00    +0.021 C 
ATOM     18  C   UNL     1      35.853 -21.442 -19.388  0.00  0.00    +0.021 C 
ATOM     19  C   UNL     1      34.258 -19.656 -20.819  0.00  0.00    +0.016 C 
ATOM     20  C   UNL     1      36.444 -20.423 -20.135  0.00  0.00    +0.016 C 
BRANCH  15  21
ATOM     21  S   UNL     1      33.725 -22.842 -18.419  0.00  0.00    +0.060 S 
ATOM     22  O   UNL     1      32.431 -22.378 -17.934  0.00  0.00    -0.153 OA
ATOM     23  O   UNL     1      33.795 -24.067 -19.204  0.00  0.00    -0.153 OA
BRANCH  21  24
ATOM     24  N   UNL     1      34.788 -22.985 -17.088  0.00  0.00    -0.178 NA
ATOM     25  C   UNL     1      34.255 -23.316 -15.759  0.00  0.00    +0.110 C 
ATOM     26  H   UNL     1      35.270 -22.091 -16.998  0.00  0.00    +0.149 HD
ENDBRANCH  21  24
ENDBRANCH  15  21
ENDBRANCH   1  16
TORSDOF 4
ENDMDL
MODEL 2
REMARK VINA RESULT:     -10.7      2.816      9.105
REMARK  Name = 5288708
REMARK  4 active torsions:
REMARK  status: ('A' for Active; 'I' for Inactive)
REMARK    1  A    between atoms: N_1  and  C_9
REMARK    2  A    between atoms: N_1  and  C_16
REMARK    3  A    between atoms: C_15  and  S_21
REMARK    4  A    between atoms: S_21  and  N_24
REMARK                            x       y       z     vdW  Elec       q    Type
REMARK                         _______ _______ _______ _____ _____    ______ ____
ROOT
ATOM      1  N   UNL     1      34.439 -23.069 -18.343  0.00  0.00    -0.311 N 
ATOM      2  H   UNL     1      35.110 -23.789 -18.334  0.00  0.00    +0.152 HD
ENDROOT
BRANCH   1   9
ATOM      3  O   UNL     1      35.627 -22.861 -15.706  0.00  0.00    -0.270 OA
ATOM      4  N   UNL     1      33.973 -23.165 -14.046  0.00  0.00    -0.280 N 
ATOM      5  C   UNL     1      32.125 -23.500 -15.373  0.00  0.00    +0.019 C 
ATOM      6  C   UNL     1      33.287 -23.285 -16.227  0.00  0.00    +0.069 C 
ATOM      7  C   UNL     1      32.597 -23.417 -14.060  0.00  0.00    +0.051 C 
ATOM      8  C   UNL     1      34.484 -23.070 -15.345  0.00  0.00    +0.251 C 
ATOM      9  C   UNL     1      33.348 -23.271 -17.560  0.00  0.00    +0.066 C 
ATOM     10  C   UNL     1      30.788 -23.744 -15.627  0.00  0.00    +0.001 C 
ATOM     11  C   UNL     1      31.769 -23.571 -12.964  0.00  0.00    +0.015 C 
ATOM     12  C   UNL     1      29.932 -23.903 -14.533  0.00  0.00    +0.000 C 
ATOM     13  C   UNL     1      30.418 -23.818 -13.214  0.00  0.00    +0.001 C 
ATOM     14  H   UNL     1      34.513 -23.069 -13.229  0.00  0.00    +0.155 HD
ENDBRANCH   1   9
BRANCH   1  16
ATOM     15  C   UNL     1      35.324 -19.781 -20.802  0.00  0.00    +0.122 C 
ATOM     16  C   UNL     1      34.735 -21.970 -19.165  0.00  0.00    +0.048 C 
ATOM     17  C   UNL     1      33.997 -20.126 -20.550  0.00  0.00    +0.021 C 
ATOM     18  C   UNL     1      36.359 -20.528 -20.237  0.00  0.00    +0.021 C 
ATOM     19  C   UNL     1      33.703 -21.218 -19.732  0.00  0.00    +0.016 C 
ATOM     20  C   UNL     1      36.065 -21.620 -19.420  0.00  0.00    +0.016 C 
BRANCH  15  21
ATOM     21  S   UNL     1      35.693 -18.416 -21.825  0.00  0.00    +0.060 S 
ATOM     22  O   UNL     1      37.133 -18.372 -22.049  0.00  0.00    -0.153 OA
ATOM     23  O   UNL     1      34.793 -18.463 -22.970  0.00  0.00    -0.153 OA
BRANCH  21  24
ATOM     24  N   UNL     1      35.253 -17.089 -20.840  0.00  0.00    -0.178 NA
ATOM     25  C   UNL     1      34.617 -15.909 -21.444  0.00  0.00    +0.110 C 
ATOM     26  H   UNL     1      36.106 -16.763 -20.386  0.00  0.00    +0.149 HD
ENDBRANCH  21  24
ENDBRANCH  15  21
ENDBRANCH   1  16
TORSDOF 4
ENDMDL
MODEL 3
REMARK VINA RESULT:     -10.6      1.446      2.124
REMARK  Name = 5288708
REMARK  4 active torsions:
REMARK  status: ('A' for Active; 'I' for Inactive)
REMARK    1  A    between atoms: N_1  and  C_9
REMARK    2  A    between atoms: N_1  and  C_16
REMARK    3  A    between atoms: C_15  and  S_21
REMARK    4  A    between atoms: S_21  and  N_24
REMARK                            x       y       z     vdW  Elec       q    Type
REMARK                         _______ _______ _______ _____ _____    ______ ____
ROOT
ATOM      1  N   UNL     1      36.115 -18.769 -21.445  0.00  0.00    -0.311 N 
ATOM      2  H   UNL     1      36.947 -19.025 -21.903  0.00  0.00    +0.152 HD
ENDROOT
BRANCH   1   9
ATOM      3  O   UNL     1      35.109 -18.967 -24.157  0.00  0.00    -0.270 OA
ATOM      4  N   UNL     1      34.275 -16.873 -24.866  0.00  0.00    -0.280 N 
ATOM      5  C   UNL     1      34.679 -15.617 -22.983  0.00  0.00    +0.019 C 
ATOM      6  C   UNL     1      35.133 -16.983 -22.746  0.00  0.00    +0.069 C 
ATOM      7  C   UNL     1      34.167 -15.606 -24.284  0.00  0.00    +0.051 C 
ATOM      8  C   UNL     1      34.863 -17.788 -23.986  0.00  0.00    +0.251 C 
ATOM      9  C   UNL     1      35.698 -17.494 -21.651  0.00  0.00    +0.066 C 
ATOM     10  C   UNL     1      34.676 -14.469 -22.214  0.00  0.00    +0.001 C 
ATOM     11  C   UNL     1      33.640 -14.467 -24.862  0.00  0.00    +0.015 C 
ATOM     12  C   UNL     1      34.146 -13.304 -22.779  0.00  0.00    +0.000 C 
ATOM     13  C   UNL     1      33.634 -13.303 -24.091  0.00  0.00    +0.001 C 
ATOM     14  H   UNL     1      33.977 -17.093 -25.779  0.00  0.00    +0.155 HD
ENDBRANCH   1   9
BRANCH   1  16
ATOM     15  C   UNL     1      34.327 -21.766 -19.107  0.00  0.00    +0.122 C 
ATOM     16  C   UNL     1      35.517 -19.771 -20.663  0.00  0.00    +0.048 C 
ATOM     17  C   UNL     1      35.715 -21.637 -19.133  0.00  0.00    +0.021 C 
ATOM     18  C   UNL     1      33.531 -20.898 -19.856  0.00  0.00    +0.021 C 
ATOM     19  C   UNL     1      36.309 -20.641 -19.910  0.00  0.00    +0.016 C 
ATOM     20  C   UNL     1      34.125 -19.903 -20.633  0.00  0.00    +0.016 C 
BRANCH  15  21
ATOM     21  S   UNL     1      33.583 -23.011 -18.136  0.00  0.00    +0.060 S 
ATOM     22  O   UNL     1      32.292 -22.529 -17.663  0.00  0.00    -0.153 OA
ATOM     23  O   UNL     1      33.648 -24.258 -18.887  0.00  0.00    -0.153 OA
BRANCH  21  24
ATOM     24  N   UNL     1      34.647 -23.122 -16.802  0.00  0.00    -0.178 NA
ATOM     25  C   UNL     1      34.116 -23.439 -15.468  0.00  0.00    +0.110 C 
ATOM     26  H   UNL     1      35.118 -22.222 -16.724  0.00  0.00    +0.149 HD
ENDBRANCH  21  24
ENDBRANCH  15  21
ENDBRANCH   1  16
TORSDOF 4
ENDMDL
MODEL 4
REMARK VINA RESULT:     -10.6      3.969      6.874
REMARK  Name = 5288708
REMARK  4 active torsions:
REMARK  status: ('A' for Active; 'I' for Inactive)
REMARK    1  A    between atoms: N_1  and  C_9
REMARK    2  A    between atoms: N_1  and  C_16
REMARK    3  A    between atoms: C_15  and  S_21
REMARK    4  A    between atoms: S_21  and  N_24
REMARK                            x       y       z     vdW  Elec       q    Type
REMARK                         _______ _______ _______ _____ _____    ______ ____
ROOT
ATOM      1  N   UNL     1      35.074 -23.139 -16.932  0.00  0.00    -0.311 N 
ATOM      2  H   UNL     1      34.344 -23.716 -17.253  0.00  0.00    +0.152 HD
ENDROOT
BRANCH   1   9
ATOM      3  O   UNL     1      32.681 -22.419 -18.403  0.00  0.00    -0.270 OA
ATOM      4  N   UNL     1      33.217 -20.891 -20.123  0.00  0.00    -0.280 N 
ATOM      5  C   UNL     1      35.485 -20.696 -19.799  0.00  0.00    +0.019 C 
ATOM      6  C   UNL     1      34.944 -21.620 -18.809  0.00  0.00    +0.069 C 
ATOM      7  C   UNL     1      34.395 -20.283 -20.570  0.00  0.00    +0.051 C 
ATOM      8  C   UNL     1      33.464 -21.737 -19.036  0.00  0.00    +0.251 C 
ATOM      9  C   UNL     1      35.591 -22.281 -17.848  0.00  0.00    +0.066 C 
ATOM     10  C   UNL     1      36.756 -20.220 -20.063  0.00  0.00    +0.001 C 
ATOM     11  C   UNL     1      34.525 -19.394 -21.620  0.00  0.00    +0.015 C 
ATOM     12  C   UNL     1      36.911 -19.318 -21.121  0.00  0.00    +0.000 C 
ATOM     13  C   UNL     1      35.805 -18.909 -21.892  0.00  0.00    +0.001 C 
ATOM     14  H   UNL     1      32.329 -20.744 -20.522  0.00  0.00    +0.155 HD
ENDBRANCH   1   9
BRANCH   1  16
ATOM     15  C   UNL     1      36.179 -23.661 -12.913  0.00  0.00    +0.122 C 
ATOM     16  C   UNL     1      35.443 -23.313 -15.588  0.00  0.00    +0.048 C 
ATOM     17  C   UNL     1      37.105 -23.172 -13.834  0.00  0.00    +0.021 C 
ATOM     18  C   UNL     1      34.884 -23.975 -13.327  0.00  0.00    +0.021 C 
ATOM     19  C   UNL     1      36.738 -22.998 -15.169  0.00  0.00    +0.016 C 
ATOM     20  C   UNL     1      34.517 -23.802 -14.662  0.00  0.00    +0.016 C 
BRANCH  15  21
ATOM     21  S   UNL     1      36.637 -23.878 -11.243  0.00  0.00    +0.060 S 
ATOM     22  O   UNL     1      37.389 -22.708 -10.806  0.00  0.00    -0.153 OA
ATOM     23  O   UNL     1      35.447 -24.279 -10.504  0.00  0.00    -0.153 OA
BRANCH  21  24
ATOM     24  N   UNL     1      37.704 -25.213 -11.325  0.00  0.00    -0.178 NA
ATOM     25  C   UNL     1      37.365 -26.368 -12.167  0.00  0.00    +0.110 C 
ATOM     26  H   UNL     1      37.811 -25.563 -10.373  0.00  0.00    +0.149 HD
ENDBRANCH  21  24
ENDBRANCH  15  21
ENDBRANCH   1  16
TORSDOF 4
ENDMDL
MODEL 5
REMARK VINA RESULT:      -9.9      2.863      9.835
REMARK  Name = 5288708
REMARK  4 active torsions:
REMARK  status: ('A' for Active; 'I' for Inactive)
REMARK    1  A    between atoms: N_1  and  C_9
REMARK    2  A    between atoms: N_1  and  C_16
REMARK    3  A    between atoms: C_15  and  S_21
REMARK    4  A    between atoms: S_21  and  N_24
REMARK                            x       y       z     vdW  Elec       q    Type
REMARK                         _______ _______ _______ _____ _____    ______ ____
ROOT
ATOM      1  N   UNL     1      34.620 -22.897 -17.491  0.00  0.00    -0.311 N 
ATOM      2  H   UNL     1      33.809 -23.449 -17.565  0.00  0.00    +0.152 HD
ENDROOT
BRANCH   1   9
ATOM      3  O   UNL     1      32.576 -23.312 -15.476  0.00  0.00    -0.270 OA
ATOM      4  N   UNL     1      33.579 -23.752 -13.383  0.00  0.00    -0.280 N 
ATOM      5  C   UNL     1      35.801 -23.633 -13.966  0.00  0.00    +0.019 C 
ATOM      6  C   UNL     1      34.987 -23.385 -15.151  0.00  0.00    +0.069 C 
ATOM      7  C   UNL     1      34.896 -23.850 -12.922  0.00  0.00    +0.051 C 
ATOM      8  C   UNL     1      33.542 -23.465 -14.752  0.00  0.00    +0.251 C 
ATOM      9  C   UNL     1      35.389 -23.125 -16.396  0.00  0.00    +0.066 C 
ATOM     10  C   UNL     1      37.163 -23.682 -13.740  0.00  0.00    +0.001 C 
ATOM     11  C   UNL     1      35.307 -24.120 -11.631  0.00  0.00    +0.015 C 
ATOM     12  C   UNL     1      37.602 -23.954 -12.440  0.00  0.00    +0.000 C 
ATOM     13  C   UNL     1      36.683 -24.170 -11.395  0.00  0.00    +0.001 C 
ATOM     14  H   UNL     1      32.782 -23.869 -12.818  0.00  0.00    +0.155 HD
ENDBRANCH   1   9
BRANCH   1  16
ATOM     15  C   UNL     1      35.238 -20.139 -20.598  0.00  0.00    +0.122 C 
ATOM     16  C   UNL     1      34.826 -21.975 -18.530  0.00  0.00    +0.048 C 
ATOM     17  C   UNL     1      36.329 -20.683 -19.920  0.00  0.00    +0.021 C 
ATOM     18  C   UNL     1      33.940 -20.512 -20.244  0.00  0.00    +0.021 C 
ATOM     19  C   UNL     1      36.124 -21.599 -18.889  0.00  0.00    +0.016 C 
ATOM     20  C   UNL     1      33.735 -21.427 -19.212  0.00  0.00    +0.016 C 
BRANCH  15  21
ATOM     21  S   UNL     1      35.494 -18.992 -21.889  0.00  0.00    +0.060 S 
ATOM     22  O   UNL     1      36.926 -18.874 -22.134  0.00  0.00    -0.153 OA
ATOM     23  O   UNL     1      34.608 -19.355 -22.988  0.00  0.00    -0.153 OA
BRANCH  21  24
ATOM     24  N   UNL     1      34.935 -17.530 -21.199  0.00  0.00    -0.178 NA
ATOM     25  C   UNL     1      34.939 -16.297 -21.998  0.00  0.00    +0.110 C 
ATOM     26  H   UNL     1      35.513 -17.352 -20.378  0.00  0.00    +0.149 HD
ENDBRANCH  21  24
ENDBRANCH  15  21
ENDBRANCH   1  16
TORSDOF 4
ENDMDL
MODEL 6
REMARK VINA RESULT:      -9.8      4.182      6.307
REMARK  Name = 5288708
REMARK  4 active torsions:
REMARK  status: ('A' for Active; 'I' for Inactive)
REMARK    1  A    between atoms: N_1  and  C_9
REMARK    2  A    between atoms: N_1  and  C_16
REMARK    3  A    between atoms: C_15  and  S_21
REMARK    4  A    between atoms: S_21  and  N_24
REMARK                            x       y       z     vdW  Elec       q    Type
REMARK                         _______ _______ _______ _____ _____    ______ ____
ROOT
ATOM      1  N   UNL     1      33.196 -13.230 -22.965  0.00  0.00    -0.311 N 
ATOM      2  H   UNL     1      32.221 -13.206 -22.839  0.00  0.00    +0.152 HD
ENDROOT
BRANCH   1   9
ATOM      3  O   UNL     1      31.398 -11.379 -21.643  0.00  0.00    -0.270 OA
ATOM      4  N   UNL     1      32.123  -9.158 -21.989  0.00  0.00    -0.280 N 
ATOM      5  C   UNL     1      33.994  -9.538 -23.271  0.00  0.00    +0.019 C 
ATOM      6  C   UNL     1      33.381 -10.819 -22.938  0.00  0.00    +0.069 C 
ATOM      7  C   UNL     1      33.192  -8.564 -22.670  0.00  0.00    +0.051 C 
ATOM      8  C   UNL     1      32.162 -10.552 -22.103  0.00  0.00    +0.251 C 
ATOM      9  C   UNL     1      33.778 -12.045 -23.283  0.00  0.00    +0.066 C 
ATOM     10  C   UNL     1      35.112  -9.178 -24.000  0.00  0.00    +0.001 C 
ATOM     11  C   UNL     1      33.466  -7.213 -22.770  0.00  0.00    +0.015 C 
ATOM     12  C   UNL     1      35.410  -7.816 -24.114  0.00  0.00    +0.000 C 
ATOM     13  C   UNL     1      34.593  -6.843 -23.505  0.00  0.00    +0.001 C 
ATOM     14  H   UNL     1      31.433  -8.659 -21.495  0.00  0.00    +0.155 HD
ENDBRANCH   1   9
BRANCH   1  16
ATOM     15  C   UNL     1      35.008 -16.985 -22.457  0.00  0.00    +0.122 C 
ATOM     16  C   UNL     1      33.802 -14.485 -22.795  0.00  0.00    +0.048 C 
ATOM     17  C   UNL     1      34.725 -16.514 -23.739  0.00  0.00    +0.021 C 
ATOM     18  C   UNL     1      34.691 -16.207 -21.343  0.00  0.00    +0.021 C 
ATOM     19  C   UNL     1      34.123 -15.267 -23.908  0.00  0.00    +0.016 C 
ATOM     20  C   UNL     1      34.089 -14.960 -21.512  0.00  0.00    +0.016 C 
BRANCH  15  21
ATOM     21  S   UNL     1      35.761 -18.546 -22.245  0.00  0.00    +0.060 S 
ATOM     22  O   UNL     1      35.259 -19.452 -23.271  0.00  0.00    -0.153 OA
ATOM     23  O   UNL     1      37.197 -18.333 -22.121  0.00  0.00    -0.153 OA
BRANCH  21  24
ATOM     24  N   UNL     1      35.151 -19.046 -20.728  0.00  0.00    -0.178 NA
ATOM     25  C   UNL     1      34.108 -20.079 -20.664  0.00  0.00    +0.110 C 
ATOM     26  H   UNL     1      34.770 -18.215 -20.275  0.00  0.00    +0.149 HD
ENDBRANCH  21  24
ENDBRANCH  15  21
ENDBRANCH   1  16
TORSDOF 4
ENDMDL
MODEL 7
REMARK VINA RESULT:      -9.7      3.322      8.224
REMARK  Name = 5288708
REMARK  4 active torsions:
REMARK  status: ('A' for Active; 'I' for Inactive)
REMARK    1  A    between atoms: N_1  and  C_9
REMARK    2  A    between atoms: N_1  and  C_16
REMARK    3  A    between atoms: C_15  and  S_21
REMARK    4  A    between atoms: S_21  and  N_24
REMARK                            x       y       z     vdW  Elec       q    Type
REMARK                         _______ _______ _______ _____ _____    ______ ____
ROOT
ATOM      1  N   UNL     1      35.454 -19.093 -22.250  0.00  0.00    -0.311 N 
ATOM      2  H   UNL     1      36.238 -19.423 -22.744  0.00  0.00    +0.152 HD
ENDROOT
BRANCH   1   9
ATOM      3  O   UNL     1      37.612 -19.359 -20.332  0.00  0.00    -0.270 OA
ATOM      4  N   UNL     1      36.985 -20.847 -18.608  0.00  0.00    -0.280 N 
ATOM      5  C   UNL     1      34.866 -21.404 -19.304  0.00  0.00    +0.019 C 
ATOM      6  C   UNL     1      35.445 -20.465 -20.259  0.00  0.00    +0.069 C 
ATOM      7  C   UNL     1      35.842 -21.601 -18.323  0.00  0.00    +0.051 C 
ATOM      8  C   UNL     1      36.828 -20.114 -19.789  0.00  0.00    +0.251 C 
ATOM      9  C   UNL     1      34.902 -19.968 -21.371  0.00  0.00    +0.066 C 
ATOM     10  C   UNL     1      33.647 -22.053 -19.228  0.00  0.00    +0.001 C 
ATOM     11  C   UNL     1      35.646 -22.439 -17.243  0.00  0.00    +0.015 C 
ATOM     12  C   UNL     1      33.428 -22.906 -18.141  0.00  0.00    +0.000 C 
ATOM     13  C   UNL     1      34.418 -23.098 -17.158  0.00  0.00    +0.001 C 
ATOM     14  H   UNL     1      37.796 -20.834 -18.050  0.00  0.00    +0.155 HD
ENDBRANCH   1   9
BRANCH   1  16
ATOM     15  C   UNL     1      34.253 -15.169 -23.145  0.00  0.00    +0.122 C 
ATOM     16  C   UNL     1      35.052 -17.782 -22.549  0.00  0.00    +0.048 C 
ATOM     17  C   UNL     1      34.464 -16.087 -24.175  0.00  0.00    +0.021 C 
ATOM     18  C   UNL     1      34.439 -15.556 -21.818  0.00  0.00    +0.021 C 
ATOM     19  C   UNL     1      34.862 -17.390 -23.877  0.00  0.00    +0.016 C 
ATOM     20  C   UNL     1      34.839 -16.859 -21.520  0.00  0.00    +0.016 C 
BRANCH  15  21
ATOM     21  S   UNL     1      33.754 -13.538 -23.517  0.00  0.00    +0.060 S 
ATOM     22  O   UNL     1      34.718 -12.610 -22.938  0.00  0.00    -0.153 OA
ATOM     23  O   UNL     1      33.470 -13.475 -24.945  0.00  0.00    -0.153 OA
BRANCH  21  24
ATOM     24  N   UNL     1      32.280 -13.399 -22.661  0.00  0.00    -0.178 NA
ATOM     25  C   UNL     1      32.201 -12.533 -21.476  0.00  0.00    +0.110 C 
ATOM     26  H   UNL     1      32.027 -14.339 -22.356  0.00  0.00    +0.149 HD
ENDBRANCH  21  24
ENDBRANCH  15  21
ENDBRANCH   1  16
TORSDOF 4
ENDMDL
MODEL 8
REMARK VINA RESULT:      -9.6      5.033      7.576
REMARK  Name = 5288708
REMARK  4 active torsions:
REMARK  status: ('A' for Active; 'I' for Inactive)
REMARK    1  A    between atoms: N_1  and  C_9
REMARK    2  A    between atoms: N_1  and  C_16
REMARK    3  A    between atoms: C_15  and  S_21
REMARK    4  A    between atoms: S_21  and  N_24
REMARK                            x       y       z     vdW  Elec       q    Type
REMARK                         _______ _______ _______ _____ _____    ______ ____
ROOT
ATOM      1  N   UNL     1      31.544 -12.404 -21.224  0.00  0.00    -0.311 N 
ATOM      2  H   UNL     1      30.755 -12.577 -20.663  0.00  0.00    +0.152 HD
ENDROOT
BRANCH   1   9
ATOM      3  O   UNL     1      31.862 -10.854 -18.794  0.00  0.00    -0.270 OA
ATOM      4  N   UNL     1      32.063  -8.559 -19.318  0.00  0.00    -0.280 N 
ATOM      5  C   UNL     1      31.901  -8.651 -21.610  0.00  0.00    +0.019 C 
ATOM      6  C   UNL     1      31.799 -10.004 -21.074  0.00  0.00    +0.069 C 
ATOM      7  C   UNL     1      32.060  -7.814 -20.502  0.00  0.00    +0.051 C 
ATOM      8  C   UNL     1      31.905  -9.924 -19.578  0.00  0.00    +0.251 C 
ATOM      9  C   UNL     1      31.637 -11.150 -21.737  0.00  0.00    +0.066 C 
ATOM     10  C   UNL     1      31.869  -8.129 -22.890  0.00  0.00    +0.001 C 
ATOM     11  C   UNL     1      32.191  -6.443 -20.623  0.00  0.00    +0.015 C 
ATOM     12  C   UNL     1      32.000  -6.744 -23.036  0.00  0.00    +0.000 C 
ATOM     13  C   UNL     1      32.159  -5.909 -21.912  0.00  0.00    +0.001 C 
ATOM     14  H   UNL     1      32.161  -8.172 -18.418  0.00  0.00    +0.155 HD
ENDBRANCH   1   9
BRANCH   1  16
ATOM     15  C   UNL     1      34.178 -15.638 -21.719  0.00  0.00    +0.122 C 
ATOM     16  C   UNL     1      32.424 -13.485 -21.389  0.00  0.00    +0.048 C 
ATOM     17  C   UNL     1      33.582 -15.407 -20.479  0.00  0.00    +0.021 C 
ATOM     18  C   UNL     1      33.898 -14.795 -22.795  0.00  0.00    +0.021 C 
ATOM     19  C   UNL     1      32.707 -14.333 -20.315  0.00  0.00    +0.016 C 
ATOM     20  C   UNL     1      33.024 -13.721 -22.631  0.00  0.00    +0.016 C 
BRANCH  15  21
ATOM     21  S   UNL     1      35.273 -16.982 -21.925  0.00  0.00    +0.060 S 
ATOM     22  O   UNL     1      36.305 -16.603 -22.882  0.00  0.00    -0.153 OA
ATOM     23  O   UNL     1      35.663 -17.444 -20.600  0.00  0.00    -0.153 OA
BRANCH  21  24
ATOM     24  N   UNL     1      34.271 -18.167 -22.643  0.00  0.00    -0.178 NA
ATOM     25  C   UNL     1      34.875 -19.299 -23.359  0.00  0.00    +0.110 C 
ATOM     26  H   UNL     1      33.672 -17.682 -23.311  0.00  0.00    +0.149 HD
ENDBRANCH  21  24
ENDBRANCH  15  21
ENDBRANCH   1  16
TORSDOF 4
ENDMDL
MODEL 9
REMARK VINA RESULT:      -9.5      5.548      9.937
REMARK  Name = 5288708
REMARK  4 active torsions:
REMARK  status: ('A' for Active; 'I' for Inactive)
REMARK    1  A    between atoms: N_1  and  C_9
REMARK    2  A    between atoms: N_1  and  C_16
REMARK    3  A    between atoms: C_15  and  S_21
REMARK    4  A    between atoms: S_21  and  N_24
REMARK                            x       y       z     vdW  Elec       q    Type
REMARK                         _______ _______ _______ _____ _____    ______ ____
ROOT
ATOM      1  N   UNL     1      34.263 -13.448 -23.810  0.00  0.00    -0.311 N 
ATOM      2  H   UNL     1      34.481 -13.522 -24.767  0.00  0.00    +0.152 HD
ENDROOT
BRANCH   1   9
ATOM      3  O   UNL     1      34.305 -15.486 -25.872  0.00  0.00    -0.270 OA
ATOM      4  N   UNL     1      34.724 -17.603 -24.911  0.00  0.00    -0.280 N 
ATOM      5  C   UNL     1      34.905 -17.013 -22.695  0.00  0.00    +0.019 C 
ATOM      6  C   UNL     1      34.640 -15.815 -23.484  0.00  0.00    +0.069 C 
ATOM      7  C   UNL     1      34.947 -18.069 -23.610  0.00  0.00    +0.051 C 
ATOM      8  C   UNL     1      34.524 -16.219 -24.925  0.00  0.00    +0.251 C 
ATOM      9  C   UNL     1      34.510 -14.555 -23.063  0.00  0.00    +0.066 C 
ATOM     10  C   UNL     1      35.099 -17.241 -21.346  0.00  0.00    +0.001 C 
ATOM     11  C   UNL     1      35.179 -19.375 -23.224  0.00  0.00    +0.015 C 
ATOM     12  C   UNL     1      35.337 -18.556 -20.932  0.00  0.00    +0.000 C 
ATOM     13  C   UNL     1      35.375 -19.613 -21.862  0.00  0.00    +0.001 C 
ATOM     14  H   UNL     1      34.709 -18.175 -25.711  0.00  0.00    +0.155 HD
ENDBRANCH   1   9
BRANCH   1  16
ATOM     15  C   UNL     1      32.690  -9.754 -22.577  0.00  0.00    +0.122 C 
ATOM     16  C   UNL     1      33.737 -12.214 -23.398  0.00  0.00    +0.048 C 
ATOM     17  C   UNL     1      33.677  -9.799 -23.561  0.00  0.00    +0.021 C 
ATOM     18  C   UNL     1      32.224 -10.938 -22.002  0.00  0.00    +0.021 C 
ATOM     19  C   UNL     1      34.199 -11.026 -23.971  0.00  0.00    +0.016 C 
ATOM     20  C   UNL     1      32.747 -12.165 -22.411  0.00  0.00    +0.016 C 
BRANCH  15  21
ATOM     21  S   UNL     1      32.036  -8.220 -22.063  0.00  0.00    +0.060 S 
ATOM     22  O   UNL     1      30.903  -7.883 -22.916  0.00  0.00    -0.153 OA
ATOM     23  O   UNL     1      31.850  -8.277 -20.619  0.00  0.00    -0.153 OA
BRANCH  21  24
ATOM     24  N   UNL     1      33.317  -7.140 -22.405  0.00  0.00    -0.178 NA
ATOM     25  C   UNL     1      33.147  -6.106 -23.435  0.00  0.00    +0.110 C 
ATOM     26  H   UNL     1      34.114  -7.709 -22.689  0.00  0.00    +0.149 HD
ENDBRANCH  21  24
ENDBRANCH  15  21
ENDBRANCH   1  16
TORSDOF 4
ENDMDL
