MODEL 1
REMARK VINA RESULT:     -11.5      0.000      0.000
REMARK  Name = 115368
REMARK  5 active torsions:
REMARK  status: ('A' for Active; 'I' for Inactive)
REMARK    1  A    between atoms: N_2  and  C_17
REMARK    2  A    between atoms: C_17  and  C_18
REMARK    3  A    between atoms: C_18  and  C_19
REMARK    4  A    between atoms: C_19  and  C_20
REMARK    5  A    between atoms: C_20  and  N_23
REMARK                            x       y       z     vdW  Elec       q    Type
REMARK                         _______ _______ _______ _____ _____    ______ ____
ROOT
ATOM      1  S   UNL     1      34.192 -15.038 -25.919  0.00  0.00    +0.014 S 
ATOM      2  N   UNL     1      35.478 -19.751 -21.453  0.00  0.00    +0.389 N 
ATOM      3  N   UNL     1      34.994 -17.570 -23.235  0.00  0.00    -0.297 N 
ATOM      4  N   UNL     1      34.722 -16.500 -25.350  0.00  0.00    -0.194 NA
ATOM      5  C   UNL     1      35.718 -18.368 -21.025  0.00  0.00    -0.055 C 
ATOM      6  C   UNL     1      34.365 -19.799 -22.411  0.00  0.00    -0.055 C 
ATOM      7  C   UNL     1      36.046 -17.465 -22.218  0.00  0.00    +0.069 C 
ATOM      8  C   UNL     1      34.676 -18.944 -23.641  0.00  0.00    +0.069 C 
ATOM      9  C   UNL     1      34.632 -16.497 -24.019  0.00  0.00    +0.140 A 
ATOM     10  C   UNL     1      34.128 -15.300 -23.401  0.00  0.00    +0.040 A 
ATOM     11  C   UNL     1      33.826 -14.354 -24.383  0.00  0.00    +0.050 A 
ATOM     12  C   UNL     1      33.906 -14.960 -22.048  0.00  0.00    +0.003 C 
ATOM     13  C   UNL     1      33.314 -13.086 -24.068  0.00  0.00    +0.008 C 
ATOM     14  C   UNL     1      33.396 -13.700 -21.724  0.00  0.00    +0.000 C 
ATOM     15  C   UNL     1      33.105 -12.776 -22.722  0.00  0.00    +0.001 C 
ATOM     16  H   UNL     1      36.318 -20.101 -21.913  0.00  0.00    -0.080 HD
ENDROOT
BRANCH   2  17
ATOM     17  C   UNL     1      35.199 -20.606 -20.299  0.00  0.00    -0.077 C 
BRANCH  17  18
ATOM     18  C   UNL     1      33.702 -20.616 -19.994  0.00  0.00    -0.021 C 
BRANCH  18  19
ATOM     19  C   UNL     1      33.359 -21.679 -18.945  0.00  0.00    +0.020 C 
BRANCH  19  20
ATOM     20  C   UNL     1      34.496 -22.671 -18.722  0.00  0.00    +0.101 C 
BRANCH  20  23
ATOM     21  O   UNL     1      37.094 -22.002 -17.474  0.00  0.00    -0.274 OA
ATOM     22  O   UNL     1      32.880 -23.616 -16.465  0.00  0.00    -0.274 OA
ATOM     23  N   UNL     1      34.883 -22.763 -17.328  0.00  0.00    -0.230 N 
ATOM     24  C   UNL     1      36.018 -22.430 -15.333  0.00  0.00    +0.086 C 
ATOM     25  C   UNL     1      34.868 -23.414 -15.090  0.00  0.00    +0.086 C 
ATOM     26  C   UNL     1      37.328 -22.736 -14.616  0.00  0.00    +0.010 C 
ATOM     27  C   UNL     1      35.297 -24.879 -14.955  0.00  0.00    +0.010 C 
ATOM     28  C   UNL     1      37.688 -24.215 -14.619  0.00  0.00    +0.001 C 
ATOM     29  C   UNL     1      36.534 -25.055 -14.087  0.00  0.00    +0.001 C 
ATOM     30  C   UNL     1      36.119 -22.378 -16.843  0.00  0.00    +0.231 C 
ATOM     31  C   UNL     1      34.047 -23.269 -16.351  0.00  0.00    +0.231 C 
ENDBRANCH  20  23
ENDBRANCH  19  20
ENDBRANCH  18  19
ENDBRANCH  17  18
ENDBRANCH   2  17
TORSDOF 5
ENDMDL
MODEL 2
REMARK VINA RESULT:     -11.2      1.926      2.583
REMARK  Name = 115368
REMARK  5 active torsions:
REMARK  status: ('A' for Active; 'I' for Inactive)
REMARK    1  A    between atoms: N_2  and  C_17
REMARK    2  A    between atoms: C_17  and  C_18
REMARK    3  A    between atoms: C_18  and  C_19
REMARK    4  A    between atoms: C_19  and  C_20
REMARK    5  A    between atoms: C_20  and  N_23
REMARK                            x       y       z     vdW  Elec       q    Type
REMARK                         _______ _______ _______ _____ _____    ______ ____
ROOT
ATOM      1  S   UNL     1      34.009 -15.732 -25.383  0.00  0.00    +0.014 S 
ATOM      2  N   UNL     1      36.210 -20.072 -20.895  0.00  0.00    +0.389 N 
ATOM      3  N   UNL     1      35.365 -18.042 -22.721  0.00  0.00    -0.297 N 
ATOM      4  N   UNL     1      34.633 -17.156 -24.812  0.00  0.00    -0.194 NA
ATOM      5  C   UNL     1      36.561 -18.665 -20.665  0.00  0.00    -0.055 C 
ATOM      6  C   UNL     1      34.907 -20.165 -21.569  0.00  0.00    -0.055 C 
ATOM      7  C   UNL     1      36.621 -17.885 -21.981  0.00  0.00    +0.069 C 
ATOM      8  C   UNL     1      34.943 -19.435 -22.913  0.00  0.00    +0.069 C 
ATOM      9  C   UNL     1      34.848 -17.031 -23.501  0.00  0.00    +0.140 A 
ATOM     10  C   UNL     1      34.515 -15.767 -22.902  0.00  0.00    +0.040 A 
ATOM     11  C   UNL     1      34.011 -14.902 -23.876  0.00  0.00    +0.050 A 
ATOM     12  C   UNL     1      34.611 -15.300 -21.572  0.00  0.00    +0.003 C 
ATOM     13  C   UNL     1      33.602 -13.594 -23.575  0.00  0.00    +0.008 C 
ATOM     14  C   UNL     1      34.206 -13.999 -21.262  0.00  0.00    +0.000 C 
ATOM     15  C   UNL     1      33.709 -13.158 -22.252  0.00  0.00    +0.001 C 
ATOM     16  H   UNL     1      36.919 -20.491 -21.497  0.00  0.00    -0.080 HD
ENDROOT
BRANCH   2  17
ATOM     17  C   UNL     1      36.189 -20.810 -19.632  0.00  0.00    -0.077 C 
BRANCH  17  18
ATOM     18  C   UNL     1      34.897 -21.616 -19.509  0.00  0.00    -0.021 C 
BRANCH  18  19
ATOM     19  C   UNL     1      34.798 -22.297 -18.140  0.00  0.00    +0.020 C 
BRANCH  19  20
ATOM     20  C   UNL     1      33.564 -23.184 -18.015  0.00  0.00    +0.101 C 
BRANCH  20  23
ATOM     21  O   UNL     1      34.739 -24.129 -15.469  0.00  0.00    -0.274 OA
ATOM     22  O   UNL     1      30.923 -22.189 -17.217  0.00  0.00    -0.274 OA
ATOM     23  N   UNL     1      32.991 -23.149 -16.684  0.00  0.00    -0.230 N 
ATOM     24  C   UNL     1      32.793 -23.162 -14.372  0.00  0.00    +0.086 C 
ATOM     25  C   UNL     1      31.397 -23.021 -14.988  0.00  0.00    +0.086 C 
ATOM     26  C   UNL     1      32.902 -24.065 -13.150  0.00  0.00    +0.010 C 
ATOM     27  C   UNL     1      30.550 -24.297 -14.951  0.00  0.00    +0.010 C 
ATOM     28  C   UNL     1      32.079 -25.341 -13.266  0.00  0.00    +0.001 C 
ATOM     29  C   UNL     1      30.632 -25.023 -13.617  0.00  0.00    +0.001 C 
ATOM     30  C   UNL     1      33.651 -23.580 -15.548  0.00  0.00    +0.231 C 
ATOM     31  C   UNL     1      31.711 -22.695 -16.431  0.00  0.00    +0.231 C 
ENDBRANCH  20  23
ENDBRANCH  19  20
ENDBRANCH  18  19
ENDBRANCH  17  18
ENDBRANCH   2  17
TORSDOF 5
ENDMDL
MODEL 3
REMARK VINA RESULT:     -10.9      1.205      2.236
REMARK  Name = 115368
REMARK  5 active torsions:
REMARK  status: ('A' for Active; 'I' for Inactive)
REMARK    1  A    between atoms: N_2  and  C_17
REMARK    2  A    between atoms: C_17  and  C_18
REMARK    3  A    between atoms: C_18  and  C_19
REMARK    4  A    between atoms: C_19  and  C_20
REMARK    5  A    between atoms: C_20  and  N_23
REMARK                            x       y       z     vdW  Elec       q    Type
REMARK                         _______ _______ _______ _____ _____    ______ ____
ROOT
ATOM      1  S   UNL     1      34.195 -15.167 -25.866  0.00  0.00    +0.014 S 
ATOM      2  N   UNL     1      35.541 -19.787 -21.320  0.00  0.00    +0.389 N 
ATOM      3  N   UNL     1      35.033 -17.643 -23.141  0.00  0.00    -0.297 N 
ATOM      4  N   UNL     1      34.733 -16.617 -25.274  0.00  0.00    -0.194 NA
ATOM      5  C   UNL     1      35.785 -18.395 -20.924  0.00  0.00    -0.055 C 
ATOM      6  C   UNL     1      34.417 -19.855 -22.264  0.00  0.00    -0.055 C 
ATOM      7  C   UNL     1      36.096 -17.517 -22.139  0.00  0.00    +0.069 C 
ATOM      8  C   UNL     1      34.711 -19.026 -23.515  0.00  0.00    +0.069 C 
ATOM      9  C   UNL     1      34.659 -16.587 -23.942  0.00  0.00    +0.140 A 
ATOM     10  C   UNL     1      34.161 -15.378 -23.343  0.00  0.00    +0.040 A 
ATOM     11  C   UNL     1      33.846 -14.453 -24.340  0.00  0.00    +0.050 A 
ATOM     12  C   UNL     1      33.956 -15.010 -21.995  0.00  0.00    +0.003 C 
ATOM     13  C   UNL     1      33.337 -13.180 -24.045  0.00  0.00    +0.008 C 
ATOM     14  C   UNL     1      33.448 -13.744 -21.690  0.00  0.00    +0.000 C 
ATOM     15  C   UNL     1      33.144 -12.842 -22.703  0.00  0.00    +0.001 C 
ATOM     16  H   UNL     1      36.377 -20.145 -21.783  0.00  0.00    -0.080 HD
ENDROOT
BRANCH   2  17
ATOM     17  C   UNL     1      35.278 -20.618 -20.146  0.00  0.00    -0.077 C 
BRANCH  17  18
ATOM     18  C   UNL     1      36.569 -20.858 -19.365  0.00  0.00    -0.021 C 
BRANCH  18  19
ATOM     19  C   UNL     1      36.408 -22.015 -18.373  0.00  0.00    +0.020 C 
BRANCH  19  20
ATOM     20  C   UNL     1      36.938 -21.674 -16.984  0.00  0.00    +0.101 C 
BRANCH  20  23
ATOM     21  O   UNL     1      34.397 -22.785 -15.953  0.00  0.00    -0.274 OA
ATOM     22  O   UNL     1      38.984 -23.249 -15.593  0.00  0.00    -0.274 OA
ATOM     23  N   UNL     1      36.738 -22.752 -16.036  0.00  0.00    -0.230 N 
ATOM     24  C   UNL     1      35.749 -24.477 -14.842  0.00  0.00    +0.086 C 
ATOM     25  C   UNL     1      37.185 -24.288 -14.340  0.00  0.00    +0.086 C 
ATOM     26  C   UNL     1      34.698 -24.770 -13.779  0.00  0.00    +0.010 C 
ATOM     27  C   UNL     1      37.302 -23.575 -12.989  0.00  0.00    +0.010 C 
ATOM     28  C   UNL     1      34.871 -23.942 -12.513  0.00  0.00    +0.001 C 
ATOM     29  C   UNL     1      36.288 -24.072 -11.969  0.00  0.00    +0.001 C 
ATOM     30  C   UNL     1      35.496 -23.225 -15.656  0.00  0.00    +0.231 C 
ATOM     31  C   UNL     1      37.785 -23.398 -15.406  0.00  0.00    +0.231 C 
ENDBRANCH  20  23
ENDBRANCH  19  20
ENDBRANCH  18  19
ENDBRANCH  17  18
ENDBRANCH   2  17
TORSDOF 5
ENDMDL
MODEL 4
REMARK VINA RESULT:     -10.6      1.769      2.805
REMARK  Name = 115368
REMARK  5 active torsions:
REMARK  status: ('A' for Active; 'I' for Inactive)
REMARK    1  A    between atoms: N_2  and  C_17
REMARK    2  A    between atoms: C_17  and  C_18
REMARK    3  A    between atoms: C_18  and  C_19
REMARK    4  A    between atoms: C_19  and  C_20
REMARK    5  A    between atoms: C_20  and  N_23
REMARK                            x       y       z     vdW  Elec       q    Type
REMARK                         _______ _______ _______ _____ _____    ______ ____
ROOT
ATOM      1  S   UNL     1      34.015 -15.577 -25.557  0.00  0.00    +0.014 S 
ATOM      2  N   UNL     1      36.091 -20.009 -21.100  0.00  0.00    +0.389 N 
ATOM      3  N   UNL     1      35.296 -17.942 -22.907  0.00  0.00    -0.297 N 
ATOM      4  N   UNL     1      34.627 -17.011 -24.999  0.00  0.00    -0.194 NA
ATOM      5  C   UNL     1      36.429 -18.607 -20.828  0.00  0.00    -0.055 C 
ATOM      6  C   UNL     1      34.811 -20.092 -21.817  0.00  0.00    -0.055 C 
ATOM      7  C   UNL     1      36.528 -17.797 -22.124  0.00  0.00    +0.069 C 
ATOM      8  C   UNL     1      34.885 -19.331 -23.142  0.00  0.00    +0.069 C 
ATOM      9  C   UNL     1      34.800 -16.915 -23.679  0.00  0.00    +0.140 A 
ATOM     10  C   UNL     1      34.444 -15.666 -23.063  0.00  0.00    +0.040 A 
ATOM     11  C   UNL     1      33.967 -14.781 -24.032  0.00  0.00    +0.050 A 
ATOM     12  C   UNL     1      34.496 -15.228 -21.721  0.00  0.00    +0.003 C 
ATOM     13  C   UNL     1      33.544 -13.481 -23.715  0.00  0.00    +0.008 C 
ATOM     14  C   UNL     1      34.077 -13.936 -21.394  0.00  0.00    +0.000 C 
ATOM     15  C   UNL     1      33.608 -13.075 -22.380  0.00  0.00    +0.001 C 
ATOM     16  H   UNL     1      36.820 -20.413 -21.689  0.00  0.00    -0.080 HD
ENDROOT
BRANCH   2  17
ATOM     17  C   UNL     1      36.034 -20.776 -19.856  0.00  0.00    -0.077 C 
BRANCH  17  18
ATOM     18  C   UNL     1      34.594 -21.183 -19.548  0.00  0.00    -0.021 C 
BRANCH  18  19
ATOM     19  C   UNL     1      34.542 -22.544 -18.848  0.00  0.00    +0.020 C 
BRANCH  19  20
ATOM     20  C   UNL     1      34.843 -22.448 -17.356  0.00  0.00    +0.101 C 
BRANCH  20  23
ATOM     21  O   UNL     1      31.891 -22.358 -17.548  0.00  0.00    -0.274 OA
ATOM     22  O   UNL     1      35.323 -24.255 -15.096  0.00  0.00    -0.274 OA
ATOM     23  N   UNL     1      33.860 -23.143 -16.548  0.00  0.00    -0.230 N 
ATOM     24  C   UNL     1      31.867 -24.101 -15.850  0.00  0.00    +0.086 C 
ATOM     25  C   UNL     1      32.922 -24.300 -14.755  0.00  0.00    +0.086 C 
ATOM     26  C   UNL     1      30.459 -23.763 -15.373  0.00  0.00    +0.010 C 
ATOM     27  C   UNL     1      32.768 -23.376 -13.543  0.00  0.00    +0.010 C 
ATOM     28  C   UNL     1      30.433 -22.773 -14.217  0.00  0.00    +0.001 C 
ATOM     29  C   UNL     1      31.325 -23.247 -13.077  0.00  0.00    +0.001 C 
ATOM     30  C   UNL     1      32.496 -23.063 -16.755  0.00  0.00    +0.231 C 
ATOM     31  C   UNL     1      34.203 -23.940 -15.473  0.00  0.00    +0.231 C 
ENDBRANCH  20  23
ENDBRANCH  19  20
ENDBRANCH  18  19
ENDBRANCH  17  18
ENDBRANCH   2  17
TORSDOF 5
ENDMDL
MODEL 5
REMARK VINA RESULT:     -10.6      6.951     11.022
REMARK  Name = 115368
REMARK  5 active torsions:
REMARK  status: ('A' for Active; 'I' for Inactive)
REMARK    1  A    between atoms: N_2  and  C_17
REMARK    2  A    between atoms: C_17  and  C_18
REMARK    3  A    between atoms: C_18  and  C_19
REMARK    4  A    between atoms: C_19  and  C_20
REMARK    5  A    between atoms: C_20  and  N_23
REMARK                            x       y       z     vdW  Elec       q    Type
REMARK                         _______ _______ _______ _____ _____    ______ ____
ROOT
ATOM      1  S   UNL     1      31.201  -2.674 -23.650  0.00  0.00    +0.014 S 
ATOM      2  N   UNL     1      31.561  -8.817 -21.210  0.00  0.00    +0.389 N 
ATOM      3  N   UNL     1      31.422  -6.252 -22.463  0.00  0.00    -0.297 N 
ATOM      4  N   UNL     1      30.833  -3.948 -22.658  0.00  0.00    -0.194 NA
ATOM      5  C   UNL     1      31.680  -8.689 -22.668  0.00  0.00    -0.055 C 
ATOM      6  C   UNL     1      32.119  -7.629 -20.550  0.00  0.00    -0.055 C 
ATOM      7  C   UNL     1      30.950  -7.443 -23.178  0.00  0.00    +0.069 C 
ATOM      8  C   UNL     1      31.383  -6.366 -21.000  0.00  0.00    +0.069 C 
ATOM      9  C   UNL     1      31.506  -5.022 -23.077  0.00  0.00    +0.140 A 
ATOM     10  C   UNL     1      32.352  -4.855 -24.227  0.00  0.00    +0.040 A 
ATOM     11  C   UNL     1      32.281  -3.535 -24.677  0.00  0.00    +0.050 A 
ATOM     12  C   UNL     1      33.187  -5.758 -24.923  0.00  0.00    +0.003 C 
ATOM     13  C   UNL     1      33.007  -3.083 -25.790  0.00  0.00    +0.008 C 
ATOM     14  C   UNL     1      33.914  -5.318 -26.032  0.00  0.00    +0.000 C 
ATOM     15  C   UNL     1      33.824  -3.998 -26.459  0.00  0.00    +0.001 C 
ATOM     16  H   UNL     1      30.572  -8.889 -20.968  0.00  0.00    -0.080 HD
ENDROOT
BRANCH   2  17
ATOM     17  C   UNL     1      32.234 -10.029 -20.743  0.00  0.00    -0.077 C 
BRANCH  17  18
ATOM     18  C   UNL     1      31.597 -11.267 -21.372  0.00  0.00    -0.021 C 
BRANCH  18  19
ATOM     19  C   UNL     1      32.652 -12.151 -22.045  0.00  0.00    +0.020 C 
BRANCH  19  20
ATOM     20  C   UNL     1      32.422 -13.636 -21.787  0.00  0.00    +0.101 C 
BRANCH  20  23
ATOM     21  O   UNL     1      32.961 -14.462 -24.577  0.00  0.00    -0.274 OA
ATOM     22  O   UNL     1      34.578 -14.920 -20.269  0.00  0.00    -0.274 OA
ATOM     23  N   UNL     1      33.501 -14.459 -22.297  0.00  0.00    -0.230 N 
ATOM     24  C   UNL     1      35.031 -15.432 -23.743  0.00  0.00    +0.086 C 
ATOM     25  C   UNL     1      35.252 -15.998 -22.335  0.00  0.00    +0.086 C 
ATOM     26  C   UNL     1      35.153 -16.425 -24.893  0.00  0.00    +0.010 C 
ATOM     27  C   UNL     1      34.720 -17.420 -22.127  0.00  0.00    +0.010 C 
ATOM     28  C   UNL     1      34.516 -17.776 -24.597  0.00  0.00    +0.001 C 
ATOM     29  C   UNL     1      35.043 -18.348 -23.288  0.00  0.00    +0.001 C 
ATOM     30  C   UNL     1      33.685 -14.747 -23.636  0.00  0.00    +0.231 C 
ATOM     31  C   UNL     1      34.442 -15.052 -21.477  0.00  0.00    +0.231 C 
ENDBRANCH  20  23
ENDBRANCH  19  20
ENDBRANCH  18  19
ENDBRANCH  17  18
ENDBRANCH   2  17
TORSDOF 5
ENDMDL
MODEL 6
REMARK VINA RESULT:     -10.4      3.879     10.940
REMARK  Name = 115368
REMARK  5 active torsions:
REMARK  status: ('A' for Active; 'I' for Inactive)
REMARK    1  A    between atoms: N_2  and  C_17
REMARK    2  A    between atoms: C_17  and  C_18
REMARK    3  A    between atoms: C_18  and  C_19
REMARK    4  A    between atoms: C_19  and  C_20
REMARK    5  A    between atoms: C_20  and  N_23
REMARK                            x       y       z     vdW  Elec       q    Type
REMARK                         _______ _______ _______ _____ _____    ______ ____
ROOT
ATOM      1  S   UNL     1      35.650 -24.657 -12.805  0.00  0.00    +0.014 S 
ATOM      2  N   UNL     1      35.926 -21.321 -18.516  0.00  0.00    +0.389 N 
ATOM      3  N   UNL     1      36.015 -22.704 -16.017  0.00  0.00    -0.297 N 
ATOM      4  N   UNL     1      35.127 -23.657 -14.017  0.00  0.00    -0.194 NA
ATOM      5  C   UNL     1      37.169 -21.380 -17.738  0.00  0.00    -0.055 C 
ATOM      6  C   UNL     1      35.140 -22.544 -18.308  0.00  0.00    -0.055 C 
ATOM      7  C   UNL     1      36.882 -21.543 -16.242  0.00  0.00    +0.069 C 
ATOM      8  C   UNL     1      34.793 -22.717 -16.829  0.00  0.00    +0.069 C 
ATOM      9  C   UNL     1      36.125 -23.485 -14.887  0.00  0.00    +0.140 A 
ATOM     10  C   UNL     1      37.363 -24.160 -14.604  0.00  0.00    +0.040 A 
ATOM     11  C   UNL     1      37.241 -24.888 -13.418  0.00  0.00    +0.050 A 
ATOM     12  C   UNL     1      38.595 -24.198 -15.294  0.00  0.00    +0.003 C 
ATOM     13  C   UNL     1      38.299 -25.648 -12.896  0.00  0.00    +0.008 C 
ATOM     14  C   UNL     1      39.654 -24.953 -14.782  0.00  0.00    +0.000 C 
ATOM     15  C   UNL     1      39.506 -25.668 -13.598  0.00  0.00    +0.001 C 
ATOM     16  H   UNL     1      35.378 -20.523 -18.195  0.00  0.00    -0.080 HD
ENDROOT
BRANCH   2  17
ATOM     17  C   UNL     1      36.217 -21.132 -19.937  0.00  0.00    -0.077 C 
BRANCH  17  18
ATOM     18  C   UNL     1      35.208 -20.171 -20.563  0.00  0.00    -0.021 C 
BRANCH  18  19
ATOM     19  C   UNL     1      35.904 -19.154 -21.473  0.00  0.00    +0.020 C 
BRANCH  19  20
ATOM     20  C   UNL     1      34.963 -18.560 -22.516  0.00  0.00    +0.101 C 
BRANCH  20  23
ATOM     21  O   UNL     1      34.507 -16.797 -20.184  0.00  0.00    -0.274 OA
ATOM     22  O   UNL     1      35.286 -16.676 -24.740  0.00  0.00    -0.274 OA
ATOM     23  N   UNL     1      34.928 -17.112 -22.468  0.00  0.00    -0.230 N 
ATOM     24  C   UNL     1      35.002 -14.935 -21.671  0.00  0.00    +0.086 C 
ATOM     25  C   UNL     1      34.740 -14.901 -23.181  0.00  0.00    +0.086 C 
ATOM     26  C   UNL     1      34.232 -13.923 -20.831  0.00  0.00    +0.010 C 
ATOM     27  C   UNL     1      33.292 -14.585 -23.572  0.00  0.00    +0.010 C 
ATOM     28  C   UNL     1      32.782 -13.756 -21.265  0.00  0.00    +0.001 C 
ATOM     29  C   UNL     1      32.693 -13.450 -22.754  0.00  0.00    +0.001 C 
ATOM     30  C   UNL     1      34.751 -16.383 -21.307  0.00  0.00    +0.231 C 
ATOM     31  C   UNL     1      35.050 -16.322 -23.595  0.00  0.00    +0.231 C 
ENDBRANCH  20  23
ENDBRANCH  19  20
ENDBRANCH  18  19
ENDBRANCH  17  18
ENDBRANCH   2  17
TORSDOF 5
ENDMDL
MODEL 7
REMARK VINA RESULT:     -10.4      7.293     10.804
REMARK  Name = 115368
REMARK  5 active torsions:
REMARK  status: ('A' for Active; 'I' for Inactive)
REMARK    1  A    between atoms: N_2  and  C_17
REMARK    2  A    between atoms: C_17  and  C_18
REMARK    3  A    between atoms: C_18  and  C_19
REMARK    4  A    between atoms: C_19  and  C_20
REMARK    5  A    between atoms: C_20  and  N_23
REMARK                            x       y       z     vdW  Elec       q    Type
REMARK                         _______ _______ _______ _____ _____    ______ ____
ROOT
ATOM      1  S   UNL     1      34.077  -5.528 -25.402  0.00  0.00    +0.014 S 
ATOM      2  N   UNL     1      32.213  -9.584 -20.514  0.00  0.00    +0.389 N 
ATOM      3  N   UNL     1      32.983  -7.666 -22.488  0.00  0.00    -0.297 N 
ATOM      4  N   UNL     1      34.115  -6.869 -24.430  0.00  0.00    -0.194 NA
ATOM      5  C   UNL     1      32.142  -8.146 -20.227  0.00  0.00    -0.055 C 
ATOM      6  C   UNL     1      31.953  -9.830 -21.939  0.00  0.00    -0.055 C 
ATOM      7  C   UNL     1      33.157  -7.362 -21.064  0.00  0.00    +0.069 C 
ATOM      8  C   UNL     1      32.978  -9.099 -22.807  0.00  0.00    +0.069 C 
ATOM      9  C   UNL     1      33.205  -6.722 -23.465  0.00  0.00    +0.140 A 
ATOM     10  C   UNL     1      32.436  -5.507 -23.473  0.00  0.00    +0.040 A 
ATOM     11  C   UNL     1      32.830  -4.707 -24.547  0.00  0.00    +0.050 A 
ATOM     12  C   UNL     1      31.413  -5.034 -22.621  0.00  0.00    +0.003 C 
ATOM     13  C   UNL     1      32.246  -3.457 -24.802  0.00  0.00    +0.008 C 
ATOM     14  C   UNL     1      30.825  -3.790 -22.866  0.00  0.00    +0.000 C 
ATOM     15  C   UNL     1      31.237  -3.013 -23.943  0.00  0.00    +0.001 C 
ATOM     16  H   UNL     1      33.152  -9.916 -20.292  0.00  0.00    -0.080 HD
ENDROOT
BRANCH   2  17
ATOM     17  C   UNL     1      31.260 -10.322 -19.683  0.00  0.00    -0.077 C 
BRANCH  17  18
ATOM     18  C   UNL     1      31.084 -11.744 -20.213  0.00  0.00    -0.021 C 
BRANCH  18  19
ATOM     19  C   UNL     1      32.257 -12.638 -19.797  0.00  0.00    +0.020 C 
BRANCH  19  20
ATOM     20  C   UNL     1      32.213 -14.009 -20.464  0.00  0.00    +0.101 C 
BRANCH  20  23
ATOM     21  O   UNL     1      31.978 -12.913 -23.202  0.00  0.00    -0.274 OA
ATOM     22  O   UNL     1      34.785 -15.418 -20.513  0.00  0.00    -0.274 OA
ATOM     23  N   UNL     1      33.148 -14.117 -21.567  0.00  0.00    -0.230 N 
ATOM     24  C   UNL     1      34.254 -13.698 -23.562  0.00  0.00    +0.086 C 
ATOM     25  C   UNL     1      34.901 -14.911 -22.883  0.00  0.00    +0.086 C 
ATOM     26  C   UNL     1      34.098 -13.779 -25.076  0.00  0.00    +0.010 C 
ATOM     27  C   UNL     1      34.535 -16.263 -23.504  0.00  0.00    +0.010 C 
ATOM     28  C   UNL     1      33.653 -15.150 -25.566  0.00  0.00    +0.001 C 
ATOM     29  C   UNL     1      34.565 -16.243 -25.024  0.00  0.00    +0.001 C 
ATOM     30  C   UNL     1      32.957 -13.523 -22.800  0.00  0.00    +0.231 C 
ATOM     31  C   UNL     1      34.317 -14.849 -21.489  0.00  0.00    +0.231 C 
ENDBRANCH  20  23
ENDBRANCH  19  20
ENDBRANCH  18  19
ENDBRANCH  17  18
ENDBRANCH   2  17
TORSDOF 5
ENDMDL
MODEL 8
REMARK VINA RESULT:     -10.3      3.905     10.675
REMARK  Name = 115368
REMARK  5 active torsions:
REMARK  status: ('A' for Active; 'I' for Inactive)
REMARK    1  A    between atoms: N_2  and  C_17
REMARK    2  A    between atoms: C_17  and  C_18
REMARK    3  A    between atoms: C_18  and  C_19
REMARK    4  A    between atoms: C_19  and  C_20
REMARK    5  A    between atoms: C_20  and  N_23
REMARK                            x       y       z     vdW  Elec       q    Type
REMARK                         _______ _______ _______ _____ _____    ______ ____
ROOT
ATOM      1  S   UNL     1      35.326 -24.633 -14.244  0.00  0.00    +0.014 S 
ATOM      2  N   UNL     1      34.645 -21.251 -19.894  0.00  0.00    +0.389 N 
ATOM      3  N   UNL     1      34.731 -22.775 -17.477  0.00  0.00    -0.297 N 
ATOM      4  N   UNL     1      35.752 -24.038 -15.730  0.00  0.00    -0.194 NA
ATOM      5  C   UNL     1      33.447 -21.942 -19.402  0.00  0.00    -0.055 C 
ATOM      6  C   UNL     1      35.480 -20.819 -18.764  0.00  0.00    -0.055 C 
ATOM      7  C   UNL     1      33.817 -23.164 -18.556  0.00  0.00    +0.069 C 
ATOM      8  C   UNL     1      35.909 -22.020 -17.921  0.00  0.00    +0.069 C 
ATOM      9  C   UNL     1      34.706 -23.390 -16.245  0.00  0.00    +0.140 A 
ATOM     10  C   UNL     1      33.507 -23.350 -15.452  0.00  0.00    +0.040 A 
ATOM     11  C   UNL     1      33.713 -24.033 -14.252  0.00  0.00    +0.050 A 
ATOM     12  C   UNL     1      32.242 -22.765 -15.684  0.00  0.00    +0.003 C 
ATOM     13  C   UNL     1      32.709 -24.156 -13.279  0.00  0.00    +0.008 C 
ATOM     14  C   UNL     1      31.236 -22.881 -14.721  0.00  0.00    +0.000 C 
ATOM     15  C   UNL     1      31.468 -23.569 -13.535  0.00  0.00    +0.001 C 
ATOM     16  H   UNL     1      35.184 -21.900 -20.467  0.00  0.00    -0.080 HD
ENDROOT
BRANCH   2  17
ATOM     17  C   UNL     1      34.274 -20.107 -20.726  0.00  0.00    -0.077 C 
BRANCH  17  18
ATOM     18  C   UNL     1      35.524 -19.429 -21.284  0.00  0.00    -0.021 C 
BRANCH  18  19
ATOM     19  C   UNL     1      35.250 -18.812 -22.660  0.00  0.00    +0.020 C 
BRANCH  19  20
ATOM     20  C   UNL     1      35.906 -17.445 -22.830  0.00  0.00    +0.101 C 
BRANCH  20  23
ATOM     21  O   UNL     1      35.083 -16.372 -25.462  0.00  0.00    -0.274 OA
ATOM     22  O   UNL     1      34.334 -15.860 -20.928  0.00  0.00    -0.274 OA
ATOM     23  N   UNL     1      34.942 -16.403 -23.123  0.00  0.00    -0.230 N 
ATOM     24  C   UNL     1      33.417 -15.072 -24.256  0.00  0.00    +0.086 C 
ATOM     25  C   UNL     1      33.552 -14.556 -22.818  0.00  0.00    +0.086 C 
ATOM     26  C   UNL     1      33.305 -14.010 -25.343  0.00  0.00    +0.010 C 
ATOM     27  C   UNL     1      34.384 -13.278 -22.673  0.00  0.00    +0.010 C 
ATOM     28  C   UNL     1      34.239 -12.826 -25.131  0.00  0.00    +0.001 C 
ATOM     29  C   UNL     1      34.063 -12.239 -23.737  0.00  0.00    +0.001 C 
ATOM     30  C   UNL     1      34.598 -16.008 -24.403  0.00  0.00    +0.231 C 
ATOM     31  C   UNL     1      34.289 -15.688 -22.138  0.00  0.00    +0.231 C 
ENDBRANCH  20  23
ENDBRANCH  19  20
ENDBRANCH  18  19
ENDBRANCH  17  18
ENDBRANCH   2  17
TORSDOF 5
ENDMDL
MODEL 9
REMARK VINA RESULT:     -10.2      4.295     10.381
REMARK  Name = 115368
REMARK  5 active torsions:
REMARK  status: ('A' for Active; 'I' for Inactive)
REMARK    1  A    between atoms: N_2  and  C_17
REMARK    2  A    between atoms: C_17  and  C_18
REMARK    3  A    between atoms: C_18  and  C_19
REMARK    4  A    between atoms: C_19  and  C_20
REMARK    5  A    between atoms: C_20  and  N_23
REMARK                            x       y       z     vdW  Elec       q    Type
REMARK                         _______ _______ _______ _____ _____    ______ ____
ROOT
ATOM      1  S   UNL     1      36.966 -21.301 -18.821  0.00  0.00    +0.014 S 
ATOM      2  N   UNL     1      35.408 -17.218 -23.793  0.00  0.00    +0.389 N 
ATOM      3  N   UNL     1      35.923 -19.114 -21.717  0.00  0.00    -0.297 N 
ATOM      4  N   UNL     1      37.227 -20.248 -20.072  0.00  0.00    -0.194 NA
ATOM      5  C   UNL     1      34.582 -18.424 -23.660  0.00  0.00    -0.055 C 
ATOM      6  C   UNL     1      35.875 -16.775 -22.471  0.00  0.00    -0.055 C 
ATOM      7  C   UNL     1      35.363 -19.562 -22.996  0.00  0.00    +0.069 C 
ATOM      8  C   UNL     1      36.700 -17.871 -21.796  0.00  0.00    +0.069 C 
ATOM      9  C   UNL     1      36.054 -19.966 -20.643  0.00  0.00    +0.140 A 
ATOM     10  C   UNL     1      34.888 -20.598 -20.086  0.00  0.00    +0.040 A 
ATOM     11  C   UNL     1      35.260 -21.410 -19.013  0.00  0.00    +0.050 A 
ATOM     12  C   UNL     1      33.521 -20.526 -20.434  0.00  0.00    +0.003 C 
ATOM     13  C   UNL     1      34.323 -22.151 -18.277  0.00  0.00    +0.008 C 
ATOM     14  C   UNL     1      32.580 -21.261 -19.707  0.00  0.00    +0.000 C 
ATOM     15  C   UNL     1      32.978 -22.062 -18.643  0.00  0.00    +0.001 C 
ATOM     16  H   UNL     1      36.222 -17.441 -24.367  0.00  0.00    -0.080 HD
ENDROOT
BRANCH   2  17
ATOM     17  C   UNL     1      34.659 -16.152 -24.457  0.00  0.00    -0.077 C 
BRANCH  17  18
ATOM     18  C   UNL     1      33.876 -15.334 -23.432  0.00  0.00    -0.021 C 
BRANCH  18  19
ATOM     19  C   UNL     1      33.545 -13.939 -23.974  0.00  0.00    +0.020 C 
BRANCH  19  20
ATOM     20  C   UNL     1      34.136 -12.823 -23.120  0.00  0.00    +0.101 C 
BRANCH  20  23
ATOM     21  O   UNL     1      33.683  -9.914 -23.417  0.00  0.00    -0.274 OA
ATOM     22  O   UNL     1      32.043 -13.649 -21.239  0.00  0.00    -0.274 OA
ATOM     23  N   UNL     1      33.115 -11.997 -22.506  0.00  0.00    -0.230 N 
ATOM     24  C   UNL     1      31.665 -10.234 -22.095  0.00  0.00    +0.086 C 
ATOM     25  C   UNL     1      31.461 -11.304 -21.016  0.00  0.00    +0.086 C 
ATOM     26  C   UNL     1      31.618  -8.786 -21.622  0.00  0.00    +0.010 C 
ATOM     27  C   UNL     1      32.076 -10.965 -19.654  0.00  0.00    +0.010 C 
ATOM     28  C   UNL     1      32.332  -8.558 -20.296  0.00  0.00    +0.001 C 
ATOM     29  C   UNL     1      31.824  -9.524 -19.234  0.00  0.00    +0.001 C 
ATOM     30  C   UNL     1      32.966 -10.645 -22.752  0.00  0.00    +0.231 C 
ATOM     31  C   UNL     1      32.201 -12.490 -21.594  0.00  0.00    +0.231 C 
ENDBRANCH  20  23
ENDBRANCH  19  20
ENDBRANCH  18  19
ENDBRANCH  17  18
ENDBRANCH   2  17
TORSDOF 5
ENDMDL
