MODEL 1
REMARK VINA RESULT:     -13.5      0.000      0.000
REMARK  Name = 10200813
REMARK  4 active torsions:
REMARK  status: ('A' for Active; 'I' for Inactive)
REMARK    1  A    between atoms: C_3  and  C_24
REMARK    2  A    between atoms: C_8  and  C_11
REMARK    3  A    between atoms: N_10  and  C_16
REMARK    4  A    between atoms: C_24  and  C_26
REMARK                            x       y       z     vdW  Elec       q    Type
REMARK                         _______ _______ _______ _____ _____    ______ ____
ROOT
ATOM      1  O   UNL     1      34.927 -17.277 -24.495  0.00  0.00    -0.265 OA
ATOM      2  N   UNL     1      34.755 -15.784 -22.687  0.00  0.00    -0.272 N 
ATOM      3  C   UNL     1      33.137 -13.733 -21.436  0.00  0.00    +0.008 C 
ATOM      4  C   UNL     1      33.006 -14.068 -22.930  0.00  0.00    +0.022 C 
ATOM      5  C   UNL     1      33.626 -14.963 -20.656  0.00  0.00    +0.022 C 
ATOM      6  C   UNL     1      34.309 -14.643 -23.483  0.00  0.00    +0.094 C 
ATOM      7  C   UNL     1      34.915 -15.523 -21.253  0.00  0.00    +0.094 C 
ATOM      8  C   UNL     1      35.037 -16.992 -23.309  0.00  0.00    +0.303 C 
ENDROOT
BRANCH   8  11
ATOM      9  O   UNL     1      36.739 -18.286 -22.443  0.00  0.00    -0.265 OA
ATOM     10  N   UNL     1      34.521 -18.698 -21.728  0.00  0.00    -0.277 N 
ATOM     11  C   UNL     1      35.533 -18.079 -22.434  0.00  0.00    +0.303 C 
ATOM     12  H   UNL     1      33.609 -18.357 -21.882  0.00  0.00    +0.155 HD
BRANCH  10  16
ATOM     13  O   UNL     1      32.672 -22.032 -18.694  0.00  0.00    -0.407 OA
ATOM     14  O   UNL     1      32.855 -23.783 -17.194  0.00  0.00    -0.223 OA
ATOM     15  N   UNL     1      34.756 -22.840 -18.157  0.00  0.00    -0.287 N 
ATOM     16  C   UNL     1      34.647 -19.766 -20.811  0.00  0.00    +0.054 C 
ATOM     17  C   UNL     1      33.498 -20.310 -20.250  0.00  0.00    +0.054 C 
ATOM     18  C   UNL     1      35.928 -20.242 -20.499  0.00  0.00    +0.016 C 
ATOM     19  C   UNL     1      33.676 -21.350 -19.363  0.00  0.00    +0.167 A 
ATOM     20  C   UNL     1      34.933 -21.820 -19.053  0.00  0.00    +0.096 A 
ATOM     21  C   UNL     1      36.085 -21.297 -19.597  0.00  0.00    +0.022 C 
ATOM     22  C   UNL     1      33.394 -22.972 -17.936  0.00  0.00    +0.419 A 
ATOM     23  H   UNL     1      35.467 -23.382 -17.743  0.00  0.00    +0.172 HD
ENDBRANCH  10  16
ENDBRANCH   8  11
BRANCH   3  24
ATOM     24  C   UNL     1      31.811 -13.225 -20.875  0.00  0.00    +0.026 C 
BRANCH  24  26
ATOM     25  F   UNL     1      31.976  -7.703 -19.841  0.00  0.00    -0.204 F 
ATOM     26  C   UNL     1      31.856 -11.748 -20.598  0.00  0.00    -0.022 C 
ATOM     27  C   UNL     1      31.852 -11.297 -19.285  0.00  0.00    -0.002 C 
ATOM     28  C   UNL     1      31.899 -10.854 -21.660  0.00  0.00    -0.002 C 
ATOM     29  C   UNL     1      31.893  -9.926 -19.029  0.00  0.00    +0.029 C 
ATOM     30  C   UNL     1      31.941  -9.483 -21.403  0.00  0.00    +0.029 C 
ATOM     31  C   UNL     1      31.938  -9.020 -20.088  0.00  0.00    +0.140 C 
ENDBRANCH  24  26
ENDBRANCH   3  24
TORSDOF 4
ENDMDL
MODEL 2
REMARK VINA RESULT:     -12.1      4.313      7.155
REMARK  Name = 10200813
REMARK  4 active torsions:
REMARK  status: ('A' for Active; 'I' for Inactive)
REMARK    1  A    between atoms: C_3  and  C_24
REMARK    2  A    between atoms: C_8  and  C_11
REMARK    3  A    between atoms: N_10  and  C_16
REMARK    4  A    between atoms: C_24  and  C_26
REMARK                            x       y       z     vdW  Elec       q    Type
REMARK                         _______ _______ _______ _____ _____    ______ ____
ROOT
ATOM      1  O   UNL     1      32.040 -21.913 -17.826  0.00  0.00    -0.265 OA
ATOM      2  N   UNL     1      33.819 -21.698 -19.347  0.00  0.00    -0.272 N 
ATOM      3  C   UNL     1      35.373 -19.853 -20.952  0.00  0.00    +0.008 C 
ATOM      4  C   UNL     1      33.952 -19.514 -20.477  0.00  0.00    +0.022 C 
ATOM      5  C   UNL     1      36.040 -20.833 -19.974  0.00  0.00    +0.022 C 
ATOM      6  C   UNL     1      33.128 -20.780 -20.250  0.00  0.00    +0.094 C 
ATOM      7  C   UNL     1      35.177 -22.073 -19.755  0.00  0.00    +0.094 C 
ATOM      8  C   UNL     1      33.167 -22.182 -18.223  0.00  0.00    +0.303 C 
ENDROOT
BRANCH   8  11
ATOM      9  O   UNL     1      33.621 -24.328 -17.507  0.00  0.00    -0.265 OA
ATOM     10  N   UNL     1      34.875 -22.537 -16.602  0.00  0.00    -0.277 N 
ATOM     11  C   UNL     1      33.923 -23.147 -17.392  0.00  0.00    +0.303 C 
ATOM     12  H   UNL     1      34.943 -21.557 -16.676  0.00  0.00    +0.155 HD
BRANCH  10  16
ATOM     13  O   UNL     1      35.849 -25.368 -12.757  0.00  0.00    -0.407 OA
ATOM     14  O   UNL     1      37.285 -26.402 -11.267  0.00  0.00    -0.223 OA
ATOM     15  N   UNL     1      38.116 -25.058 -12.980  0.00  0.00    -0.287 N 
ATOM     16  C   UNL     1      35.764 -23.161 -15.696  0.00  0.00    +0.054 C 
ATOM     17  C   UNL     1      35.243 -23.956 -14.683  0.00  0.00    +0.054 C 
ATOM     18  C   UNL     1      37.142 -22.957 -15.852  0.00  0.00    +0.016 C 
ATOM     19  C   UNL     1      36.151 -24.543 -13.829  0.00  0.00    +0.167 A 
ATOM     20  C   UNL     1      37.507 -24.345 -13.978  0.00  0.00    +0.096 A 
ATOM     21  C   UNL     1      38.045 -23.561 -14.974  0.00  0.00    +0.022 C 
ATOM     22  C   UNL     1      37.121 -25.677 -12.241  0.00  0.00    +0.419 A 
ATOM     23  H   UNL     1      39.085 -25.121 -12.817  0.00  0.00    +0.172 HD
ENDBRANCH  10  16
ENDBRANCH   8  11
BRANCH   3  24
ATOM     24  C   UNL     1      36.211 -18.586 -21.108  0.00  0.00    +0.026 C 
BRANCH  24  26
ATOM     25  F   UNL     1      33.728 -14.866 -24.512  0.00  0.00    -0.204 F 
ATOM     26  C   UNL     1      35.546 -17.591 -22.019  0.00  0.00    -0.022 C 
ATOM     27  C   UNL     1      35.433 -17.872 -23.373  0.00  0.00    -0.002 C 
ATOM     28  C   UNL     1      35.055 -16.403 -21.493  0.00  0.00    -0.002 C 
ATOM     29  C   UNL     1      34.816 -16.949 -24.218  0.00  0.00    +0.029 C 
ATOM     30  C   UNL     1      34.438 -15.480 -22.337  0.00  0.00    +0.029 C 
ATOM     31  C   UNL     1      34.319 -15.753 -23.700  0.00  0.00    +0.140 C 
ENDBRANCH  24  26
ENDBRANCH   3  24
TORSDOF 4
ENDMDL
MODEL 3
REMARK VINA RESULT:     -11.7      1.705      2.394
REMARK  Name = 10200813
REMARK  4 active torsions:
REMARK  status: ('A' for Active; 'I' for Inactive)
REMARK    1  A    between atoms: C_3  and  C_24
REMARK    2  A    between atoms: C_8  and  C_11
REMARK    3  A    between atoms: N_10  and  C_16
REMARK    4  A    between atoms: C_24  and  C_26
REMARK                            x       y       z     vdW  Elec       q    Type
REMARK                         _______ _______ _______ _____ _____    ______ ____
ROOT
ATOM      1  O   UNL     1      35.482 -19.446 -23.418  0.00  0.00    -0.265 OA
ATOM      2  N   UNL     1      35.383 -17.380 -22.300  0.00  0.00    -0.272 N 
ATOM      3  C   UNL     1      34.027 -14.827 -22.129  0.00  0.00    +0.008 C 
ATOM      4  C   UNL     1      33.999 -15.673 -23.411  0.00  0.00    +0.022 C 
ATOM      5  C   UNL     1      34.205 -15.731 -20.899  0.00  0.00    +0.022 C 
ATOM      6  C   UNL     1      35.232 -16.570 -23.507  0.00  0.00    +0.094 C 
ATOM      7  C   UNL     1      35.432 -16.628 -21.043  0.00  0.00    +0.094 C 
ATOM      8  C   UNL     1      35.513 -18.757 -22.406  0.00  0.00    +0.303 C 
ENDROOT
BRANCH   8  11
ATOM      9  O   UNL     1      36.786 -19.333 -20.569  0.00  0.00    -0.265 OA
ATOM     10  N   UNL     1      34.623 -20.267 -20.792  0.00  0.00    -0.277 N 
ATOM     11  C   UNL     1      35.714 -19.495 -21.137  0.00  0.00    +0.303 C 
ATOM     12  H   UNL     1      33.857 -20.242 -21.410  0.00  0.00    +0.155 HD
BRANCH  10  16
ATOM     13  O   UNL     1      31.963 -22.606 -17.446  0.00  0.00    -0.407 OA
ATOM     14  O   UNL     1      31.712 -23.953 -15.583  0.00  0.00    -0.223 OA
ATOM     15  N   UNL     1      33.833 -23.434 -16.397  0.00  0.00    -0.287 N 
ATOM     16  C   UNL     1      34.484 -21.090 -19.651  0.00  0.00    +0.054 C 
ATOM     17  C   UNL     1      33.208 -21.384 -19.185  0.00  0.00    +0.054 C 
ATOM     18  C   UNL     1      35.639 -21.583 -19.028  0.00  0.00    +0.016 C 
ATOM     19  C   UNL     1      33.128 -22.191 -18.071  0.00  0.00    +0.167 A 
ATOM     20  C   UNL     1      34.260 -22.678 -17.456  0.00  0.00    +0.096 A 
ATOM     21  C   UNL     1      35.534 -22.400 -17.900  0.00  0.00    +0.022 C 
ATOM     22  C   UNL     1      32.448 -23.394 -16.386  0.00  0.00    +0.419 A 
ATOM     23  H   UNL     1      34.405 -23.918 -15.758  0.00  0.00    +0.172 HD
ENDBRANCH  10  16
ENDBRANCH   8  11
BRANCH   3  24
ATOM     24  C   UNL     1      32.758 -13.986 -22.006  0.00  0.00    +0.026 C 
BRANCH  24  26
ATOM     25  F   UNL     1      33.629  -8.675 -23.625  0.00  0.00    -0.204 F 
ATOM     26  C   UNL     1      32.991 -12.565 -22.440  0.00  0.00    -0.022 C 
ATOM     27  C   UNL     1      33.891 -12.300 -23.463  0.00  0.00    -0.002 C 
ATOM     28  C   UNL     1      32.303 -11.536 -21.810  0.00  0.00    -0.002 C 
ATOM     29  C   UNL     1      34.106 -10.982 -23.865  0.00  0.00    +0.029 C 
ATOM     30  C   UNL     1      32.518 -10.218 -22.212  0.00  0.00    +0.029 C 
ATOM     31  C   UNL     1      33.420  -9.941 -23.240  0.00  0.00    +0.140 C 
ENDBRANCH  24  26
ENDBRANCH   3  24
TORSDOF 4
ENDMDL
MODEL 4
REMARK VINA RESULT:     -11.6      1.286      1.609
REMARK  Name = 10200813
REMARK  4 active torsions:
REMARK  status: ('A' for Active; 'I' for Inactive)
REMARK    1  A    between atoms: C_3  and  C_24
REMARK    2  A    between atoms: C_8  and  C_11
REMARK    3  A    between atoms: N_10  and  C_16
REMARK    4  A    between atoms: C_24  and  C_26
REMARK                            x       y       z     vdW  Elec       q    Type
REMARK                         _______ _______ _______ _____ _____    ______ ____
ROOT
ATOM      1  O   UNL     1      34.929 -17.179 -24.645  0.00  0.00    -0.265 OA
ATOM      2  N   UNL     1      34.717 -15.605 -22.912  0.00  0.00    -0.272 N 
ATOM      3  C   UNL     1      33.065 -13.508 -21.786  0.00  0.00    +0.008 C 
ATOM      4  C   UNL     1      32.962 -13.914 -23.265  0.00  0.00    +0.022 C 
ATOM      5  C   UNL     1      33.548 -14.698 -20.942  0.00  0.00    +0.022 C 
ATOM      6  C   UNL     1      34.278 -14.505 -23.768  0.00  0.00    +0.094 C 
ATOM      7  C   UNL     1      34.850 -15.276 -21.489  0.00  0.00    +0.094 C 
ATOM      8  C   UNL     1      35.017 -16.838 -23.472  0.00  0.00    +0.303 C 
ENDROOT
BRANCH   8  11
ATOM      9  O   UNL     1      36.714 -18.061 -22.498  0.00  0.00    -0.265 OA
ATOM     10  N   UNL     1      34.481 -18.494 -21.845  0.00  0.00    -0.277 N 
ATOM     11  C   UNL     1      35.504 -17.880 -22.539  0.00  0.00    +0.303 C 
ATOM     12  H   UNL     1      33.568 -18.180 -22.043  0.00  0.00    +0.155 HD
BRANCH  10  16
ATOM     13  O   UNL     1      36.965 -21.044 -18.518  0.00  0.00    -0.407 OA
ATOM     14  O   UNL     1      37.175 -22.719 -16.938  0.00  0.00    -0.223 OA
ATOM     15  N   UNL     1      35.167 -22.406 -18.078  0.00  0.00    -0.287 N 
ATOM     16  C   UNL     1      34.596 -19.524 -20.883  0.00  0.00    +0.054 C 
ATOM     17  C   UNL     1      35.805 -19.690 -20.218  0.00  0.00    +0.054 C 
ATOM     18  C   UNL     1      33.487 -20.342 -20.631  0.00  0.00    +0.016 C 
ATOM     19  C   UNL     1      35.864 -20.706 -19.289  0.00  0.00    +0.167 A 
ATOM     20  C   UNL     1      34.776 -21.513 -19.039  0.00  0.00    +0.096 A 
ATOM     21  C   UNL     1      33.569 -21.366 -19.686  0.00  0.00    +0.022 C 
ATOM     22  C   UNL     1      36.487 -22.128 -17.759  0.00  0.00    +0.419 A 
ATOM     23  H   UNL     1      34.612 -23.118 -17.683  0.00  0.00    +0.172 HD
ENDBRANCH  10  16
ENDBRANCH   8  11
BRANCH   3  24
ATOM     24  C   UNL     1      31.727 -12.984 -21.273  0.00  0.00    +0.026 C 
BRANCH  24  26
ATOM     25  F   UNL     1      32.116  -7.653 -19.537  0.00  0.00    -0.204 F 
ATOM     26  C   UNL     1      31.832 -11.558 -20.808  0.00  0.00    -0.022 C 
ATOM     27  C   UNL     1      31.821 -11.278 -19.448  0.00  0.00    -0.002 C 
ATOM     28  C   UNL     1      31.936 -10.539 -21.746  0.00  0.00    -0.002 C 
ATOM     29  C   UNL     1      31.918  -9.955 -19.018  0.00  0.00    +0.029 C 
ATOM     30  C   UNL     1      32.033  -9.215 -21.315  0.00  0.00    +0.029 C 
ATOM     31  C   UNL     1      32.025  -8.924 -19.951  0.00  0.00    +0.140 C 
ENDBRANCH  24  26
ENDBRANCH   3  24
TORSDOF 4
ENDMDL
MODEL 5
REMARK VINA RESULT:     -11.5      4.266      6.868
REMARK  Name = 10200813
REMARK  4 active torsions:
REMARK  status: ('A' for Active; 'I' for Inactive)
REMARK    1  A    between atoms: C_3  and  C_24
REMARK    2  A    between atoms: C_8  and  C_11
REMARK    3  A    between atoms: N_10  and  C_16
REMARK    4  A    between atoms: C_24  and  C_26
REMARK                            x       y       z     vdW  Elec       q    Type
REMARK                         _______ _______ _______ _____ _____    ______ ____
ROOT
ATOM      1  O   UNL     1      31.897 -11.298 -19.356  0.00  0.00    -0.265 OA
ATOM      2  N   UNL     1      32.152 -10.101 -21.363  0.00  0.00    -0.272 N 
ATOM      3  C   UNL     1      33.319  -7.761 -22.611  0.00  0.00    +0.008 C 
ATOM      4  C   UNL     1      33.053  -7.825 -21.099  0.00  0.00    +0.022 C 
ATOM      5  C   UNL     1      33.549  -9.174 -23.169  0.00  0.00    +0.022 C 
ATOM      6  C   UNL     1      31.908  -8.784 -20.779  0.00  0.00    +0.094 C 
ATOM      7  C   UNL     1      32.397 -10.109 -22.809  0.00  0.00    +0.094 C 
ATOM      8  C   UNL     1      32.096 -11.232 -20.563  0.00  0.00    +0.303 C 
ENDROOT
BRANCH   8  11
ATOM      9  O   UNL     1      31.340 -13.005 -21.831  0.00  0.00    -0.265 OA
ATOM     10  N   UNL     1      33.594 -13.002 -21.110  0.00  0.00    -0.277 N 
ATOM     11  C   UNL     1      32.305 -12.530 -21.247  0.00  0.00    +0.303 C 
ATOM     12  H   UNL     1      34.213 -12.441 -20.587  0.00  0.00    +0.155 HD
BRANCH  10  16
ATOM     13  O   UNL     1      35.215 -17.575 -20.657  0.00  0.00    -0.407 OA
ATOM     14  O   UNL     1      36.081 -19.549 -21.495  0.00  0.00    -0.223 OA
ATOM     15  N   UNL     1      35.646 -17.748 -22.908  0.00  0.00    -0.287 N 
ATOM     16  C   UNL     1      34.126 -14.203 -21.635  0.00  0.00    +0.054 C 
ATOM     17  C   UNL     1      34.377 -15.262 -20.770  0.00  0.00    +0.054 C 
ATOM     18  C   UNL     1      34.380 -14.285 -23.010  0.00  0.00    +0.016 C 
ATOM     19  C   UNL     1      34.893 -16.409 -21.333  0.00  0.00    +0.167 A 
ATOM     20  C   UNL     1      35.145 -16.494 -22.684  0.00  0.00    +0.096 A 
ATOM     21  C   UNL     1      34.904 -15.458 -23.559  0.00  0.00    +0.022 C 
ATOM     22  C   UNL     1      35.690 -18.405 -21.689  0.00  0.00    +0.419 A 
ATOM     23  H   UNL     1      35.924 -18.118 -23.778  0.00  0.00    +0.172 HD
ENDBRANCH  10  16
ENDBRANCH   8  11
BRANCH   3  24
ATOM     24  C   UNL     1      34.509  -6.855 -22.915  0.00  0.00    +0.026 C 
BRANCH  24  26
ATOM     25  F   UNL     1      33.600  -3.706 -27.481  0.00  0.00    -0.204 F 
ATOM     26  C   UNL     1      34.266  -6.012 -24.137  0.00  0.00    -0.022 C 
ATOM     27  C   UNL     1      33.033  -5.397 -24.309  0.00  0.00    -0.002 C 
ATOM     28  C   UNL     1      35.277  -5.861 -25.076  0.00  0.00    -0.002 C 
ATOM     29  C   UNL     1      32.808  -4.615 -25.442  0.00  0.00    +0.029 C 
ATOM     30  C   UNL     1      35.052  -5.079 -26.210  0.00  0.00    +0.029 C 
ATOM     31  C   UNL     1      33.817  -4.456 -26.392  0.00  0.00    +0.140 C 
ENDBRANCH  24  26
ENDBRANCH   3  24
TORSDOF 4
ENDMDL
MODEL 6
REMARK VINA RESULT:     -11.5      4.572     10.136
REMARK  Name = 10200813
REMARK  4 active torsions:
REMARK  status: ('A' for Active; 'I' for Inactive)
REMARK    1  A    between atoms: C_3  and  C_24
REMARK    2  A    between atoms: C_8  and  C_11
REMARK    3  A    between atoms: N_10  and  C_16
REMARK    4  A    between atoms: C_24  and  C_26
REMARK                            x       y       z     vdW  Elec       q    Type
REMARK                         _______ _______ _______ _____ _____    ______ ____
ROOT
ATOM      1  O   UNL     1      37.473 -19.133 -20.393  0.00  0.00    -0.265 OA
ATOM      2  N   UNL     1      35.728 -20.682 -20.108  0.00  0.00    -0.272 N 
ATOM      3  C   UNL     1      34.411 -22.472 -18.250  0.00  0.00    +0.008 C 
ATOM      4  C   UNL     1      35.866 -22.021 -18.046  0.00  0.00    +0.022 C 
ATOM      5  C   UNL     1      33.631 -21.408 -19.037  0.00  0.00    +0.022 C 
ATOM      6  C   UNL     1      36.525 -21.665 -19.377  0.00  0.00    +0.094 C 
ATOM      7  C   UNL     1      34.333 -21.061 -20.348  0.00  0.00    +0.094 C 
ATOM      8  C   UNL     1      36.320 -19.510 -20.557  0.00  0.00    +0.303 C 
ENDROOT
BRANCH   8  11
ATOM      9  O   UNL     1      34.875 -19.071 -22.302  0.00  0.00    -0.265 OA
ATOM     10  N   UNL     1      35.435 -17.314 -20.818  0.00  0.00    -0.277 N 
ATOM     11  C   UNL     1      35.452 -18.594 -21.333  0.00  0.00    +0.303 C 
ATOM     12  H   UNL     1      35.986 -17.157 -20.016  0.00  0.00    +0.155 HD
BRANCH  10  16
ATOM     13  O   UNL     1      32.394 -13.544 -20.282  0.00  0.00    -0.407 OA
ATOM     14  O   UNL     1      31.211 -11.720 -21.070  0.00  0.00    -0.223 OA
ATOM     15  N   UNL     1      32.560 -12.970 -22.501  0.00  0.00    -0.287 N 
ATOM     16  C   UNL     1      34.715 -16.202 -21.313  0.00  0.00    +0.054 C 
ATOM     17  C   UNL     1      33.918 -15.474 -20.439  0.00  0.00    +0.054 C 
ATOM     18  C   UNL     1      34.832 -15.871 -22.670  0.00  0.00    +0.016 C 
ATOM     19  C   UNL     1      33.239 -14.399 -20.972  0.00  0.00    +0.167 A 
ATOM     20  C   UNL     1      33.351 -14.070 -22.305  0.00  0.00    +0.096 A 
ATOM     21  C   UNL     1      34.135 -14.777 -23.189  0.00  0.00    +0.022 C 
ATOM     22  C   UNL     1      31.981 -12.648 -21.285  0.00  0.00    +0.419 A 
ATOM     23  H   UNL     1      32.427 -12.492 -23.353  0.00  0.00    +0.172 HD
ENDBRANCH  10  16
ENDBRANCH   8  11
BRANCH   3  24
ATOM     24  C   UNL     1      33.739 -22.759 -16.910  0.00  0.00    +0.026 C 
BRANCH  24  26
ATOM     25  F   UNL     1      37.381 -24.835 -13.166  0.00  0.00    -0.204 F 
ATOM     26  C   UNL     1      34.714 -23.315 -15.908  0.00  0.00    -0.022 C 
ATOM     27  C   UNL     1      34.756 -24.683 -15.682  0.00  0.00    -0.002 C 
ATOM     28  C   UNL     1      35.557 -22.451 -15.223  0.00  0.00    -0.002 C 
ATOM     29  C   UNL     1      35.661 -25.198 -14.753  0.00  0.00    +0.029 C 
ATOM     30  C   UNL     1      36.462 -22.966 -14.294  0.00  0.00    +0.029 C 
ATOM     31  C   UNL     1      36.514 -24.340 -14.059  0.00  0.00    +0.140 C 
ENDBRANCH  24  26
ENDBRANCH   3  24
TORSDOF 4
ENDMDL
MODEL 7
REMARK VINA RESULT:     -11.2      4.701     10.387
REMARK  Name = 10200813
REMARK  4 active torsions:
REMARK  status: ('A' for Active; 'I' for Inactive)
REMARK    1  A    between atoms: C_3  and  C_24
REMARK    2  A    between atoms: C_8  and  C_11
REMARK    3  A    between atoms: N_10  and  C_16
REMARK    4  A    between atoms: C_24  and  C_26
REMARK                            x       y       z     vdW  Elec       q    Type
REMARK                         _______ _______ _______ _____ _____    ______ ____
ROOT
ATOM      1  O   UNL     1      37.526 -19.258 -20.141  0.00  0.00    -0.265 OA
ATOM      2  N   UNL     1      35.877 -20.905 -19.840  0.00  0.00    -0.272 N 
ATOM      3  C   UNL     1      34.556 -22.634 -17.927  0.00  0.00    +0.008 C 
ATOM      4  C   UNL     1      35.958 -22.060 -17.667  0.00  0.00    +0.022 C 
ATOM      5  C   UNL     1      33.763 -21.699 -18.853  0.00  0.00    +0.022 C 
ATOM      6  C   UNL     1      36.685 -21.764 -18.977  0.00  0.00    +0.094 C 
ATOM      7  C   UNL     1      34.532 -21.407 -20.140  0.00  0.00    +0.094 C 
ATOM      8  C   UNL     1      36.417 -19.733 -20.348  0.00  0.00    +0.303 C 
ENDROOT
BRANCH   8  11
ATOM      9  O   UNL     1      34.877 -19.585 -22.060  0.00  0.00    -0.265 OA
ATOM     10  N   UNL     1      35.634 -17.591 -21.036  0.00  0.00    -0.277 N 
ATOM     11  C   UNL     1      35.546 -18.950 -21.256  0.00  0.00    +0.303 C 
ATOM     12  H   UNL     1      36.248 -17.302 -20.322  0.00  0.00    +0.155 HD
BRANCH  10  16
ATOM     13  O   UNL     1      34.099 -15.380 -25.099  0.00  0.00    -0.407 OA
ATOM     14  O   UNL     1      32.970 -13.717 -26.241  0.00  0.00    -0.223 OA
ATOM     15  N   UNL     1      33.018 -13.735 -23.912  0.00  0.00    -0.287 N 
ATOM     16  C   UNL     1      34.941 -16.566 -21.722  0.00  0.00    +0.054 C 
ATOM     17  C   UNL     1      34.928 -16.578 -23.112  0.00  0.00    +0.054 C 
ATOM     18  C   UNL     1      34.290 -15.574 -20.977  0.00  0.00    +0.016 C 
ATOM     19  C   UNL     1      34.239 -15.558 -23.731  0.00  0.00    +0.167 A 
ATOM     20  C   UNL     1      33.597 -14.581 -23.003  0.00  0.00    +0.096 A 
ATOM     21  C   UNL     1      33.596 -14.550 -21.626  0.00  0.00    +0.022 C 
ATOM     22  C   UNL     1      33.318 -14.213 -25.177  0.00  0.00    +0.419 A 
ATOM     23  H   UNL     1      32.485 -12.933 -23.704  0.00  0.00    +0.172 HD
ENDBRANCH  10  16
ENDBRANCH   8  11
BRANCH   3  24
ATOM     24  C   UNL     1      33.810 -22.861 -16.615  0.00  0.00    +0.026 C 
BRANCH  24  26
ATOM     25  F   UNL     1      37.130 -25.181 -12.718  0.00  0.00    -0.204 F 
ATOM     26  C   UNL     1      34.699 -23.482 -15.572  0.00  0.00    -0.022 C 
ATOM     27  C   UNL     1      34.899 -24.856 -15.574  0.00  0.00    -0.002 C 
ATOM     28  C   UNL     1      35.307 -22.673 -14.622  0.00  0.00    -0.002 C 
ATOM     29  C   UNL     1      35.723 -25.431 -14.606  0.00  0.00    +0.029 C 
ATOM     30  C   UNL     1      36.132 -23.248 -13.655  0.00  0.00    +0.029 C 
ATOM     31  C   UNL     1      36.339 -24.627 -13.647  0.00  0.00    +0.140 C 
ENDBRANCH  24  26
ENDBRANCH   3  24
TORSDOF 4
ENDMDL
MODEL 8
REMARK VINA RESULT:     -11.2      4.989     10.573
REMARK  Name = 10200813
REMARK  4 active torsions:
REMARK  status: ('A' for Active; 'I' for Inactive)
REMARK    1  A    between atoms: C_3  and  C_24
REMARK    2  A    between atoms: C_8  and  C_11
REMARK    3  A    between atoms: N_10  and  C_16
REMARK    4  A    between atoms: C_24  and  C_26
REMARK                            x       y       z     vdW  Elec       q    Type
REMARK                         _______ _______ _______ _____ _____    ______ ____
ROOT
ATOM      1  O   UNL     1      34.200 -13.703 -25.552  0.00  0.00    -0.265 OA
ATOM      2  N   UNL     1      34.005 -15.109 -23.678  0.00  0.00    -0.272 N 
ATOM      3  C   UNL     1      35.070 -17.441 -22.328  0.00  0.00    +0.008 C 
ATOM      4  C   UNL     1      35.272 -17.215 -23.835  0.00  0.00    +0.022 C 
ATOM      5  C   UNL     1      34.907 -16.094 -21.607  0.00  0.00    +0.022 C 
ATOM      6  C   UNL     1      34.150 -16.360 -24.420  0.00  0.00    +0.094 C 
ATOM      7  C   UNL     1      33.794 -15.258 -22.235  0.00  0.00    +0.094 C 
ATOM      8  C   UNL     1      34.029 -13.899 -24.355  0.00  0.00    +0.303 C 
ENDROOT
BRANCH   8  11
ATOM      9  O   UNL     1      33.418 -12.855 -22.390  0.00  0.00    -0.265 OA
ATOM     10  N   UNL     1      34.136 -11.523 -24.210  0.00  0.00    -0.277 N 
ATOM     11  C   UNL     1      33.823 -12.684 -23.532  0.00  0.00    +0.303 C 
ATOM     12  H   UNL     1      34.450 -11.629 -25.138  0.00  0.00    +0.155 HD
BRANCH  10  16
ATOM     13  O   UNL     1      31.889  -7.937 -21.794  0.00  0.00    -0.407 OA
ATOM     14  O   UNL     1      31.735  -5.777 -20.983  0.00  0.00    -0.223 OA
ATOM     15  N   UNL     1      33.594  -6.455 -22.214  0.00  0.00    -0.287 N 
ATOM     16  C   UNL     1      34.054 -10.199 -23.721  0.00  0.00    +0.054 C 
ATOM     17  C   UNL     1      32.934  -9.820 -22.991  0.00  0.00    +0.054 C 
ATOM     18  C   UNL     1      35.106  -9.313 -23.990  0.00  0.00    +0.016 C 
ATOM     19  C   UNL     1      32.904  -8.519 -22.537  0.00  0.00    +0.167 A 
ATOM     20  C   UNL     1      33.936  -7.645 -22.798  0.00  0.00    +0.096 A 
ATOM     21  C   UNL     1      35.054  -7.999 -23.520  0.00  0.00    +0.022 C 
ATOM     22  C   UNL     1      32.361  -6.625 -21.606  0.00  0.00    +0.419 A 
ATOM     23  H   UNL     1      34.128  -5.627 -22.222  0.00  0.00    +0.172 HD
ENDBRANCH  10  16
ENDBRANCH   8  11
BRANCH   3  24
ATOM     24  C   UNL     1      36.232 -18.236 -21.738  0.00  0.00    +0.026 C 
BRANCH  24  26
ATOM     25  F   UNL     1      34.419 -22.562 -18.640  0.00  0.00    -0.204 F 
ATOM     26  C   UNL     1      35.746 -19.394 -20.910  0.00  0.00    -0.022 C 
ATOM     27  C   UNL     1      34.390 -19.686 -20.870  0.00  0.00    -0.002 C 
ATOM     28  C   UNL     1      36.662 -20.155 -20.194  0.00  0.00    -0.002 C 
ATOM     29  C   UNL     1      33.940 -20.760 -20.102  0.00  0.00    +0.029 C 
ATOM     30  C   UNL     1      36.212 -21.229 -19.426  0.00  0.00    +0.029 C 
ATOM     31  C   UNL     1      34.851 -21.531 -19.380  0.00  0.00    +0.140 C 
ENDBRANCH  24  26
ENDBRANCH   3  24
TORSDOF 4
ENDMDL
MODEL 9
REMARK VINA RESULT:     -11.2      4.533      7.616
REMARK  Name = 10200813
REMARK  4 active torsions:
REMARK  status: ('A' for Active; 'I' for Inactive)
REMARK    1  A    between atoms: C_3  and  C_24
REMARK    2  A    between atoms: C_8  and  C_11
REMARK    3  A    between atoms: N_10  and  C_16
REMARK    4  A    between atoms: C_24  and  C_26
REMARK                            x       y       z     vdW  Elec       q    Type
REMARK                         _______ _______ _______ _____ _____    ______ ____
ROOT
ATOM      1  O   UNL     1      31.835 -10.414 -18.845  0.00  0.00    -0.265 OA
ATOM      2  N   UNL     1      32.076  -9.587 -21.032  0.00  0.00    -0.272 N 
ATOM      3  C   UNL     1      33.344  -7.581 -22.695  0.00  0.00    +0.008 C 
ATOM      4  C   UNL     1      33.148  -7.375 -21.185  0.00  0.00    +0.022 C 
ATOM      5  C   UNL     1      33.447  -9.080 -23.017  0.00  0.00    +0.022 C 
ATOM      6  C   UNL     1      31.955  -8.177 -20.668  0.00  0.00    +0.094 C 
ATOM      7  C   UNL     1      32.250  -9.851 -22.464  0.00  0.00    +0.094 C 
ATOM      8  C   UNL     1      31.979 -10.564 -20.052  0.00  0.00    +0.303 C 
ENDROOT
BRANCH   8  11
ATOM      9  O   UNL     1      31.041 -12.637 -20.432  0.00  0.00    -0.265 OA
ATOM     10  N   UNL     1      33.317 -12.300 -20.985  0.00  0.00    -0.277 N 
ATOM     11  C   UNL     1      32.062 -11.968 -20.516  0.00  0.00    +0.303 C 
ATOM     12  H   UNL     1      33.997 -11.588 -20.958  0.00  0.00    +0.155 HD
BRANCH  10  16
ATOM     13  O   UNL     1      34.242 -15.380 -24.646  0.00  0.00    -0.407 OA
ATOM     14  O   UNL     1      34.926 -17.415 -25.507  0.00  0.00    -0.223 OA
ATOM     15  N   UNL     1      34.898 -17.048 -23.206  0.00  0.00    -0.287 N 
ATOM     16  C   UNL     1      33.735 -13.550 -21.498  0.00  0.00    +0.054 C 
ATOM     17  C   UNL     1      33.742 -13.743 -22.874  0.00  0.00    +0.054 C 
ATOM     18  C   UNL     1      34.131 -14.551 -20.601  0.00  0.00    +0.016 C 
ATOM     19  C   UNL     1      34.159 -14.978 -23.322  0.00  0.00    +0.167 A 
ATOM     20  C   UNL     1      34.549 -15.965 -22.444  0.00  0.00    +0.096 A 
ATOM     21  C   UNL     1      34.550 -15.795 -21.077  0.00  0.00    +0.022 C 
ATOM     22  C   UNL     1      34.715 -16.701 -24.535  0.00  0.00    +0.419 A 
ATOM     23  H   UNL     1      35.222 -17.916 -22.871  0.00  0.00    +0.172 HD
ENDBRANCH  10  16
ENDBRANCH   8  11
BRANCH   3  24
ATOM     24  C   UNL     1      34.579  -6.833 -23.189  0.00  0.00    +0.026 C 
BRANCH  24  26
ATOM     25  F   UNL     1      33.342  -3.382 -27.449  0.00  0.00    -0.204 F 
ATOM     26  C   UNL     1      34.248  -5.909 -24.329  0.00  0.00    -0.022 C 
ATOM     27  C   UNL     1      33.021  -5.260 -24.350  0.00  0.00    -0.002 C 
ATOM     28  C   UNL     1      35.174  -5.718 -25.346  0.00  0.00    -0.002 C 
ATOM     29  C   UNL     1      32.715  -4.403 -25.407  0.00  0.00    +0.029 C 
ATOM     30  C   UNL     1      34.868  -4.861 -26.403  0.00  0.00    +0.029 C 
ATOM     31  C   UNL     1      33.638  -4.204 -26.433  0.00  0.00    +0.140 C 
ENDBRANCH  24  26
ENDBRANCH   3  24
TORSDOF 4
ENDMDL
