MODEL 1
REMARK VINA RESULT:     -11.0      0.000      0.000
REMARK  Name = 6852140
REMARK  4 active torsions:
REMARK  status: ('A' for Active; 'I' for Inactive)
REMARK    1  A    between atoms: C_2  and  N_18
REMARK    2  A    between atoms: C_5  and  C_13
REMARK    3  A    between atoms: C_19  and  C_21
REMARK    4  A    between atoms: C_24  and  O_28
REMARK                            x       y       z     vdW  Elec       q    Type
REMARK                         _______ _______ _______ _____ _____    ______ ____
ROOT
ATOM      1  C   UNL     1      31.704 -23.693 -15.225  0.00  0.00    +0.014 C 
ATOM      2  C   UNL     1      33.008 -23.330 -15.603  0.00  0.00    +0.050 C 
ATOM      3  C   UNL     1      31.517 -24.517 -14.090  0.00  0.00    +0.001 C 
ATOM      4  C   UNL     1      30.583 -23.258 -15.951  0.00  0.00    +0.004 C 
ATOM      5  C   UNL     1      29.296 -23.629 -15.562  0.00  0.00    +0.031 C 
ATOM      6  C   UNL     1      30.213 -24.880 -13.712  0.00  0.00    +0.000 C 
ATOM      7  C   UNL     1      34.110 -23.773 -14.871  0.00  0.00    +0.015 C 
ATOM      8  C   UNL     1      32.638 -24.952 -13.364  0.00  0.00    +0.000 C 
ATOM      9  C   UNL     1      29.111 -24.437 -14.445  0.00  0.00    +0.003 C 
ATOM     10  C   UNL     1      33.925 -24.582 -13.754  0.00  0.00    +0.001 C 
ENDROOT
BRANCH   5  13
ATOM     11  N   UNL     1      27.230 -22.268 -15.781  0.00  0.00    -0.343 N 
ATOM     12  N   UNL     1      27.948 -23.613 -17.551  0.00  0.00    -0.285 NA
ATOM     13  C   UNL     1      28.145 -23.170 -16.323  0.00  0.00    +0.117 C 
ATOM     14  H   UNL     1      26.458 -21.970 -16.313  0.00  0.00    +0.144 HD
ATOM     15  H   UNL     1      27.357 -21.927 -14.865  0.00  0.00    +0.144 HD
ATOM     16  H   UNL     1      27.169 -23.303 -18.068  0.00  0.00    +0.188 HD
ENDBRANCH   5  13
BRANCH   2  18
ATOM     17  O   UNL     1      33.722 -24.133 -18.331  0.00  0.00    -0.270 OA
ATOM     18  N   UNL     1      33.255 -22.518 -16.717  0.00  0.00    -0.280 N 
ATOM     19  C   UNL     1      33.592 -22.958 -17.997  0.00  0.00    +0.249 C 
ATOM     20  H   UNL     1      33.183 -21.545 -16.585  0.00  0.00    +0.155 HD
BRANCH  19  21
ATOM     21  C   UNL     1      33.841 -21.868 -18.959  0.00  0.00    +0.053 C 
ATOM     22  C   UNL     1      35.127 -21.400 -19.176  0.00  0.00    +0.016 C 
ATOM     23  C   UNL     1      32.756 -21.333 -19.636  0.00  0.00    +0.004 C 
ATOM     24  C   UNL     1      35.334 -20.368 -20.092  0.00  0.00    +0.130 C 
ATOM     25  C   UNL     1      36.293 -21.982 -18.443  0.00  0.00    +0.034 C 
ATOM     26  C   UNL     1      32.962 -20.302 -20.552  0.00  0.00    +0.003 C 
ATOM     27  C   UNL     1      34.251 -19.819 -20.780  0.00  0.00    +0.036 C 
BRANCH  24  28
ATOM     28  O   UNL     1      36.586 -19.883 -20.329  0.00  0.00    -0.506 OA
ATOM     29  H   UNL     1      37.036 -19.405 -19.662  0.00  0.00    +0.292 HD
ENDBRANCH  24  28
ENDBRANCH  19  21
ENDBRANCH   2  18
TORSDOF 4
ENDMDL
MODEL 2
REMARK VINA RESULT:     -10.4      1.885      4.327
REMARK  Name = 6852140
REMARK  4 active torsions:
REMARK  status: ('A' for Active; 'I' for Inactive)
REMARK    1  A    between atoms: C_2  and  N_18
REMARK    2  A    between atoms: C_5  and  C_13
REMARK    3  A    between atoms: C_19  and  C_21
REMARK    4  A    between atoms: C_24  and  O_28
REMARK                            x       y       z     vdW  Elec       q    Type
REMARK                         _______ _______ _______ _____ _____    ______ ____
ROOT
ATOM      1  C   UNL     1      33.335 -23.432 -15.191  0.00  0.00    +0.014 C 
ATOM      2  C   UNL     1      32.490 -22.927 -16.193  0.00  0.00    +0.050 C 
ATOM      3  C   UNL     1      32.783 -24.218 -14.152  0.00  0.00    +0.001 C 
ATOM      4  C   UNL     1      34.716 -23.172 -15.197  0.00  0.00    +0.004 C 
ATOM      5  C   UNL     1      35.539 -23.681 -14.194  0.00  0.00    +0.031 C 
ATOM      6  C   UNL     1      33.628 -24.723 -13.150  0.00  0.00    +0.000 C 
ATOM      7  C   UNL     1      31.120 -23.194 -16.171  0.00  0.00    +0.015 C 
ATOM      8  C   UNL     1      31.403 -24.477 -14.146  0.00  0.00    +0.000 C 
ATOM      9  C   UNL     1      34.998 -24.456 -13.172  0.00  0.00    +0.003 C 
ATOM     10  C   UNL     1      30.579 -23.967 -15.149  0.00  0.00    +0.001 C 
ENDROOT
BRANCH   5  13
ATOM     11  N   UNL     1      37.703 -23.479 -15.395  0.00  0.00    -0.343 N 
ATOM     12  N   UNL     1      37.591 -23.081 -13.095  0.00  0.00    -0.285 NA
ATOM     13  C   UNL     1      36.967 -23.404 -14.214  0.00  0.00    +0.117 C 
ATOM     14  H   UNL     1      38.669 -23.288 -15.386  0.00  0.00    +0.144 HD
ATOM     15  H   UNL     1      37.258 -23.721 -16.239  0.00  0.00    +0.144 HD
ATOM     16  H   UNL     1      38.557 -22.893 -13.107  0.00  0.00    +0.188 HD
ENDBRANCH   5  13
BRANCH   2  18
ATOM     17  O   UNL     1      33.707 -23.797 -18.714  0.00  0.00    -0.270 OA
ATOM     18  N   UNL     1      32.979 -22.142 -17.246  0.00  0.00    -0.280 N 
ATOM     19  C   UNL     1      33.550 -22.613 -18.427  0.00  0.00    +0.249 C 
ATOM     20  H   UNL     1      32.913 -21.165 -17.141  0.00  0.00    +0.155 HD
BRANCH  19  21
ATOM     21  C   UNL     1      34.021 -21.548 -19.332  0.00  0.00    +0.053 C 
ATOM     22  C   UNL     1      35.360 -21.195 -19.371  0.00  0.00    +0.016 C 
ATOM     23  C   UNL     1      33.086 -20.917 -20.140  0.00  0.00    +0.004 C 
ATOM     24  C   UNL     1      35.776 -20.185 -20.237  0.00  0.00    +0.130 C 
ATOM     25  C   UNL     1      36.362 -21.881 -18.498  0.00  0.00    +0.034 C 
ATOM     26  C   UNL     1      33.503 -19.906 -21.006  0.00  0.00    +0.003 C 
ATOM     27  C   UNL     1      34.848 -19.540 -21.055  0.00  0.00    +0.036 C 
BRANCH  24  28
ATOM     28  O   UNL     1      37.087 -19.813 -20.299  0.00  0.00    -0.506 OA
ATOM     29  H   UNL     1      37.473 -19.342 -19.588  0.00  0.00    +0.292 HD
ENDBRANCH  24  28
ENDBRANCH  19  21
ENDBRANCH   2  18
TORSDOF 4
ENDMDL
MODEL 3
REMARK VINA RESULT:     -10.0      2.688      7.230
REMARK  Name = 6852140
REMARK  4 active torsions:
REMARK  status: ('A' for Active; 'I' for Inactive)
REMARK    1  A    between atoms: C_2  and  N_18
REMARK    2  A    between atoms: C_5  and  C_13
REMARK    3  A    between atoms: C_19  and  C_21
REMARK    4  A    between atoms: C_24  and  O_28
REMARK                            x       y       z     vdW  Elec       q    Type
REMARK                         _______ _______ _______ _____ _____    ______ ____
ROOT
ATOM      1  C   UNL     1      35.219 -22.637 -16.850  0.00  0.00    +0.014 C 
ATOM      2  C   UNL     1      33.936 -22.798 -17.400  0.00  0.00    +0.050 C 
ATOM      3  C   UNL     1      36.231 -22.019 -17.624  0.00  0.00    +0.001 C 
ATOM      4  C   UNL     1      35.520 -23.076 -15.551  0.00  0.00    +0.004 C 
ATOM      5  C   UNL     1      36.800 -22.908 -15.022  0.00  0.00    +0.031 C 
ATOM      6  C   UNL     1      37.514 -21.858 -17.075  0.00  0.00    +0.000 C 
ATOM      7  C   UNL     1      33.656 -22.356 -18.693  0.00  0.00    +0.015 C 
ATOM      8  C   UNL     1      35.930 -21.580 -18.924  0.00  0.00    +0.000 C 
ATOM      9  C   UNL     1      37.795 -22.300 -15.781  0.00  0.00    +0.003 C 
ATOM     10  C   UNL     1      34.650 -21.749 -19.453  0.00  0.00    +0.001 C 
ENDROOT
BRANCH   5  13
ATOM     11  N   UNL     1      36.172 -23.226 -12.640  0.00  0.00    -0.343 N 
ATOM     12  N   UNL     1      38.264 -23.926 -13.411  0.00  0.00    -0.285 NA
ATOM     13  C   UNL     1      37.096 -23.367 -13.674  0.00  0.00    +0.117 C 
ATOM     14  H   UNL     1      36.394 -23.543 -11.735  0.00  0.00    +0.144 HD
ATOM     15  H   UNL     1      35.297 -22.809 -12.815  0.00  0.00    +0.144 HD
ATOM     16  H   UNL     1      38.466 -24.238 -12.499  0.00  0.00    +0.188 HD
ENDBRANCH   5  13
BRANCH   2  18
ATOM     17  O   UNL     1      31.178 -21.870 -17.042  0.00  0.00    -0.270 OA
ATOM     18  N   UNL     1      32.896 -23.402 -16.682  0.00  0.00    -0.280 N 
ATOM     19  C   UNL     1      31.598 -22.913 -16.546  0.00  0.00    +0.249 C 
ATOM     20  H   UNL     1      33.102 -24.253 -16.231  0.00  0.00    +0.155 HD
BRANCH  19  21
ATOM     21  C   UNL     1      30.731 -23.742 -15.688  0.00  0.00    +0.053 C 
ATOM     22  C   UNL     1      31.087 -24.011 -14.376  0.00  0.00    +0.016 C 
ATOM     23  C   UNL     1      29.557 -24.239 -16.232  0.00  0.00    +0.004 C 
ATOM     24  C   UNL     1      30.248 -24.798 -13.588  0.00  0.00    +0.130 C 
ATOM     25  C   UNL     1      32.355 -23.471 -13.795  0.00  0.00    +0.034 C 
ATOM     26  C   UNL     1      28.718 -25.027 -15.443  0.00  0.00    +0.003 C 
ATOM     27  C   UNL     1      29.063 -25.306 -14.121  0.00  0.00    +0.036 C 
BRANCH  24  28
ATOM     28  O   UNL     1      30.568 -25.083 -12.293  0.00  0.00    -0.506 OA
ATOM     29  H   UNL     1      31.034 -25.869 -12.089  0.00  0.00    +0.292 HD
ENDBRANCH  24  28
ENDBRANCH  19  21
ENDBRANCH   2  18
TORSDOF 4
ENDMDL
MODEL 4
REMARK VINA RESULT:     -10.0      3.189      5.969
REMARK  Name = 6852140
REMARK  4 active torsions:
REMARK  status: ('A' for Active; 'I' for Inactive)
REMARK    1  A    between atoms: C_2  and  N_18
REMARK    2  A    between atoms: C_5  and  C_13
REMARK    3  A    between atoms: C_19  and  C_21
REMARK    4  A    between atoms: C_24  and  O_28
REMARK                            x       y       z     vdW  Elec       q    Type
REMARK                         _______ _______ _______ _____ _____    ______ ____
ROOT
ATOM      1  C   UNL     1      32.406 -23.898 -15.042  0.00  0.00    +0.014 C 
ATOM      2  C   UNL     1      32.946 -24.619 -13.964  0.00  0.00    +0.050 C 
ATOM      3  C   UNL     1      31.015 -23.639 -15.074  0.00  0.00    +0.001 C 
ATOM      4  C   UNL     1      33.216 -23.430 -16.090  0.00  0.00    +0.004 C 
ATOM      5  C   UNL     1      32.663 -22.716 -17.153  0.00  0.00    +0.031 C 
ATOM      6  C   UNL     1      30.476 -22.918 -16.153  0.00  0.00    +0.000 C 
ATOM      7  C   UNL     1      32.125 -25.077 -12.933  0.00  0.00    +0.015 C 
ATOM      8  C   UNL     1      30.205 -24.107 -14.027  0.00  0.00    +0.000 C 
ATOM      9  C   UNL     1      31.296 -22.460 -17.184  0.00  0.00    +0.003 C 
ATOM     10  C   UNL     1      30.758 -24.821 -12.964  0.00  0.00    +0.001 C 
ENDROOT
BRANCH   5  13
ATOM     11  N   UNL     1      34.834 -22.671 -18.359  0.00  0.00    -0.343 N 
ATOM     12  N   UNL     1      33.043 -21.369 -19.106  0.00  0.00    -0.285 NA
ATOM     13  C   UNL     1      33.515 -22.237 -18.230  0.00  0.00    +0.117 C 
ATOM     14  H   UNL     1      35.393 -22.334 -19.095  0.00  0.00    +0.144 HD
ATOM     15  H   UNL     1      35.206 -23.316 -17.714  0.00  0.00    +0.144 HD
ATOM     16  H   UNL     1      33.619 -21.044 -19.836  0.00  0.00    +0.188 HD
ENDBRANCH   5  13
BRANCH   2  18
ATOM     17  O   UNL     1      34.924 -23.567 -12.073  0.00  0.00    -0.270 OA
ATOM     18  N   UNL     1      34.314 -24.906 -13.879  0.00  0.00    -0.280 N 
ATOM     19  C   UNL     1      35.211 -24.373 -12.954  0.00  0.00    +0.249 C 
ATOM     20  H   UNL     1      34.677 -25.545 -14.534  0.00  0.00    +0.155 HD
BRANCH  19  21
ATOM     21  C   UNL     1      36.603 -24.825 -13.139  0.00  0.00    +0.053 C 
ATOM     22  C   UNL     1      37.377 -24.318 -14.171  0.00  0.00    +0.016 C 
ATOM     23  C   UNL     1      37.108 -25.764 -12.254  0.00  0.00    +0.004 C 
ATOM     24  C   UNL     1      38.690 -24.763 -14.322  0.00  0.00    +0.130 C 
ATOM     25  C   UNL     1      36.826 -23.305 -15.122  0.00  0.00    +0.034 C 
ATOM     26  C   UNL     1      38.421 -26.209 -12.404  0.00  0.00    +0.003 C 
ATOM     27  C   UNL     1      39.213 -25.709 -13.439  0.00  0.00    +0.036 C 
BRANCH  24  28
ATOM     28  O   UNL     1      39.480 -24.286 -15.326  0.00  0.00    -0.506 OA
ATOM     29  H   UNL     1      40.401 -24.185 -15.188  0.00  0.00    +0.292 HD
ENDBRANCH  24  28
ENDBRANCH  19  21
ENDBRANCH   2  18
TORSDOF 4
ENDMDL
MODEL 5
REMARK VINA RESULT:     -10.0      2.657      6.701
REMARK  Name = 6852140
REMARK  4 active torsions:
REMARK  status: ('A' for Active; 'I' for Inactive)
REMARK    1  A    between atoms: C_2  and  N_18
REMARK    2  A    between atoms: C_5  and  C_13
REMARK    3  A    between atoms: C_19  and  C_21
REMARK    4  A    between atoms: C_24  and  O_28
REMARK                            x       y       z     vdW  Elec       q    Type
REMARK                         _______ _______ _______ _____ _____    ______ ____
ROOT
ATOM      1  C   UNL     1      34.986 -22.434 -17.305  0.00  0.00    +0.014 C 
ATOM      2  C   UNL     1      34.433 -23.181 -16.251  0.00  0.00    +0.050 C 
ATOM      3  C   UNL     1      36.384 -22.217 -17.339  0.00  0.00    +0.001 C 
ATOM      4  C   UNL     1      34.181 -21.897 -18.323  0.00  0.00    +0.004 C 
ATOM      5  C   UNL     1      34.748 -21.157 -19.361  0.00  0.00    +0.031 C 
ATOM      6  C   UNL     1      36.937 -21.470 -18.393  0.00  0.00    +0.000 C 
ATOM      7  C   UNL     1      35.247 -23.707 -15.247  0.00  0.00    +0.015 C 
ATOM      8  C   UNL     1      37.188 -22.755 -16.321  0.00  0.00    +0.000 C 
ATOM      9  C   UNL     1      36.123 -20.945 -19.397  0.00  0.00    +0.003 C 
ATOM     10  C   UNL     1      36.622 -23.494 -15.282  0.00  0.00    +0.001 C 
ENDROOT
BRANCH   5  13
ATOM     11  N   UNL     1      34.447 -19.948 -21.509  0.00  0.00    -0.343 N 
ATOM     12  N   UNL     1      32.589 -20.726 -20.325  0.00  0.00    -0.285 NA
ATOM     13  C   UNL     1      33.902 -20.608 -20.409  0.00  0.00    +0.117 C 
ATOM     14  H   UNL     1      33.856 -19.583 -22.207  0.00  0.00    +0.144 HD
ATOM     15  H   UNL     1      35.423 -19.847 -21.589  0.00  0.00    +0.144 HD
ATOM     16  H   UNL     1      32.015 -20.355 -21.033  0.00  0.00    +0.188 HD
ENDBRANCH   5  13
BRANCH   2  18
ATOM     17  O   UNL     1      32.545 -22.309 -14.184  0.00  0.00    -0.270 OA
ATOM     18  N   UNL     1      33.057 -23.427 -16.163  0.00  0.00    -0.280 N 
ATOM     19  C   UNL     1      32.205 -22.985 -15.152  0.00  0.00    +0.249 C 
ATOM     20  H   UNL     1      32.653 -23.964 -16.884  0.00  0.00    +0.155 HD
BRANCH  19  21
ATOM     21  C   UNL     1      30.810 -23.442 -15.300  0.00  0.00    +0.053 C 
ATOM     22  C   UNL     1      30.334 -24.508 -14.554  0.00  0.00    +0.016 C 
ATOM     23  C   UNL     1      29.996 -22.774 -16.202  0.00  0.00    +0.004 C 
ATOM     24  C   UNL     1      29.011 -24.918 -14.715  0.00  0.00    +0.130 C 
ATOM     25  C   UNL     1      31.217 -25.224 -13.583  0.00  0.00    +0.034 C 
ATOM     26  C   UNL     1      28.673 -23.184 -16.363  0.00  0.00    +0.003 C 
ATOM     27  C   UNL     1      28.180 -24.257 -15.619  0.00  0.00    +0.036 C 
BRANCH  24  28
ATOM     28  O   UNL     1      28.511 -25.964 -13.997  0.00  0.00    -0.506 OA
ATOM     29  H   UNL     1      27.835 -25.817 -13.366  0.00  0.00    +0.292 HD
ENDBRANCH  24  28
ENDBRANCH  19  21
ENDBRANCH   2  18
TORSDOF 4
ENDMDL
MODEL 6
REMARK VINA RESULT:      -9.9     11.722     14.863
REMARK  Name = 6852140
REMARK  4 active torsions:
REMARK  status: ('A' for Active; 'I' for Inactive)
REMARK    1  A    between atoms: C_2  and  N_18
REMARK    2  A    between atoms: C_5  and  C_13
REMARK    3  A    between atoms: C_19  and  C_21
REMARK    4  A    between atoms: C_24  and  O_28
REMARK                            x       y       z     vdW  Elec       q    Type
REMARK                         _______ _______ _______ _____ _____    ______ ____
ROOT
ATOM      1  C   UNL     1      32.300 -11.127 -21.353  0.00  0.00    +0.014 C 
ATOM      2  C   UNL     1      32.038  -9.784 -21.034  0.00  0.00    +0.050 C 
ATOM      3  C   UNL     1      32.019 -12.132 -20.397  0.00  0.00    +0.001 C 
ATOM      4  C   UNL     1      32.838 -11.494 -22.597  0.00  0.00    +0.004 C 
ATOM      5  C   UNL     1      33.093 -12.832 -22.896  0.00  0.00    +0.031 C 
ATOM      6  C   UNL     1      32.281 -13.476 -20.715  0.00  0.00    +0.000 C 
ATOM      7  C   UNL     1      31.505  -9.438 -19.792  0.00  0.00    +0.015 C 
ATOM      8  C   UNL     1      31.481 -11.766 -19.152  0.00  0.00    +0.000 C 
ATOM      9  C   UNL     1      32.815 -13.821 -21.957  0.00  0.00    +0.003 C 
ATOM     10  C   UNL     1      31.227 -10.427 -18.854  0.00  0.00    +0.001 C 
ENDROOT
BRANCH   5  13
ATOM     11  N   UNL     1      33.712 -14.526 -24.603  0.00  0.00    -0.343 N 
ATOM     12  N   UNL     1      34.112 -12.258 -24.994  0.00  0.00    -0.285 NA
ATOM     13  C   UNL     1      33.649 -13.197 -24.189  0.00  0.00    +0.117 C 
ATOM     14  H   UNL     1      34.093 -14.751 -25.482  0.00  0.00    +0.144 HD
ATOM     15  H   UNL     1      33.375 -15.242 -24.016  0.00  0.00    +0.144 HD
ATOM     16  H   UNL     1      34.489 -12.503 -25.871  0.00  0.00    +0.188 HD
ENDBRANCH   5  13
BRANCH   2  18
ATOM     17  O   UNL     1      33.563  -7.318 -20.604  0.00  0.00    -0.270 OA
ATOM     18  N   UNL     1      32.297  -8.747 -21.939  0.00  0.00    -0.280 N 
ATOM     19  C   UNL     1      33.033  -7.592 -21.677  0.00  0.00    +0.249 C 
ATOM     20  H   UNL     1      31.925  -8.842 -22.846  0.00  0.00    +0.155 HD
BRANCH  19  21
ATOM     21  C   UNL     1      33.097  -6.652 -22.812  0.00  0.00    +0.053 C 
ATOM     22  C   UNL     1      34.186  -6.655 -23.670  0.00  0.00    +0.016 C 
ATOM     23  C   UNL     1      32.041  -5.771 -22.992  0.00  0.00    +0.004 C 
ATOM     24  C   UNL     1      34.220  -5.754 -24.734  0.00  0.00    +0.130 C 
ATOM     25  C   UNL     1      35.321  -7.607 -23.470  0.00  0.00    +0.034 C 
ATOM     26  C   UNL     1      32.076  -4.871 -24.056  0.00  0.00    +0.003 C 
ATOM     27  C   UNL     1      33.165  -4.862 -24.928  0.00  0.00    +0.036 C 
BRANCH  24  28
ATOM     28  O   UNL     1      35.276  -5.730 -25.597  0.00  0.00    -0.506 OA
ATOM     29  H   UNL     1      36.011  -5.178 -25.420  0.00  0.00    +0.292 HD
ENDBRANCH  24  28
ENDBRANCH  19  21
ENDBRANCH   2  18
TORSDOF 4
ENDMDL
MODEL 7
REMARK VINA RESULT:      -9.9      3.644      6.118
REMARK  Name = 6852140
REMARK  4 active torsions:
REMARK  status: ('A' for Active; 'I' for Inactive)
REMARK    1  A    between atoms: C_2  and  N_18
REMARK    2  A    between atoms: C_5  and  C_13
REMARK    3  A    between atoms: C_19  and  C_21
REMARK    4  A    between atoms: C_24  and  O_28
REMARK                            x       y       z     vdW  Elec       q    Type
REMARK                         _______ _______ _______ _____ _____    ______ ____
ROOT
ATOM      1  C   UNL     1      33.397 -23.128 -16.301  0.00  0.00    +0.014 C 
ATOM      2  C   UNL     1      34.762 -23.146 -16.633  0.00  0.00    +0.050 C 
ATOM      3  C   UNL     1      32.473 -22.545 -17.202  0.00  0.00    +0.001 C 
ATOM      4  C   UNL     1      32.929 -23.672 -15.094  0.00  0.00    +0.004 C 
ATOM      5  C   UNL     1      31.570 -23.644 -14.780  0.00  0.00    +0.031 C 
ATOM      6  C   UNL     1      31.108 -22.527 -16.870  0.00  0.00    +0.000 C 
ATOM      7  C   UNL     1      35.209 -22.600 -17.837  0.00  0.00    +0.015 C 
ATOM      8  C   UNL     1      32.941 -22.001 -18.409  0.00  0.00    +0.000 C 
ATOM      9  C   UNL     1      30.661 -23.074 -15.666  0.00  0.00    +0.003 C 
ATOM     10  C   UNL     1      34.300 -22.028 -18.722  0.00  0.00    +0.001 C 
ENDROOT
BRANCH   5  13
ATOM     11  N   UNL     1      30.407 -25.422 -13.494  0.00  0.00    -0.343 N 
ATOM     12  N   UNL     1      31.324 -23.577 -12.391  0.00  0.00    -0.285 NA
ATOM     13  C   UNL     1      31.100 -24.213 -13.527  0.00  0.00    +0.117 C 
ATOM     14  H   UNL     1      30.098 -25.788 -12.634  0.00  0.00    +0.144 HD
ATOM     15  H   UNL     1      30.227 -25.910 -14.330  0.00  0.00    +0.144 HD
ATOM     16  H   UNL     1      31.007 -23.961 -11.541  0.00  0.00    +0.188 HD
ENDBRANCH   5  13
BRANCH   2  18
ATOM     17  O   UNL     1      37.124 -21.877 -15.448  0.00  0.00    -0.270 OA
ATOM     18  N   UNL     1      35.721 -23.707 -15.781  0.00  0.00    -0.280 N 
ATOM     19  C   UNL     1      36.829 -23.052 -15.245  0.00  0.00    +0.249 C 
ATOM     20  H   UNL     1      35.602 -24.654 -15.537  0.00  0.00    +0.155 HD
BRANCH  19  21
ATOM     21  C   UNL     1      37.694 -23.914 -14.418  0.00  0.00    +0.053 C 
ATOM     22  C   UNL     1      37.440 -24.078 -13.066  0.00  0.00    +0.016 C 
ATOM     23  C   UNL     1      38.762 -24.551 -15.032  0.00  0.00    +0.004 C 
ATOM     24  C   UNL     1      38.274 -24.899 -12.308  0.00  0.00    +0.130 C 
ATOM     25  C   UNL     1      36.286 -23.389 -12.410  0.00  0.00    +0.034 C 
ATOM     26  C   UNL     1      39.597 -25.371 -14.274  0.00  0.00    +0.003 C 
ATOM     27  C   UNL     1      39.353 -25.546 -12.912  0.00  0.00    +0.036 C 
BRANCH  24  28
ATOM     28  O   UNL     1      38.053 -25.082 -10.975  0.00  0.00    -0.506 OA
ATOM     29  H   UNL     1      37.469 -24.512 -10.515  0.00  0.00    +0.292 HD
ENDBRANCH  24  28
ENDBRANCH  19  21
ENDBRANCH   2  18
TORSDOF 4
ENDMDL
MODEL 8
REMARK VINA RESULT:      -9.8      1.823      4.142
REMARK  Name = 6852140
REMARK  4 active torsions:
REMARK  status: ('A' for Active; 'I' for Inactive)
REMARK    1  A    between atoms: C_2  and  N_18
REMARK    2  A    between atoms: C_5  and  C_13
REMARK    3  A    between atoms: C_19  and  C_21
REMARK    4  A    between atoms: C_24  and  O_28
REMARK                            x       y       z     vdW  Elec       q    Type
REMARK                         _______ _______ _______ _____ _____    ______ ____
ROOT
ATOM      1  C   UNL     1      32.327 -23.487 -15.281  0.00  0.00    +0.014 C 
ATOM      2  C   UNL     1      31.952 -22.796 -16.445  0.00  0.00    +0.050 C 
ATOM      3  C   UNL     1      31.327 -24.098 -14.487  0.00  0.00    +0.001 C 
ATOM      4  C   UNL     1      33.671 -23.582 -14.886  0.00  0.00    +0.004 C 
ATOM      5  C   UNL     1      34.025 -24.272 -13.727  0.00  0.00    +0.031 C 
ATOM      6  C   UNL     1      31.702 -24.789 -13.323  0.00  0.00    +0.000 C 
ATOM      7  C   UNL     1      30.611 -22.710 -16.821  0.00  0.00    +0.015 C 
ATOM      8  C   UNL     1      29.982 -24.002 -14.882  0.00  0.00    +0.000 C 
ATOM      9  C   UNL     1      33.043 -24.875 -12.947  0.00  0.00    +0.003 C 
ATOM     10  C   UNL     1      29.629 -23.312 -16.041  0.00  0.00    +0.001 C 
ENDROOT
BRANCH   5  13
ATOM     11  N   UNL     1      36.139 -23.235 -12.936  0.00  0.00    -0.343 N 
ATOM     12  N   UNL     1      36.035 -25.533 -13.350  0.00  0.00    -0.285 NA
ATOM     13  C   UNL     1      35.422 -24.363 -13.332  0.00  0.00    +0.117 C 
ATOM     14  H   UNL     1      37.083 -23.320 -12.673  0.00  0.00    +0.144 HD
ATOM     15  H   UNL     1      35.700 -22.354 -12.918  0.00  0.00    +0.144 HD
ATOM     16  H   UNL     1      36.981 -25.597 -13.082  0.00  0.00    +0.188 HD
ENDBRANCH   5  13
BRANCH   2  18
ATOM     17  O   UNL     1      33.486 -23.938 -18.668  0.00  0.00    -0.270 OA
ATOM     18  N   UNL     1      32.896 -22.170 -17.269  0.00  0.00    -0.280 N 
ATOM     19  C   UNL     1      33.598 -22.766 -18.316  0.00  0.00    +0.249 C 
ATOM     20  H   UNL     1      33.082 -21.219 -17.092  0.00  0.00    +0.155 HD
BRANCH  19  21
ATOM     21  C   UNL     1      34.566 -21.870 -18.976  0.00  0.00    +0.053 C 
ATOM     22  C   UNL     1      34.136 -20.906 -19.874  0.00  0.00    +0.016 C 
ATOM     23  C   UNL     1      35.910 -22.021 -18.671  0.00  0.00    +0.004 C 
ATOM     24  C   UNL     1      35.073 -20.073 -20.484  0.00  0.00    +0.130 C 
ATOM     25  C   UNL     1      32.685 -20.747 -20.198  0.00  0.00    +0.034 C 
ATOM     26  C   UNL     1      36.847 -21.188 -19.281  0.00  0.00    +0.003 C 
ATOM     27  C   UNL     1      36.430 -20.214 -20.187  0.00  0.00    +0.036 C 
BRANCH  24  28
ATOM     28  O   UNL     1      34.685 -19.114 -21.372  0.00  0.00    -0.506 OA
ATOM     29  H   UNL     1      33.866 -18.675 -21.257  0.00  0.00    +0.292 HD
ENDBRANCH  24  28
ENDBRANCH  19  21
ENDBRANCH   2  18
TORSDOF 4
ENDMDL
MODEL 9
REMARK VINA RESULT:      -9.8     11.892     15.023
REMARK  Name = 6852140
REMARK  4 active torsions:
REMARK  status: ('A' for Active; 'I' for Inactive)
REMARK    1  A    between atoms: C_2  and  N_18
REMARK    2  A    between atoms: C_5  and  C_13
REMARK    3  A    between atoms: C_19  and  C_21
REMARK    4  A    between atoms: C_24  and  O_28
REMARK                            x       y       z     vdW  Elec       q    Type
REMARK                         _______ _______ _______ _____ _____    ______ ____
ROOT
ATOM      1  C   UNL     1      32.283 -11.225 -21.300  0.00  0.00    +0.014 C 
ATOM      2  C   UNL     1      31.983  -9.901 -20.938  0.00  0.00    +0.050 C 
ATOM      3  C   UNL     1      32.047 -12.267 -20.371  0.00  0.00    +0.001 C 
ATOM      4  C   UNL     1      32.814 -11.537 -22.563  0.00  0.00    +0.004 C 
ATOM      5  C   UNL     1      33.106 -12.857 -22.905  0.00  0.00    +0.031 C 
ATOM      6  C   UNL     1      32.347 -13.590 -20.734  0.00  0.00    +0.000 C 
ATOM      7  C   UNL     1      31.457  -9.610 -19.678  0.00  0.00    +0.015 C 
ATOM      8  C   UNL     1      31.516 -11.955 -19.109  0.00  0.00    +0.000 C 
ATOM      9  C   UNL     1      32.873 -13.882 -21.993  0.00  0.00    +0.003 C 
ATOM     10  C   UNL     1      31.224 -10.634 -18.767  0.00  0.00    +0.001 C 
ENDROOT
BRANCH   5  13
ATOM     11  N   UNL     1      33.703 -14.473 -24.693  0.00  0.00    -0.343 N 
ATOM     12  N   UNL     1      34.124 -12.193 -24.978  0.00  0.00    -0.285 NA
ATOM     13  C   UNL     1      33.654 -13.164 -24.216  0.00  0.00    +0.117 C 
ATOM     14  H   UNL     1      34.079 -14.659 -25.583  0.00  0.00    +0.144 HD
ATOM     15  H   UNL     1      33.361 -15.212 -24.139  0.00  0.00    +0.144 HD
ATOM     16  H   UNL     1      34.495 -12.399 -25.866  0.00  0.00    +0.188 HD
ENDBRANCH   5  13
BRANCH   2  18
ATOM     17  O   UNL     1      33.481  -7.424 -20.471  0.00  0.00    -0.270 OA
ATOM     18  N   UNL     1      32.196  -8.829 -21.814  0.00  0.00    -0.280 N 
ATOM     19  C   UNL     1      32.921  -7.671 -21.536  0.00  0.00    +0.249 C 
ATOM     20  H   UNL     1      31.797  -8.900 -22.711  0.00  0.00    +0.155 HD
BRANCH  19  21
ATOM     21  C   UNL     1      32.934  -6.692 -22.639  0.00  0.00    +0.053 C 
ATOM     22  C   UNL     1      31.964  -5.705 -22.717  0.00  0.00    +0.016 C 
ATOM     23  C   UNL     1      33.940  -6.789 -23.588  0.00  0.00    +0.004 C 
ATOM     24  C   UNL     1      32.001  -4.792 -23.771  0.00  0.00    +0.130 C 
ATOM     25  C   UNL     1      30.882  -5.605 -21.690  0.00  0.00    +0.034 C 
ATOM     26  C   UNL     1      33.977  -5.877 -24.642  0.00  0.00    +0.003 C 
ATOM     27  C   UNL     1      33.007  -4.878 -24.734  0.00  0.00    +0.036 C 
BRANCH  24  28
ATOM     28  O   UNL     1      31.063  -3.809 -23.879  0.00  0.00    -0.506 OA
ATOM     29  H   UNL     1      31.312  -2.956 -24.174  0.00  0.00    +0.292 HD
ENDBRANCH  24  28
ENDBRANCH  19  21
ENDBRANCH   2  18
TORSDOF 4
ENDMDL
