MODEL 1
REMARK VINA RESULT:     -11.7      0.000      0.000
REMARK  Name = 10224714
REMARK  8 active torsions:
REMARK  status: ('A' for Active; 'I' for Inactive)
REMARK    1  A    between atoms: N_1  and  C_12
REMARK    2  A    between atoms: N_2  and  CA_30
REMARK    3  A    between atoms: N_15  and  C_17
REMARK    4  A    between atoms: C_17  and  C_18
REMARK    5  A    between atoms: C_21  and  C_25
REMARK    6  A    between atoms: CA_30  and  C_31
REMARK    7  A    between atoms: CA_30  and  C_33
REMARK    8  A    between atoms: C_33  and  O_34
REMARK                            x       y       z     vdW  Elec       q    Type
REMARK                         _______ _______ _______ _____ _____    ______ ____
ROOT
ATOM      1  N   UNL     1      31.954 -23.941 -15.022  0.00  0.00    -0.262 N 
ATOM      2  N   UNL     1      36.675 -23.901 -14.493  0.00  0.00    -0.258 N 
ATOM      3  N   UNL     1      34.338 -24.011 -14.564  0.00  0.00    -0.311 NA
ATOM      4  N   UNL     1      31.979 -23.001 -17.043  0.00  0.00    -0.240 NA
ATOM      5  N   UNL     1      35.623 -23.073 -16.416  0.00  0.00    -0.311 NA
ATOM      6  C   UNL     1      33.269 -23.723 -15.321  0.00  0.00    +0.220 C 
ATOM      7  C   UNL     1      33.262 -23.139 -16.577  0.00  0.00    +0.167 C 
ATOM      8  C   UNL     1      34.499 -22.810 -17.124  0.00  0.00    +0.215 C 
ATOM      9  C   UNL     1      35.503 -23.653 -15.182  0.00  0.00    +0.202 C 
ATOM     10  C   UNL     1      31.219 -23.491 -16.086  0.00  0.00    +0.222 C 
ATOM     11  H   UNL     1      37.527 -23.653 -14.920  0.00  0.00    +0.160 HD
ATOM     12  N   UNL     1      34.587 -22.214 -18.394  0.00  0.00    -0.302 N 
ATOM     13  H   UNL     1      33.754 -22.035 -18.888  0.00  0.00    +0.150 HD
ENDROOT
BRANCH   1  14
ATOM     14  C   UNL     1      31.429 -24.534 -13.816  0.00  0.00    +0.077 C 
ATOM     15  C   UNL     1      31.116 -23.482 -12.750  0.00  0.00    +0.022 C 
ATOM     16  C   UNL     1      30.220 -25.428 -14.096  0.00  0.00    +0.022 C 
ENDBRANCH   1  14
BRANCH  12  17
ATOM     17  C   UNL     1      35.833 -21.855 -19.004  0.00  0.00    +0.116 C 
BRANCH  17  18
ATOM     18  C   UNL     1      35.645 -20.696 -19.945  0.00  0.00    -0.003 C 
ATOM     19  C   UNL     1      36.749 -19.964 -20.360  0.00  0.00    -0.003 C 
ATOM     20  C   UNL     1      34.368 -20.373 -20.385  0.00  0.00    -0.003 C 
ATOM     21  C   UNL     1      35.296 -18.556 -21.680  0.00  0.00    +0.018 C 
ATOM     22  C   UNL     1      36.574 -18.889 -21.231  0.00  0.00    +0.001 C 
ATOM     23  C   UNL     1      34.193 -19.298 -21.258  0.00  0.00    +0.001 C 
BRANCH  21  25
ATOM     24  N   UNL     1      34.980 -16.240 -21.985  0.00  0.00    -0.244 NA
ATOM     25  C   UNL     1      35.115 -17.442 -22.585  0.00  0.00    +0.081 C 
ATOM     26  C   UNL     1      35.087 -17.638 -23.955  0.00  0.00    +0.019 C 
ATOM     27  C   UNL     1      34.909 -16.522 -24.765  0.00  0.00    +0.003 C 
ATOM     28  C   UNL     1      34.809 -15.178 -22.805  0.00  0.00    +0.099 C 
ATOM     29  C   UNL     1      34.767 -15.265 -24.187  0.00  0.00    +0.021 C 
ENDBRANCH  21  25
ENDBRANCH  17  18
ENDBRANCH  12  17
BRANCH   2  30
ATOM     30  CA  UNL     1      36.717 -24.507 -13.176  0.00  0.00    +0.109 C 
BRANCH  30  31
ATOM     31  C   UNL     1      37.592 -23.662 -12.242  0.00  0.00    +0.023 C 
ATOM     32  C   UNL     1      36.886 -23.298 -10.942  0.00  0.00    +0.002 C 
ENDBRANCH  30  31
BRANCH  30  33
ATOM     33  C   UNL     1      37.270 -25.926 -13.305  0.00  0.00    +0.157 C 
BRANCH  33  34
ATOM     34  O   UNL     1      36.900 -26.683 -12.157  0.00  0.00    -0.380 OA
ATOM     35  H   UNL     1      37.373 -27.531 -12.163  0.00  0.00    +0.211 HD
ENDBRANCH  33  34
ENDBRANCH  30  33
ENDBRANCH   2  30
TORSDOF 8
ENDMDL
MODEL 2
REMARK VINA RESULT:     -11.2      1.556      4.198
REMARK  Name = 10224714
REMARK  8 active torsions:
REMARK  status: ('A' for Active; 'I' for Inactive)
REMARK    1  A    between atoms: N_1  and  C_12
REMARK    2  A    between atoms: N_2  and  CA_30
REMARK    3  A    between atoms: N_15  and  C_17
REMARK    4  A    between atoms: C_17  and  C_18
REMARK    5  A    between atoms: C_21  and  C_25
REMARK    6  A    between atoms: CA_30  and  C_31
REMARK    7  A    between atoms: CA_30  and  C_33
REMARK    8  A    between atoms: C_33  and  O_34
REMARK                            x       y       z     vdW  Elec       q    Type
REMARK                         _______ _______ _______ _____ _____    ______ ____
ROOT
ATOM      1  N   UNL     1      36.451 -23.363 -13.378  0.00  0.00    -0.262 N 
ATOM      2  N   UNL     1      31.963 -24.088 -14.755  0.00  0.00    -0.258 N 
ATOM      3  N   UNL     1      34.112 -23.780 -13.882  0.00  0.00    -0.311 NA
ATOM      4  N   UNL     1      37.189 -22.817 -15.410  0.00  0.00    -0.240 NA
ATOM      5  N   UNL     1      33.642 -23.436 -16.252  0.00  0.00    -0.311 NA
ATOM      6  C   UNL     1      35.369 -23.444 -14.208  0.00  0.00    +0.220 C 
ATOM      7  C   UNL     1      35.849 -23.102 -15.462  0.00  0.00    +0.167 C 
ATOM      8  C   UNL     1      34.931 -23.106 -16.508  0.00  0.00    +0.215 C 
ATOM      9  C   UNL     1      33.287 -23.756 -14.970  0.00  0.00    +0.202 C 
ATOM     10  C   UNL     1      37.520 -22.984 -14.146  0.00  0.00    +0.222 C 
ATOM     11  H   UNL     1      31.349 -24.076 -15.524  0.00  0.00    +0.160 HD
ATOM     12  N   UNL     1      35.329 -22.774 -17.815  0.00  0.00    -0.302 N 
ATOM     13  H   UNL     1      36.272 -22.537 -17.972  0.00  0.00    +0.150 HD
ENDROOT
BRANCH   1  14
ATOM     14  C   UNL     1      36.474 -23.625 -11.959  0.00  0.00    +0.077 C 
ATOM     15  C   UNL     1      36.584 -25.121 -11.655  0.00  0.00    +0.022 C 
ATOM     16  C   UNL     1      37.565 -22.824 -11.246  0.00  0.00    +0.022 C 
ENDBRANCH   1  14
BRANCH  12  17
ATOM     17  C   UNL     1      34.427 -22.762 -18.927  0.00  0.00    +0.116 C 
BRANCH  17  18
ATOM     18  C   UNL     1      34.543 -21.467 -19.685  0.00  0.00    -0.003 C 
ATOM     19  C   UNL     1      33.395 -20.751 -19.998  0.00  0.00    -0.003 C 
ATOM     20  C   UNL     1      35.796 -21.005 -20.063  0.00  0.00    -0.003 C 
ATOM     21  C   UNL     1      34.757 -19.078 -21.085  0.00  0.00    +0.018 C 
ATOM     22  C   UNL     1      33.503 -19.552 -20.702  0.00  0.00    +0.001 C 
ATOM     23  C   UNL     1      35.904 -19.805 -20.766  0.00  0.00    +0.001 C 
BRANCH  21  25
ATOM     24  N   UNL     1      34.685 -16.722 -21.070  0.00  0.00    -0.244 NA
ATOM     25  C   UNL     1      34.868 -17.834 -21.814  0.00  0.00    +0.081 C 
ATOM     26  C   UNL     1      35.141 -17.828 -23.171  0.00  0.00    +0.019 C 
ATOM     27  C   UNL     1      35.234 -16.596 -23.808  0.00  0.00    +0.003 C 
ATOM     28  C   UNL     1      34.783 -15.542 -21.723  0.00  0.00    +0.099 C 
ATOM     29  C   UNL     1      35.053 -15.426 -23.078  0.00  0.00    +0.021 C 
ENDBRANCH  21  25
ENDBRANCH  17  18
ENDBRANCH  12  17
BRANCH   2  30
ATOM     30  CA  UNL     1      31.430 -24.454 -13.456  0.00  0.00    +0.109 C 
BRANCH  30  31
ATOM     31  C   UNL     1      30.218 -25.377 -13.632  0.00  0.00    +0.023 C 
ATOM     32  C   UNL     1      29.296 -24.931 -14.759  0.00  0.00    +0.002 C 
ENDBRANCH  30  31
BRANCH  30  33
ATOM     33  C   UNL     1      31.039 -23.179 -12.709  0.00  0.00    +0.157 C 
BRANCH  33  34
ATOM     34  O   UNL     1      32.160 -22.701 -11.972  0.00  0.00    -0.380 OA
ATOM     35  H   UNL     1      32.049 -22.925 -11.034  0.00  0.00    +0.211 HD
ENDBRANCH  33  34
ENDBRANCH  30  33
ENDBRANCH   2  30
TORSDOF 8
ENDMDL
MODEL 3
REMARK VINA RESULT:      -9.6      1.414      1.759
REMARK  Name = 10224714
REMARK  8 active torsions:
REMARK  status: ('A' for Active; 'I' for Inactive)
REMARK    1  A    between atoms: N_1  and  C_12
REMARK    2  A    between atoms: N_2  and  CA_30
REMARK    3  A    between atoms: N_15  and  C_17
REMARK    4  A    between atoms: C_17  and  C_18
REMARK    5  A    between atoms: C_21  and  C_25
REMARK    6  A    between atoms: CA_30  and  C_31
REMARK    7  A    between atoms: CA_30  and  C_33
REMARK    8  A    between atoms: C_33  and  O_34
REMARK                            x       y       z     vdW  Elec       q    Type
REMARK                         _______ _______ _______ _____ _____    ______ ____
ROOT
ATOM      1  N   UNL     1      32.544 -23.421 -15.868  0.00  0.00    -0.262 N 
ATOM      2  N   UNL     1      37.292 -23.295 -15.863  0.00  0.00    -0.258 N 
ATOM      3  N   UNL     1      34.965 -23.462 -15.684  0.00  0.00    -0.311 NA
ATOM      4  N   UNL     1      32.325 -22.330 -17.800  0.00  0.00    -0.240 NA
ATOM      5  N   UNL     1      36.017 -22.352 -17.587  0.00  0.00    -0.311 NA
ATOM      6  C   UNL     1      33.812 -23.146 -16.292  0.00  0.00    +0.220 C 
ATOM      7  C   UNL     1      33.654 -22.469 -17.491  0.00  0.00    +0.167 C 
ATOM      8  C   UNL     1      34.815 -22.067 -18.144  0.00  0.00    +0.215 C 
ATOM      9  C   UNL     1      36.046 -23.027 -16.396  0.00  0.00    +0.202 C 
ATOM     10  C   UNL     1      31.685 -22.912 -16.806  0.00  0.00    +0.222 C 
ATOM     11  H   UNL     1      38.087 -22.993 -16.360  0.00  0.00    +0.160 HD
ATOM     12  N   UNL     1      34.750 -21.373 -19.365  0.00  0.00    -0.302 N 
ATOM     13  H   UNL     1      33.863 -21.180 -19.748  0.00  0.00    +0.150 HD
ENDROOT
BRANCH   1  14
ATOM     14  C   UNL     1      32.168 -24.118 -14.662  0.00  0.00    +0.077 C 
ATOM     15  C   UNL     1      33.379 -24.428 -13.779  0.00  0.00    +0.022 C 
ATOM     16  C   UNL     1      31.081 -23.373 -13.885  0.00  0.00    +0.022 C 
ENDBRANCH   1  14
BRANCH  12  17
ATOM     17  C   UNL     1      35.913 -20.936 -20.079  0.00  0.00    +0.116 C 
BRANCH  17  18
ATOM     18  C   UNL     1      35.578 -19.767 -20.965  0.00  0.00    -0.003 C 
ATOM     19  C   UNL     1      34.994 -19.992 -22.204  0.00  0.00    -0.003 C 
ATOM     20  C   UNL     1      35.860 -18.479 -20.532  0.00  0.00    -0.003 C 
ATOM     21  C   UNL     1      34.963 -17.609 -22.601  0.00  0.00    +0.018 C 
ATOM     22  C   UNL     1      34.685 -18.908 -23.026  0.00  0.00    +0.001 C 
ATOM     23  C   UNL     1      35.550 -17.394 -21.354  0.00  0.00    +0.001 C 
BRANCH  21  25
ATOM     24  N   UNL     1      34.402 -15.328 -22.800  0.00  0.00    -0.244 NA
ATOM     25  C   UNL     1      34.642 -16.485 -23.453  0.00  0.00    +0.081 C 
ATOM     26  C   UNL     1      34.592 -16.630 -24.829  0.00  0.00    +0.019 C 
ATOM     27  C   UNL     1      34.277 -15.508 -25.587  0.00  0.00    +0.003 C 
ATOM     28  C   UNL     1      34.099 -14.259 -23.571  0.00  0.00    +0.099 C 
ATOM     29  C   UNL     1      34.024 -14.296 -24.954  0.00  0.00    +0.021 C 
ENDBRANCH  21  25
ENDBRANCH  17  18
ENDBRANCH  12  17
BRANCH   2  30
ATOM     30  CA  UNL     1      37.493 -23.998 -14.610  0.00  0.00    +0.109 C 
BRANCH  30  31
ATOM     31  C   UNL     1      37.420 -23.008 -13.440  0.00  0.00    +0.023 C 
ATOM     32  C   UNL     1      37.653 -23.674 -12.090  0.00  0.00    +0.002 C 
ENDBRANCH  30  31
BRANCH  30  33
ATOM     33  C   UNL     1      38.853 -24.695 -14.650  0.00  0.00    +0.157 C 
BRANCH  33  34
ATOM     34  O   UNL     1      38.676 -26.053 -15.038  0.00  0.00    -0.380 OA
ATOM     35  H   UNL     1      39.501 -26.390 -15.421  0.00  0.00    +0.211 HD
ENDBRANCH  33  34
ENDBRANCH  30  33
ENDBRANCH   2  30
TORSDOF 8
ENDMDL
