MODEL 1
REMARK VINA RESULT:     -12.0      0.000      0.000
REMARK  Name = 44129624
REMARK  6 active torsions:
REMARK  status: ('A' for Active; 'I' for Inactive)
REMARK    1  A    between atoms: C_1  and  O_20
REMARK    2  A    between atoms: C_4  and  C_8
REMARK    3  A    between atoms: C_8  and  C_9
REMARK    4  A    between atoms: C_10  and  C_16
REMARK    5  A    between atoms: O_20  and  C_21
REMARK    6  A    between atoms: C_21  and  C_23
REMARK                            x       y       z     vdW  Elec       q    Type
REMARK                         _______ _______ _______ _____ _____    ______ ____
ROOT
ATOM      1  C   UNL     1      33.619 -21.945 -18.945  0.00  0.00    +0.138 C 
ATOM      2  C   UNL     1      35.002 -22.041 -18.794  0.00  0.00    +0.037 C 
ATOM      3  C   UNL     1      33.074 -20.973 -19.784  0.00  0.00    +0.037 C 
ATOM      4  C   UNL     1      35.297 -20.194 -20.323  0.00  0.00    +0.039 C 
ATOM      5  C   UNL     1      35.841 -21.166 -19.483  0.00  0.00    +0.006 C 
ATOM      6  C   UNL     1      33.914 -20.097 -20.473  0.00  0.00    +0.006 C 
ENDROOT
BRANCH   4   8
ATOM      7  O   UNL     1      37.403 -19.428 -20.991  0.00  0.00    -0.287 OA
ATOM      8  C   UNL     1      36.173 -19.283 -21.043  0.00  0.00    +0.196 C 
BRANCH   8   9
ATOM      9  C   UNL     1      35.649 -18.150 -21.866  0.00  0.00    +0.039 C 
ATOM     10  C   UNL     1      34.674 -16.036 -23.401  0.00  0.00    +0.001 C 
ATOM     11  C   UNL     1      35.309 -16.944 -21.254  0.00  0.00    +0.003 C 
ATOM     12  C   UNL     1      35.501 -18.300 -23.245  0.00  0.00    +0.003 C 
ATOM     13  C   UNL     1      34.821 -15.887 -22.022  0.00  0.00    +0.000 C 
ATOM     14  C   UNL     1      35.013 -17.243 -24.012  0.00  0.00    +0.000 C 
BRANCH  10  16
ATOM     15  S   UNL     1      33.230 -13.696 -26.227  0.00  0.00    -0.086 S 
ATOM     16  C   UNL     1      34.172 -14.947 -24.191  0.00  0.00    +0.007 C 
ATOM     17  C   UNL     1      34.001 -13.594 -23.779  0.00  0.00    +0.007 C 
ATOM     18  C   UNL     1      33.791 -15.141 -25.500  0.00  0.00    +0.035 C 
ATOM     19  C   UNL     1      33.496 -12.805 -24.789  0.00  0.00    +0.035 C 
ENDBRANCH  10  16
ENDBRANCH   8   9
ENDBRANCH   4   8
BRANCH   1  20
ATOM     20  O   UNL     1      32.792 -22.805 -18.267  0.00  0.00    -0.478 OA
BRANCH  20  21
ATOM     21  C   UNL     1      33.152 -23.122 -16.932  0.00  0.00    +0.184 C 
BRANCH  21  23
ATOM     22  N   UNL     1      30.713 -22.750 -16.678  0.00  0.00    +0.388 N 
ATOM     23  C   UNL     1      31.891 -23.454 -16.150  0.00  0.00    -0.017 C 
ATOM     24  C   UNL     1      31.950 -22.992 -14.703  0.00  0.00    -0.020 C 
ATOM     25  C   UNL     1      30.490 -22.850 -14.301  0.00  0.00    -0.025 C 
ATOM     26  C   UNL     1      29.713 -22.849 -15.609  0.00  0.00    -0.082 C 
ATOM     27  H   UNL     1      30.376 -23.201 -17.529  0.00  0.00    -0.084 HD
ATOM     28  H   UNL     1      30.920 -21.783 -16.925  0.00  0.00    -0.084 HD
ENDBRANCH  21  23
ENDBRANCH  20  21
ENDBRANCH   1  20
TORSDOF 6
ENDMDL
MODEL 2
REMARK VINA RESULT:     -12.0      0.024      1.340
REMARK  Name = 44129624
REMARK  6 active torsions:
REMARK  status: ('A' for Active; 'I' for Inactive)
REMARK    1  A    between atoms: C_1  and  O_20
REMARK    2  A    between atoms: C_4  and  C_8
REMARK    3  A    between atoms: C_8  and  C_9
REMARK    4  A    between atoms: C_10  and  C_16
REMARK    5  A    between atoms: O_20  and  C_21
REMARK    6  A    between atoms: C_21  and  C_23
REMARK                            x       y       z     vdW  Elec       q    Type
REMARK                         _______ _______ _______ _____ _____    ______ ____
ROOT
ATOM      1  C   UNL     1      33.637 -21.940 -18.957  0.00  0.00    +0.138 C 
ATOM      2  C   UNL     1      33.091 -20.962 -19.787  0.00  0.00    +0.037 C 
ATOM      3  C   UNL     1      35.021 -22.043 -18.817  0.00  0.00    +0.037 C 
ATOM      4  C   UNL     1      35.312 -20.187 -20.336  0.00  0.00    +0.039 C 
ATOM      5  C   UNL     1      33.927 -20.085 -20.476  0.00  0.00    +0.006 C 
ATOM      6  C   UNL     1      35.858 -21.166 -19.506  0.00  0.00    +0.006 C 
ENDROOT
BRANCH   4   8
ATOM      7  O   UNL     1      37.415 -19.408 -20.997  0.00  0.00    -0.287 OA
ATOM      8  C   UNL     1      36.184 -19.271 -21.053  0.00  0.00    +0.196 C 
BRANCH   8   9
ATOM      9  C   UNL     1      35.657 -18.141 -21.877  0.00  0.00    +0.039 C 
ATOM     10  C   UNL     1      34.672 -16.032 -23.414  0.00  0.00    +0.001 C 
ATOM     11  C   UNL     1      35.511 -18.293 -23.255  0.00  0.00    +0.003 C 
ATOM     12  C   UNL     1      35.311 -16.935 -21.267  0.00  0.00    +0.003 C 
ATOM     13  C   UNL     1      35.018 -17.238 -24.024  0.00  0.00    +0.000 C 
ATOM     14  C   UNL     1      34.819 -15.881 -22.036  0.00  0.00    +0.000 C 
BRANCH  10  16
ATOM     15  S   UNL     1      33.231 -13.706 -26.254  0.00  0.00    -0.086 S 
ATOM     16  C   UNL     1      34.164 -14.948 -24.207  0.00  0.00    +0.007 C 
ATOM     17  C   UNL     1      33.965 -13.600 -23.794  0.00  0.00    +0.007 C 
ATOM     18  C   UNL     1      33.806 -15.144 -25.523  0.00  0.00    +0.035 C 
ATOM     19  C   UNL     1      33.461 -12.816 -24.809  0.00  0.00    +0.035 C 
ENDBRANCH  10  16
ENDBRANCH   8   9
ENDBRANCH   4   8
BRANCH   1  20
ATOM     20  O   UNL     1      32.814 -22.804 -18.279  0.00  0.00    -0.478 OA
BRANCH  20  21
ATOM     21  C   UNL     1      33.169 -23.111 -16.941  0.00  0.00    +0.184 C 
BRANCH  21  23
ATOM     22  N   UNL     1      30.730 -22.738 -16.693  0.00  0.00    +0.388 N 
ATOM     23  C   UNL     1      31.906 -23.443 -16.162  0.00  0.00    -0.017 C 
ATOM     24  C   UNL     1      31.962 -22.980 -14.714  0.00  0.00    -0.020 C 
ATOM     25  C   UNL     1      30.501 -22.838 -14.316  0.00  0.00    -0.025 C 
ATOM     26  C   UNL     1      29.727 -22.837 -15.627  0.00  0.00    -0.082 C 
ATOM     27  H   UNL     1      30.395 -23.189 -17.544  0.00  0.00    -0.084 HD
ATOM     28  H   UNL     1      30.938 -21.771 -16.940  0.00  0.00    -0.084 HD
ENDBRANCH  21  23
ENDBRANCH  20  21
ENDBRANCH   1  20
TORSDOF 6
ENDMDL
MODEL 3
REMARK VINA RESULT:     -11.0      4.500      9.194
REMARK  Name = 44129624
REMARK  6 active torsions:
REMARK  status: ('A' for Active; 'I' for Inactive)
REMARK    1  A    between atoms: C_1  and  O_20
REMARK    2  A    between atoms: C_4  and  C_8
REMARK    3  A    between atoms: C_8  and  C_9
REMARK    4  A    between atoms: C_10  and  C_16
REMARK    5  A    between atoms: O_20  and  C_21
REMARK    6  A    between atoms: C_21  and  C_23
REMARK                            x       y       z     vdW  Elec       q    Type
REMARK                         _______ _______ _______ _____ _____    ______ ____
ROOT
ATOM      1  C   UNL     1      34.549 -14.952 -22.147  0.00  0.00    +0.138 C 
ATOM      2  C   UNL     1      34.706 -15.610 -23.367  0.00  0.00    +0.037 C 
ATOM      3  C   UNL     1      34.590 -15.675 -20.955  0.00  0.00    +0.037 C 
ATOM      4  C   UNL     1      34.944 -17.713 -22.203  0.00  0.00    +0.039 C 
ATOM      5  C   UNL     1      34.903 -16.989 -23.395  0.00  0.00    +0.006 C 
ATOM      6  C   UNL     1      34.788 -17.056 -20.983  0.00  0.00    +0.006 C 
ENDROOT
BRANCH   4   8
ATOM      7  O   UNL     1      35.533 -19.706 -23.275  0.00  0.00    -0.287 OA
ATOM      8  C   UNL     1      35.153 -19.152 -22.233  0.00  0.00    +0.196 C 
BRANCH   8   9
ATOM      9  C   UNL     1      34.926 -20.020 -21.038  0.00  0.00    +0.039 C 
ATOM     10  C   UNL     1      34.503 -21.639 -18.806  0.00  0.00    +0.001 C 
ATOM     11  C   UNL     1      36.014 -20.573 -20.363  0.00  0.00    +0.003 C 
ATOM     12  C   UNL     1      33.627 -20.276 -20.598  0.00  0.00    +0.003 C 
ATOM     13  C   UNL     1      35.802 -21.383 -19.246  0.00  0.00    +0.000 C 
ATOM     14  C   UNL     1      33.416 -21.086 -19.482  0.00  0.00    +0.000 C 
BRANCH  10  16
ATOM     15  S   UNL     1      34.817 -23.776 -15.507  0.00  0.00    -0.086 S 
ATOM     16  C   UNL     1      34.288 -22.472 -17.657  0.00  0.00    +0.007 C 
ATOM     17  C   UNL     1      33.064 -23.079 -17.252  0.00  0.00    +0.007 C 
ATOM     18  C   UNL     1      35.322 -22.769 -16.797  0.00  0.00    +0.035 C 
ATOM     19  C   UNL     1      33.210 -23.817 -16.097  0.00  0.00    +0.035 C 
ENDBRANCH  10  16
ENDBRANCH   8   9
ENDBRANCH   4   8
BRANCH   1  20
ATOM     20  O   UNL     1      34.354 -13.594 -22.118  0.00  0.00    -0.478 OA
BRANCH  20  21
ATOM     21  C   UNL     1      33.308 -13.079 -22.925  0.00  0.00    +0.184 C 
BRANCH  21  23
ATOM     22  N   UNL     1      32.326 -11.018 -21.955  0.00  0.00    +0.388 N 
ATOM     23  C   UNL     1      32.239 -12.485 -22.021  0.00  0.00    -0.017 C 
ATOM     24  C   UNL     1      32.389 -12.905 -20.567  0.00  0.00    -0.020 C 
ATOM     25  C   UNL     1      31.686 -11.803 -19.790  0.00  0.00    -0.025 C 
ATOM     26  C   UNL     1      31.533 -10.653 -20.776  0.00  0.00    -0.082 C 
ATOM     27  H   UNL     1      31.933 -10.597 -22.797  0.00  0.00    -0.084 HD
ATOM     28  H   UNL     1      33.289 -10.691 -21.890  0.00  0.00    -0.084 HD
ENDBRANCH  21  23
ENDBRANCH  20  21
ENDBRANCH   1  20
TORSDOF 6
ENDMDL
MODEL 4
REMARK VINA RESULT:     -10.8      1.779      2.400
REMARK  Name = 44129624
REMARK  6 active torsions:
REMARK  status: ('A' for Active; 'I' for Inactive)
REMARK    1  A    between atoms: C_1  and  O_20
REMARK    2  A    between atoms: C_4  and  C_8
REMARK    3  A    between atoms: C_8  and  C_9
REMARK    4  A    between atoms: C_10  and  C_16
REMARK    5  A    between atoms: O_20  and  C_21
REMARK    6  A    between atoms: C_21  and  C_23
REMARK                            x       y       z     vdW  Elec       q    Type
REMARK                         _______ _______ _______ _____ _____    ______ ____
ROOT
ATOM      1  C   UNL     1      33.771 -21.880 -19.282  0.00  0.00    +0.138 C 
ATOM      2  C   UNL     1      35.165 -21.850 -19.285  0.00  0.00    +0.037 C 
ATOM      3  C   UNL     1      33.052 -20.922 -19.998  0.00  0.00    +0.037 C 
ATOM      4  C   UNL     1      35.122 -19.907 -20.718  0.00  0.00    +0.039 C 
ATOM      5  C   UNL     1      35.841 -20.865 -20.002  0.00  0.00    +0.006 C 
ATOM      6  C   UNL     1      33.728 -19.936 -20.716  0.00  0.00    +0.006 C 
ENDROOT
BRANCH   4   8
ATOM      7  O   UNL     1      36.945 -19.116 -21.950  0.00  0.00    -0.287 OA
ATOM      8  C   UNL     1      35.827 -18.880 -21.469  0.00  0.00    +0.196 C 
BRANCH   8   9
ATOM      9  C   UNL     1      35.256 -17.518 -21.696  0.00  0.00    +0.039 C 
ATOM     10  C   UNL     1      34.188 -14.976 -22.118  0.00  0.00    +0.001 C 
ATOM     11  C   UNL     1      35.142 -17.017 -22.992  0.00  0.00    +0.003 C 
ATOM     12  C   UNL     1      34.837 -16.748 -20.610  0.00  0.00    +0.003 C 
ATOM     13  C   UNL     1      34.607 -15.746 -23.203  0.00  0.00    +0.000 C 
ATOM     14  C   UNL     1      34.304 -15.477 -20.822  0.00  0.00    +0.000 C 
BRANCH  10  16
ATOM     15  S   UNL     1      32.152 -11.602 -21.987  0.00  0.00    -0.086 S 
ATOM     16  C   UNL     1      33.638 -13.668 -22.338  0.00  0.00    +0.007 C 
ATOM     17  C   UNL     1      34.007 -12.739 -23.354  0.00  0.00    +0.007 C 
ATOM     18  C   UNL     1      32.640 -13.177 -21.525  0.00  0.00    +0.035 C 
ATOM     19  C   UNL     1      33.276 -11.573 -23.278  0.00  0.00    +0.035 C 
ENDBRANCH  10  16
ENDBRANCH   8   9
ENDBRANCH   4   8
BRANCH   1  20
ATOM     20  O   UNL     1      33.105 -22.850 -18.576  0.00  0.00    -0.478 OA
BRANCH  20  21
ATOM     21  C   UNL     1      32.728 -22.530 -17.246  0.00  0.00    +0.184 C 
BRANCH  21  23
ATOM     22  N   UNL     1      32.668 -23.652 -15.035  0.00  0.00    +0.388 N 
ATOM     23  C   UNL     1      33.409 -23.503 -16.296  0.00  0.00    -0.017 C 
ATOM     24  C   UNL     1      34.779 -23.027 -15.839  0.00  0.00    -0.020 C 
ATOM     25  C   UNL     1      35.000 -23.753 -14.520  0.00  0.00    -0.025 C 
ATOM     26  C   UNL     1      33.627 -24.270 -14.113  0.00  0.00    -0.082 C 
ATOM     27  H   UNL     1      31.855 -24.253 -15.164  0.00  0.00    -0.084 HD
ATOM     28  H   UNL     1      32.316 -22.760 -14.687  0.00  0.00    -0.084 HD
ENDBRANCH  21  23
ENDBRANCH  20  21
ENDBRANCH   1  20
TORSDOF 6
ENDMDL
MODEL 5
REMARK VINA RESULT:     -10.6      4.811     10.107
REMARK  Name = 44129624
REMARK  6 active torsions:
REMARK  status: ('A' for Active; 'I' for Inactive)
REMARK    1  A    between atoms: C_1  and  O_20
REMARK    2  A    between atoms: C_4  and  C_8
REMARK    3  A    between atoms: C_8  and  C_9
REMARK    4  A    between atoms: C_10  and  C_16
REMARK    5  A    between atoms: O_20  and  C_21
REMARK    6  A    between atoms: C_21  and  C_23
REMARK                            x       y       z     vdW  Elec       q    Type
REMARK                         _______ _______ _______ _____ _____    ______ ____
ROOT
ATOM      1  C   UNL     1      35.771 -19.337 -20.987  0.00  0.00    +0.138 C 
ATOM      2  C   UNL     1      36.665 -20.172 -20.318  0.00  0.00    +0.037 C 
ATOM      3  C   UNL     1      34.398 -19.560 -20.883  0.00  0.00    +0.037 C 
ATOM      4  C   UNL     1      34.815 -21.452 -19.440  0.00  0.00    +0.039 C 
ATOM      5  C   UNL     1      36.188 -21.229 -19.544  0.00  0.00    +0.006 C 
ATOM      6  C   UNL     1      33.920 -20.618 -20.109  0.00  0.00    +0.006 C 
ENDROOT
BRANCH   4   8
ATOM      7  O   UNL     1      33.493 -23.351 -19.102  0.00  0.00    -0.287 OA
ATOM      8  C   UNL     1      34.317 -22.553 -18.631  0.00  0.00    +0.196 C 
BRANCH   8   9
ATOM      9  C   UNL     1      34.761 -22.777 -17.222  0.00  0.00    +0.039 C 
ATOM     10  C   UNL     1      35.590 -23.196 -14.592  0.00  0.00    +0.001 C 
ATOM     11  C   UNL     1      33.898 -23.381 -16.307  0.00  0.00    +0.003 C 
ATOM     12  C   UNL     1      36.037 -22.383 -16.821  0.00  0.00    +0.003 C 
ATOM     13  C   UNL     1      34.313 -23.590 -14.992  0.00  0.00    +0.000 C 
ATOM     14  C   UNL     1      36.452 -22.592 -15.506  0.00  0.00    +0.000 C 
BRANCH  10  16
ATOM     15  S   UNL     1      35.928 -24.203 -10.794  0.00  0.00    -0.086 S 
ATOM     16  C   UNL     1      36.015 -23.414 -13.238  0.00  0.00    +0.007 C 
ATOM     17  C   UNL     1      37.252 -23.019 -12.650  0.00  0.00    +0.007 C 
ATOM     18  C   UNL     1      35.201 -24.068 -12.339  0.00  0.00    +0.035 C 
ATOM     19  C   UNL     1      37.336 -23.386 -11.325  0.00  0.00    +0.035 C 
ENDBRANCH  10  16
ENDBRANCH   8   9
ENDBRANCH   4   8
BRANCH   1  20
ATOM     20  O   UNL     1      36.241 -18.297 -21.749  0.00  0.00    -0.478 OA
BRANCH  20  21
ATOM     21  C   UNL     1      35.371 -17.790 -22.748  0.00  0.00    +0.184 C 
BRANCH  21  23
ATOM     22  N   UNL     1      34.655 -15.912 -21.294  0.00  0.00    +0.388 N 
ATOM     23  C   UNL     1      35.260 -16.283 -22.582  0.00  0.00    -0.017 C 
ATOM     24  C   UNL     1      34.328 -15.640 -23.598  0.00  0.00    -0.020 C 
ATOM     25  C   UNL     1      33.887 -14.348 -22.928  0.00  0.00    -0.025 C 
ATOM     26  C   UNL     1      34.256 -14.511 -21.461  0.00  0.00    -0.082 C 
ATOM     27  H   UNL     1      35.334 -16.006 -20.538  0.00  0.00    -0.084 HD
ATOM     28  H   UNL     1      33.867 -16.512 -21.050  0.00  0.00    -0.084 HD
ENDBRANCH  21  23
ENDBRANCH  20  21
ENDBRANCH   1  20
TORSDOF 6
ENDMDL
MODEL 6
REMARK VINA RESULT:     -10.4      2.985      3.976
REMARK  Name = 44129624
REMARK  6 active torsions:
REMARK  status: ('A' for Active; 'I' for Inactive)
REMARK    1  A    between atoms: C_1  and  O_20
REMARK    2  A    between atoms: C_4  and  C_8
REMARK    3  A    between atoms: C_8  and  C_9
REMARK    4  A    between atoms: C_10  and  C_16
REMARK    5  A    between atoms: O_20  and  C_21
REMARK    6  A    between atoms: C_21  and  C_23
REMARK                            x       y       z     vdW  Elec       q    Type
REMARK                         _______ _______ _______ _____ _____    ______ ____
ROOT
ATOM      1  C   UNL     1      35.858 -20.887 -19.706  0.00  0.00    +0.138 C 
ATOM      2  C   UNL     1      36.957 -20.114 -20.078  0.00  0.00    +0.037 C 
ATOM      3  C   UNL     1      34.596 -20.603 -20.228  0.00  0.00    +0.037 C 
ATOM      4  C   UNL     1      35.534 -18.772 -21.494  0.00  0.00    +0.039 C 
ATOM      5  C   UNL     1      36.796 -19.057 -20.971  0.00  0.00    +0.006 C 
ATOM      6  C   UNL     1      34.435 -19.545 -21.122  0.00  0.00    +0.006 C 
ENDROOT
BRANCH   4   8
ATOM      7  O   UNL     1      35.842 -17.742 -23.571  0.00  0.00    -0.287 OA
ATOM      8  C   UNL     1      35.366 -17.670 -22.428  0.00  0.00    +0.196 C 
BRANCH   8   9
ATOM      9  C   UNL     1      34.628 -16.421 -22.071  0.00  0.00    +0.039 C 
ATOM     10  C   UNL     1      33.249 -14.090 -21.403  0.00  0.00    +0.001 C 
ATOM     11  C   UNL     1      34.171 -15.569 -23.076  0.00  0.00    +0.003 C 
ATOM     12  C   UNL     1      34.396 -16.106 -20.731  0.00  0.00    +0.003 C 
ATOM     13  C   UNL     1      33.481 -14.404 -22.742  0.00  0.00    +0.000 C 
ATOM     14  C   UNL     1      33.707 -14.941 -20.398  0.00  0.00    +0.000 C 
BRANCH  10  16
ATOM     15  S   UNL     1      31.259 -11.188 -19.622  0.00  0.00    -0.086 S 
ATOM     16  C   UNL     1      32.538 -12.890 -21.061  0.00  0.00    +0.007 C 
ATOM     17  C   UNL     1      32.225 -11.800 -21.923  0.00  0.00    +0.007 C 
ATOM     18  C   UNL     1      32.071 -12.687 -19.780  0.00  0.00    +0.035 C 
ATOM     19  C   UNL     1      31.531 -10.806 -21.269  0.00  0.00    +0.035 C 
ENDBRANCH  10  16
ENDBRANCH   8   9
ENDBRANCH   4   8
BRANCH   1  20
ATOM     20  O   UNL     1      36.016 -21.929 -18.825  0.00  0.00    -0.478 OA
BRANCH  20  21
ATOM     21  C   UNL     1      36.893 -21.716 -17.732  0.00  0.00    +0.184 C 
BRANCH  21  23
ATOM     22  N   UNL     1      36.994 -23.403 -15.916  0.00  0.00    +0.388 N 
ATOM     23  C   UNL     1      36.246 -22.264 -16.470  0.00  0.00    -0.017 C 
ATOM     24  C   UNL     1      34.863 -22.847 -16.717  0.00  0.00    -0.020 C 
ATOM     25  C   UNL     1      34.668 -23.831 -15.573  0.00  0.00    -0.025 C 
ATOM     26  C   UNL     1      36.057 -24.045 -14.988  0.00  0.00    -0.082 C 
ATOM     27  H   UNL     1      37.825 -23.079 -15.421  0.00  0.00    -0.084 HD
ATOM     28  H   UNL     1      37.319 -24.041 -16.642  0.00  0.00    -0.084 HD
ENDBRANCH  21  23
ENDBRANCH  20  21
ENDBRANCH   1  20
TORSDOF 6
ENDMDL
MODEL 7
REMARK VINA RESULT:     -10.4      3.921      6.606
REMARK  Name = 44129624
REMARK  6 active torsions:
REMARK  status: ('A' for Active; 'I' for Inactive)
REMARK    1  A    between atoms: C_1  and  O_20
REMARK    2  A    between atoms: C_4  and  C_8
REMARK    3  A    between atoms: C_8  and  C_9
REMARK    4  A    between atoms: C_10  and  C_16
REMARK    5  A    between atoms: O_20  and  C_21
REMARK    6  A    between atoms: C_21  and  C_23
REMARK                            x       y       z     vdW  Elec       q    Type
REMARK                         _______ _______ _______ _____ _____    ______ ____
ROOT
ATOM      1  C   UNL     1      35.155 -16.978 -21.360  0.00  0.00    +0.138 C 
ATOM      2  C   UNL     1      35.251 -17.037 -22.750  0.00  0.00    +0.037 C 
ATOM      3  C   UNL     1      34.483 -15.918 -20.751  0.00  0.00    +0.037 C 
ATOM      4  C   UNL     1      34.001 -14.977 -22.924  0.00  0.00    +0.039 C 
ATOM      5  C   UNL     1      34.674 -16.037 -23.532  0.00  0.00    +0.006 C 
ATOM      6  C   UNL     1      33.905 -14.918 -21.534  0.00  0.00    +0.006 C 
ENDROOT
BRANCH   4   8
ATOM      7  O   UNL     1      33.103 -14.162 -24.923  0.00  0.00    -0.287 OA
ATOM      8  C   UNL     1      33.398 -13.936 -23.740  0.00  0.00    +0.196 C 
BRANCH   8   9
ATOM      9  C   UNL     1      33.106 -12.570 -23.210  0.00  0.00    +0.039 C 
ATOM     10  C   UNL     1      32.562 -10.019 -22.219  0.00  0.00    +0.001 C 
ATOM     11  C   UNL     1      32.191 -12.407 -22.170  0.00  0.00    +0.003 C 
ATOM     12  C   UNL     1      33.748 -11.458 -23.755  0.00  0.00    +0.003 C 
ATOM     13  C   UNL     1      31.919 -11.131 -21.675  0.00  0.00    +0.000 C 
ATOM     14  C   UNL     1      33.476 -10.183 -23.260  0.00  0.00    +0.000 C 
BRANCH  10  16
ATOM     15  S   UNL     1      31.352  -6.313 -21.626  0.00  0.00    -0.086 S 
ATOM     16  C   UNL     1      32.281  -8.707 -21.708  0.00  0.00    +0.007 C 
ATOM     17  C   UNL     1      32.681  -8.171 -20.450  0.00  0.00    +0.007 C 
ATOM     18  C   UNL     1      31.552  -7.803 -22.448  0.00  0.00    +0.035 C 
ATOM     19  C   UNL     1      32.242  -6.877 -20.276  0.00  0.00    +0.035 C 
ENDBRANCH  10  16
ENDBRANCH   8   9
ENDBRANCH   4   8
BRANCH   1  20
ATOM     20  O   UNL     1      35.723 -17.961 -20.589  0.00  0.00    -0.478 OA
BRANCH  20  21
ATOM     21  C   UNL     1      36.183 -19.120 -21.264  0.00  0.00    +0.184 C 
BRANCH  21  23
ATOM     22  N   UNL     1      33.942 -19.845 -20.487  0.00  0.00    +0.388 N 
ATOM     23  C   UNL     1      35.281 -20.289 -20.902  0.00  0.00    -0.017 C 
ATOM     24  C   UNL     1      35.775 -21.070 -19.695  0.00  0.00    -0.020 C 
ATOM     25  C   UNL     1      34.522 -21.738 -19.149  0.00  0.00    -0.025 C 
ATOM     26  C   UNL     1      33.360 -21.007 -19.807  0.00  0.00    -0.082 C 
ATOM     27  H   UNL     1      33.382 -19.586 -21.299  0.00  0.00    -0.084 HD
ATOM     28  H   UNL     1      33.977 -19.022 -19.886  0.00  0.00    -0.084 HD
ENDBRANCH  21  23
ENDBRANCH  20  21
ENDBRANCH   1  20
TORSDOF 6
ENDMDL
MODEL 8
REMARK VINA RESULT:     -10.3      3.748      6.511
REMARK  Name = 44129624
REMARK  6 active torsions:
REMARK  status: ('A' for Active; 'I' for Inactive)
REMARK    1  A    between atoms: C_1  and  O_20
REMARK    2  A    between atoms: C_4  and  C_8
REMARK    3  A    between atoms: C_8  and  C_9
REMARK    4  A    between atoms: C_10  and  C_16
REMARK    5  A    between atoms: O_20  and  C_21
REMARK    6  A    between atoms: C_21  and  C_23
REMARK                            x       y       z     vdW  Elec       q    Type
REMARK                         _______ _______ _______ _____ _____    ______ ____
ROOT
ATOM      1  C   UNL     1      35.141 -17.094 -21.396  0.00  0.00    +0.138 C 
ATOM      2  C   UNL     1      34.534 -15.966 -20.845  0.00  0.00    +0.037 C 
ATOM      3  C   UNL     1      35.219 -17.238 -22.781  0.00  0.00    +0.037 C 
ATOM      4  C   UNL     1      34.085 -15.123 -23.063  0.00  0.00    +0.039 C 
ATOM      5  C   UNL     1      34.007 -14.980 -21.678  0.00  0.00    +0.006 C 
ATOM      6  C   UNL     1      34.692 -16.251 -23.614  0.00  0.00    +0.006 C 
ENDROOT
BRANCH   4   8
ATOM      7  O   UNL     1      33.199 -14.371 -25.092  0.00  0.00    -0.287 OA
ATOM      8  C   UNL     1      33.537 -14.094 -23.932  0.00  0.00    +0.196 C 
BRANCH   8   9
ATOM      9  C   UNL     1      33.356 -12.680 -23.484  0.00  0.00    +0.039 C 
ATOM     10  C   UNL     1      33.016 -10.040 -22.648  0.00  0.00    +0.001 C 
ATOM     11  C   UNL     1      34.082 -11.657 -24.093  0.00  0.00    +0.003 C 
ATOM     12  C   UNL     1      32.460 -12.383 -22.456  0.00  0.00    +0.003 C 
ATOM     13  C   UNL     1      33.912 -10.337 -23.675  0.00  0.00    +0.000 C 
ATOM     14  C   UNL     1      32.291 -11.064 -22.038  0.00  0.00    +0.000 C 
BRANCH  10  16
ATOM     15  S   UNL     1      32.235  -6.708 -20.689  0.00  0.00    -0.086 S 
ATOM     16  C   UNL     1      32.842  -8.681 -22.219  0.00  0.00    +0.007 C 
ATOM     17  C   UNL     1      33.125  -7.501 -22.965  0.00  0.00    +0.007 C 
ATOM     18  C   UNL     1      32.351  -8.395 -20.964  0.00  0.00    +0.035 C 
ATOM     19  C   UNL     1      32.841  -6.357 -22.252  0.00  0.00    +0.035 C 
ENDBRANCH  10  16
ENDBRANCH   8   9
ENDBRANCH   4   8
BRANCH   1  20
ATOM     20  O   UNL     1      35.660 -18.065 -20.576  0.00  0.00    -0.478 OA
BRANCH  20  21
ATOM     21  C   UNL     1      36.173 -19.228 -21.205  0.00  0.00    +0.184 C 
BRANCH  21  23
ATOM     22  N   UNL     1      33.964 -20.013 -20.392  0.00  0.00    +0.388 N 
ATOM     23  C   UNL     1      35.315 -20.419 -20.806  0.00  0.00    -0.017 C 
ATOM     24  C   UNL     1      35.847 -21.151 -19.584  0.00  0.00    -0.020 C 
ATOM     25  C   UNL     1      34.622 -21.849 -19.011  0.00  0.00    -0.025 C 
ATOM     26  C   UNL     1      33.430 -21.177 -19.678  0.00  0.00    -0.082 C 
ATOM     27  H   UNL     1      33.390 -19.795 -21.206  0.00  0.00    -0.084 HD
ATOM     28  H   UNL     1      33.975 -19.174 -19.811  0.00  0.00    -0.084 HD
ENDBRANCH  21  23
ENDBRANCH  20  21
ENDBRANCH   1  20
TORSDOF 6
ENDMDL
MODEL 9
REMARK VINA RESULT:     -10.2      5.159     10.001
REMARK  Name = 44129624
REMARK  6 active torsions:
REMARK  status: ('A' for Active; 'I' for Inactive)
REMARK    1  A    between atoms: C_1  and  O_20
REMARK    2  A    between atoms: C_4  and  C_8
REMARK    3  A    between atoms: C_8  and  C_9
REMARK    4  A    between atoms: C_10  and  C_16
REMARK    5  A    between atoms: O_20  and  C_21
REMARK    6  A    between atoms: C_21  and  C_23
REMARK                            x       y       z     vdW  Elec       q    Type
REMARK                         _______ _______ _______ _____ _____    ______ ____
ROOT
ATOM      1  C   UNL     1      33.404 -12.129 -23.234  0.00  0.00    +0.138 C 
ATOM      2  C   UNL     1      33.351 -13.163 -22.300  0.00  0.00    +0.037 C 
ATOM      3  C   UNL     1      33.874 -12.378 -24.524  0.00  0.00    +0.037 C 
ATOM      4  C   UNL     1      34.238 -14.695 -23.944  0.00  0.00    +0.039 C 
ATOM      5  C   UNL     1      33.768 -14.445 -22.654  0.00  0.00    +0.006 C 
ATOM      6  C   UNL     1      34.291 -13.661 -24.878  0.00  0.00    +0.006 C 
ENDROOT
BRANCH   4   8
ATOM      7  O   UNL     1      34.927 -16.301 -25.497  0.00  0.00    -0.287 OA
ATOM      8  C   UNL     1      34.670 -16.033 -24.314  0.00  0.00    +0.196 C 
BRANCH   8   9
ATOM      9  C   UNL     1      34.824 -17.131 -23.312  0.00  0.00    +0.039 C 
ATOM     10  C   UNL     1      35.112 -19.181 -21.443  0.00  0.00    +0.001 C 
ATOM     11  C   UNL     1      34.715 -18.462 -23.715  0.00  0.00    +0.003 C 
ATOM     12  C   UNL     1      35.075 -16.825 -21.975  0.00  0.00    +0.003 C 
ATOM     13  C   UNL     1      34.860 -19.487 -22.780  0.00  0.00    +0.000 C 
ATOM     14  C   UNL     1      35.219 -17.850 -21.040  0.00  0.00    +0.000 C 
BRANCH  10  16
ATOM     15  S   UNL     1      34.595 -22.119 -18.863  0.00  0.00    -0.086 S 
ATOM     16  C   UNL     1      35.261 -20.237 -20.482  0.00  0.00    +0.007 C 
ATOM     17  C   UNL     1      36.477 -20.726 -19.922  0.00  0.00    +0.007 C 
ATOM     18  C   UNL     1      34.161 -20.906 -19.992  0.00  0.00    +0.035 C 
ATOM     19  C   UNL     1      36.259 -21.750 -19.027  0.00  0.00    +0.035 C 
ENDBRANCH  10  16
ENDBRANCH   8   9
ENDBRANCH   4   8
BRANCH   1  20
ATOM     20  O   UNL     1      32.995 -10.866 -22.886  0.00  0.00    -0.478 OA
BRANCH  20  21
ATOM     21  C   UNL     1      32.001 -10.769 -21.880  0.00  0.00    +0.184 C 
BRANCH  21  23
ATOM     22  N   UNL     1      32.818  -8.444 -22.167  0.00  0.00    +0.388 N 
ATOM     23  C   UNL     1      31.836  -9.307 -21.493  0.00  0.00    -0.017 C 
ATOM     24  C   UNL     1      32.105  -9.049 -20.018  0.00  0.00    -0.020 C 
ATOM     25  C   UNL     1      32.485  -7.578 -19.965  0.00  0.00    -0.025 C 
ATOM     26  C   UNL     1      32.795  -7.191 -21.404  0.00  0.00    -0.082 C 
ATOM     27  H   UNL     1      32.546  -8.280 -23.136  0.00  0.00    -0.084 HD
ATOM     28  H   UNL     1      33.747  -8.864 -22.194  0.00  0.00    -0.084 HD
ENDBRANCH  21  23
ENDBRANCH  20  21
ENDBRANCH   1  20
TORSDOF 6
ENDMDL
