MODEL 1
REMARK VINA RESULT:     -13.2      0.000      0.000
REMARK  Name = 10138993
REMARK  4 active torsions:
REMARK  status: ('A' for Active; 'I' for Inactive)
REMARK    1  A    between atoms: C_5  and  N_18
REMARK    2  A    between atoms: C_12  and  C_22
REMARK    3  A    between atoms: C_22  and  C_26
REMARK    4  A    between atoms: C_23  and  N_29
REMARK                            x       y       z     vdW  Elec       q    Type
REMARK                         _______ _______ _______ _____ _____    ______ ____
ROOT
ATOM      1  O   UNL     1      33.392 -20.916 -20.587  0.00  0.00    -0.274 OA
ATOM      2  N   UNL     1      32.240 -23.141 -17.212  0.00  0.00    -0.275 N 
ATOM      3  N   UNL     1      34.796 -21.463 -18.785  0.00  0.00    -0.268 N 
ATOM      4  N   UNL     1      32.678 -22.424 -18.260  0.00  0.00    -0.157 NA
ATOM      5  C   UNL     1      35.479 -23.480 -14.725  0.00  0.00    +0.069 C 
ATOM      6  C   UNL     1      35.512 -22.796 -15.947  0.00  0.00    +0.020 C 
ATOM      7  C   UNL     1      34.308 -24.096 -14.278  0.00  0.00    +0.018 C 
ATOM      8  C   UNL     1      34.339 -22.744 -16.719  0.00  0.00    +0.052 A 
ATOM      9  C   UNL     1      33.188 -23.368 -16.251  0.00  0.00    +0.077 A 
ATOM     10  C   UNL     1      33.133 -24.054 -15.036  0.00  0.00    +0.020 C 
ATOM     11  C   UNL     1      33.945 -22.194 -17.946  0.00  0.00    +0.155 A 
ATOM     12  C   UNL     1      34.475 -20.889 -20.012  0.00  0.00    +0.232 C 
ATOM     13  H   UNL     1      31.316 -23.475 -17.141  0.00  0.00    +0.189 HD
ATOM     14  H   UNL     1      35.721 -21.342 -18.473  0.00  0.00    +0.156 HD
ENDROOT
BRANCH   5  18
ATOM     15  S   UNL     1      37.948 -24.632 -14.398  0.00  0.00    +0.057 S 
ATOM     16  O   UNL     1      37.391 -25.886 -14.866  0.00  0.00    -0.154 OA
ATOM     17  O   UNL     1      38.942 -23.901 -15.155  0.00  0.00    -0.154 OA
ATOM     18  N   UNL     1      36.680 -23.545 -13.911  0.00  0.00    -0.194 N 
ATOM     19  C   UNL     1      38.551 -24.884 -12.735  0.00  0.00    +0.174 C 
ATOM     20  C   UNL     1      38.022 -23.705 -11.937  0.00  0.00    +0.051 C 
ATOM     21  C   UNL     1      36.594 -23.472 -12.424  0.00  0.00    +0.117 C 
ENDBRANCH   5  18
BRANCH  12  22
ATOM     22  C   UNL     1      35.685 -20.175 -20.610  0.00  0.00    +0.112 C 
BRANCH  22  26
ATOM     23  C   UNL     1      34.678 -16.755 -23.028  0.00  0.00    +0.048 C 
ATOM     24  C   UNL     1      34.882 -18.020 -23.613  0.00  0.00    +0.014 C 
ATOM     25  C   UNL     1      34.812 -16.640 -21.631  0.00  0.00    +0.014 C 
ATOM     26  C   UNL     1      35.336 -18.991 -21.447  0.00  0.00    -0.013 C 
ATOM     27  C   UNL     1      35.208 -19.128 -22.830  0.00  0.00    -0.003 C 
ATOM     28  C   UNL     1      35.138 -17.747 -20.849  0.00  0.00    -0.003 C 
BRANCH  23  29
ATOM     29  N   UNL     1      34.349 -15.644 -23.815  0.00  0.00    -0.307 N 
ATOM     30  C   UNL     1      33.801 -13.371 -25.507  0.00  0.00    +0.004 C 
ATOM     31  C   UNL     1      33.717 -13.270 -23.990  0.00  0.00    +0.021 C 
ATOM     32  C   UNL     1      33.483 -14.791 -25.958  0.00  0.00    +0.021 C 
ATOM     33  C   UNL     1      34.620 -14.294 -23.304  0.00  0.00    +0.091 C 
ATOM     34  C   UNL     1      34.392 -15.810 -25.275  0.00  0.00    +0.091 C 
ENDBRANCH  23  29
ENDBRANCH  22  26
ENDBRANCH  12  22
TORSDOF 4
ENDMDL
MODEL 2
REMARK VINA RESULT:     -11.6      1.874      2.604
REMARK  Name = 10138993
REMARK  4 active torsions:
REMARK  status: ('A' for Active; 'I' for Inactive)
REMARK    1  A    between atoms: C_5  and  N_18
REMARK    2  A    between atoms: C_12  and  C_22
REMARK    3  A    between atoms: C_22  and  C_26
REMARK    4  A    between atoms: C_23  and  N_29
REMARK                            x       y       z     vdW  Elec       q    Type
REMARK                         _______ _______ _______ _____ _____    ______ ____
ROOT
ATOM      1  O   UNL     1      32.881 -22.225 -18.942  0.00  0.00    -0.274 OA
ATOM      2  N   UNL     1      31.762 -23.754 -15.190  0.00  0.00    -0.275 N 
ATOM      3  N   UNL     1      34.373 -22.935 -17.272  0.00  0.00    -0.268 N 
ATOM      4  N   UNL     1      32.193 -23.275 -16.368  0.00  0.00    -0.157 NA
ATOM      5  C   UNL     1      35.169 -24.663 -13.101  0.00  0.00    +0.069 C 
ATOM      6  C   UNL     1      35.176 -24.129 -14.396  0.00  0.00    +0.020 C 
ATOM      7  C   UNL     1      33.967 -24.918 -12.436  0.00  0.00    +0.018 C 
ATOM      8  C   UNL     1      33.946 -23.856 -15.017  0.00  0.00    +0.052 A 
ATOM      9  C   UNL     1      32.765 -24.121 -14.333  0.00  0.00    +0.077 A 
ATOM     10  C   UNL     1      32.734 -24.652 -13.041  0.00  0.00    +0.020 C 
ATOM     11  C   UNL     1      33.511 -23.344 -16.247  0.00  0.00    +0.155 A 
ATOM     12  C   UNL     1      34.014 -22.419 -18.514  0.00  0.00    +0.232 C 
ATOM     13  H   UNL     1      30.808 -23.836 -14.963  0.00  0.00    +0.189 HD
ATOM     14  H   UNL     1      35.337 -23.023 -17.096  0.00  0.00    +0.156 HD
ENDROOT
BRANCH   5  18
ATOM     15  S   UNL     1      37.028 -23.811 -11.270  0.00  0.00    +0.057 S 
ATOM     16  O   UNL     1      36.812 -22.452 -11.729  0.00  0.00    -0.154 OA
ATOM     17  O   UNL     1      36.650 -24.245  -9.942  0.00  0.00    -0.154 OA
ATOM     18  N   UNL     1      36.429 -24.952 -12.440  0.00  0.00    -0.194 N 
ATOM     19  C   UNL     1      38.743 -24.221 -11.553  0.00  0.00    +0.174 C 
ATOM     20  C   UNL     1      38.723 -25.592 -12.208  0.00  0.00    +0.051 C 
ATOM     21  C   UNL     1      37.557 -25.571 -13.194  0.00  0.00    +0.117 C 
ENDBRANCH   5  18
BRANCH  12  22
ATOM     22  C   UNL     1      35.253 -22.093 -19.345  0.00  0.00    +0.112 C 
BRANCH  22  26
ATOM     23  C   UNL     1      34.977 -18.388 -21.523  0.00  0.00    +0.048 C 
ATOM     24  C   UNL     1      36.228 -18.920 -21.156  0.00  0.00    +0.014 C 
ATOM     25  C   UNL     1      33.819 -19.101 -21.159  0.00  0.00    +0.014 C 
ATOM     26  C   UNL     1      35.157 -20.810 -20.100  0.00  0.00    -0.013 C 
ATOM     27  C   UNL     1      36.318 -20.119 -20.451  0.00  0.00    -0.003 C 
ATOM     28  C   UNL     1      33.909 -20.301 -20.453  0.00  0.00    -0.003 C 
BRANCH  23  29
ATOM     29  N   UNL     1      34.887 -17.183 -22.232  0.00  0.00    -0.307 N 
ATOM     30  C   UNL     1      34.847 -14.711 -23.722  0.00  0.00    +0.004 C 
ATOM     31  C   UNL     1      34.277 -14.798 -22.312  0.00  0.00    +0.021 C 
ATOM     32  C   UNL     1      34.730 -16.061 -24.421  0.00  0.00    +0.021 C 
ATOM     33  C   UNL     1      34.941 -15.911 -21.502  0.00  0.00    +0.091 C 
ATOM     34  C   UNL     1      35.400 -17.168 -23.610  0.00  0.00    +0.091 C 
ENDBRANCH  23  29
ENDBRANCH  22  26
ENDBRANCH  12  22
TORSDOF 4
ENDMDL
MODEL 3
REMARK VINA RESULT:     -10.9      3.020      4.969
REMARK  Name = 10138993
REMARK  4 active torsions:
REMARK  status: ('A' for Active; 'I' for Inactive)
REMARK    1  A    between atoms: C_5  and  N_18
REMARK    2  A    between atoms: C_12  and  C_22
REMARK    3  A    between atoms: C_22  and  C_26
REMARK    4  A    between atoms: C_23  and  N_29
REMARK                            x       y       z     vdW  Elec       q    Type
REMARK                         _______ _______ _______ _____ _____    ______ ____
ROOT
ATOM      1  O   UNL     1      37.574 -21.706 -17.968  0.00  0.00    -0.274 OA
ATOM      2  N   UNL     1      35.845 -22.754 -14.283  0.00  0.00    -0.275 N 
ATOM      3  N   UNL     1      35.363 -22.441 -17.673  0.00  0.00    -0.268 N 
ATOM      4  N   UNL     1      36.330 -22.435 -15.494  0.00  0.00    -0.157 NA
ATOM      5  C   UNL     1      31.963 -23.884 -14.957  0.00  0.00    +0.069 C 
ATOM      6  C   UNL     1      32.835 -23.471 -15.972  0.00  0.00    +0.020 C 
ATOM      7  C   UNL     1      32.384 -23.934 -13.626  0.00  0.00    +0.018 C 
ATOM      8  C   UNL     1      34.146 -23.106 -15.625  0.00  0.00    +0.052 A 
ATOM      9  C   UNL     1      34.538 -23.164 -14.292  0.00  0.00    +0.077 A 
ATOM     10  C   UNL     1      33.686 -23.573 -13.264  0.00  0.00    +0.020 C 
ATOM     11  C   UNL     1      35.293 -22.653 -16.290  0.00  0.00    +0.155 A 
ATOM     12  C   UNL     1      36.463 -21.996 -18.400  0.00  0.00    +0.232 C 
ATOM     13  H   UNL     1      36.381 -22.696 -13.460  0.00  0.00    +0.189 HD
ATOM     14  H   UNL     1      34.545 -22.628 -18.187  0.00  0.00    +0.156 HD
ENDROOT
BRANCH   5  18
ATOM     15  S   UNL     1      29.434 -23.006 -15.561  0.00  0.00    +0.057 S 
ATOM     16  O   UNL     1      29.606 -21.940 -14.594  0.00  0.00    -0.154 OA
ATOM     17  O   UNL     1      29.325 -22.748 -16.982  0.00  0.00    -0.154 OA
ATOM     18  N   UNL     1      30.604 -24.267 -15.294  0.00  0.00    -0.194 N 
ATOM     19  C   UNL     1      28.046 -24.003 -15.041  0.00  0.00    +0.174 C 
ATOM     20  C   UNL     1      28.524 -25.441 -15.151  0.00  0.00    +0.051 C 
ATOM     21  C   UNL     1      29.964 -25.447 -14.644  0.00  0.00    +0.117 C 
ENDBRANCH   5  18
BRANCH  12  22
ATOM     22  C   UNL     1      36.129 -21.899 -19.887  0.00  0.00    +0.112 C 
BRANCH  22  26
ATOM     23  C   UNL     1      35.224 -17.904 -21.219  0.00  0.00    +0.048 C 
ATOM     24  C   UNL     1      34.198 -18.843 -21.000  0.00  0.00    +0.014 C 
ATOM     25  C   UNL     1      36.554 -18.306 -20.990  0.00  0.00    +0.014 C 
ATOM     26  C   UNL     1      35.816 -20.515 -20.348  0.00  0.00    -0.013 C 
ATOM     27  C   UNL     1      34.491 -20.137 -20.569  0.00  0.00    -0.003 C 
ATOM     28  C   UNL     1      36.847 -19.600 -20.559  0.00  0.00    -0.003 C 
BRANCH  23  29
ATOM     29  N   UNL     1      34.929 -16.604 -21.651  0.00  0.00    -0.307 N 
ATOM     30  C   UNL     1      34.182 -13.949 -22.501  0.00  0.00    +0.004 C 
ATOM     31  C   UNL     1      34.928 -14.899 -23.429  0.00  0.00    +0.021 C 
ATOM     32  C   UNL     1      34.534 -14.248 -21.048  0.00  0.00    +0.021 C 
ATOM     33  C   UNL     1      34.660 -16.361 -23.073  0.00  0.00    +0.091 C 
ATOM     34  C   UNL     1      34.260 -15.708 -20.697  0.00  0.00    +0.091 C 
ENDBRANCH  23  29
ENDBRANCH  22  26
ENDBRANCH  12  22
TORSDOF 4
ENDMDL
MODEL 4
REMARK VINA RESULT:     -10.4      2.577      3.754
REMARK  Name = 10138993
REMARK  4 active torsions:
REMARK  status: ('A' for Active; 'I' for Inactive)
REMARK    1  A    between atoms: C_5  and  N_18
REMARK    2  A    between atoms: C_12  and  C_22
REMARK    3  A    between atoms: C_22  and  C_26
REMARK    4  A    between atoms: C_23  and  N_29
REMARK                            x       y       z     vdW  Elec       q    Type
REMARK                         _______ _______ _______ _____ _____    ______ ____
ROOT
ATOM      1  O   UNL     1      37.323 -20.426 -19.971  0.00  0.00    -0.274 OA
ATOM      2  N   UNL     1      37.734 -21.736 -15.998  0.00  0.00    -0.275 N 
ATOM      3  N   UNL     1      35.669 -21.552 -18.740  0.00  0.00    -0.268 N 
ATOM      4  N   UNL     1      37.532 -21.346 -17.267  0.00  0.00    -0.157 NA
ATOM      5  C   UNL     1      34.243 -23.566 -14.877  0.00  0.00    +0.069 C 
ATOM      6  C   UNL     1      34.451 -23.011 -16.146  0.00  0.00    +0.020 C 
ATOM      7  C   UNL     1      35.243 -23.525 -13.902  0.00  0.00    +0.018 C 
ATOM      8  C   UNL     1      35.690 -22.407 -16.420  0.00  0.00    +0.052 A 
ATOM      9  C   UNL     1      36.667 -22.378 -15.431  0.00  0.00    +0.077 A 
ATOM     10  C   UNL     1      36.481 -22.927 -14.160  0.00  0.00    +0.020 C 
ATOM     11  C   UNL     1      36.295 -21.758 -17.505  0.00  0.00    +0.155 A 
ATOM     12  C   UNL     1      36.205 -20.919 -19.858  0.00  0.00    +0.232 C 
ATOM     13  H   UNL     1      38.577 -21.571 -15.516  0.00  0.00    +0.189 HD
ATOM     14  H   UNL     1      34.749 -21.891 -18.828  0.00  0.00    +0.156 HD
ENDROOT
BRANCH   5  18
ATOM     15  S   UNL     1      31.516 -23.267 -14.798  0.00  0.00    +0.057 S 
ATOM     16  O   UNL     1      31.709 -21.903 -14.347  0.00  0.00    -0.154 OA
ATOM     17  O   UNL     1      30.945 -23.578 -16.092  0.00  0.00    -0.154 OA
ATOM     18  N   UNL     1      32.970 -24.196 -14.572  0.00  0.00    -0.194 N 
ATOM     19  C   UNL     1      30.605 -24.141 -13.533  0.00  0.00    +0.174 C 
ATOM     20  C   UNL     1      31.349 -25.451 -13.340  0.00  0.00    +0.051 C 
ATOM     21  C   UNL     1      32.836 -25.106 -13.399  0.00  0.00    +0.117 C 
ENDBRANCH   5  18
BRANCH  12  22
ATOM     22  C   UNL     1      35.199 -20.900 -21.007  0.00  0.00    +0.112 C 
BRANCH  22  26
ATOM     23  C   UNL     1      34.590 -17.001 -22.733  0.00  0.00    +0.048 C 
ATOM     24  C   UNL     1      34.679 -17.169 -21.338  0.00  0.00    +0.014 C 
ATOM     25  C   UNL     1      34.707 -18.143 -23.548  0.00  0.00    +0.014 C 
ATOM     26  C   UNL     1      34.989 -19.550 -21.605  0.00  0.00    -0.013 C 
ATOM     27  C   UNL     1      34.876 -18.432 -20.778  0.00  0.00    -0.003 C 
ATOM     28  C   UNL     1      34.904 -19.406 -22.989  0.00  0.00    -0.003 C 
BRANCH  23  29
ATOM     29  N   UNL     1      34.393 -15.733 -23.294  0.00  0.00    -0.307 N 
ATOM     30  C   UNL     1      34.115 -13.136 -24.522  0.00  0.00    +0.004 C 
ATOM     31  C   UNL     1      33.980 -13.321 -23.016  0.00  0.00    +0.021 C 
ATOM     32  C   UNL     1      33.690 -14.407 -25.248  0.00  0.00    +0.021 C 
ATOM     33  C   UNL     1      34.762 -14.539 -22.525  0.00  0.00    +0.091 C 
ATOM     34  C   UNL     1      34.477 -15.620 -24.758  0.00  0.00    +0.091 C 
ENDBRANCH  23  29
ENDBRANCH  22  26
ENDBRANCH  12  22
TORSDOF 4
ENDMDL
