MODEL 1
REMARK VINA RESULT:     -12.1      0.000      0.000
REMARK  Name = 447655
REMARK  6 active torsions:
REMARK  status: ('A' for Active; 'I' for Inactive)
REMARK    1  A    between atoms: N_4  and  C_14
REMARK    2  A    between atoms: C_6  and  O_26
REMARK    3  A    between atoms: C_15  and  S_20
REMARK    4  A    between atoms: S_20  and  N_23
REMARK    5  A    between atoms: O_26  and  C_27
REMARK    6  A    between atoms: C_27  and  C_28
REMARK                            x       y       z     vdW  Elec       q    Type
REMARK                         _______ _______ _______ _____ _____    ______ ____
ROOT
ATOM      1  N   UNL     1      33.461 -23.031 -16.196  0.00  0.00    -0.293 NA
ATOM      2  N   UNL     1      29.836 -22.588 -16.635  0.00  0.00    -0.266 NA
ATOM      3  N   UNL     1      32.163 -23.351 -14.156  0.00  0.00    -0.316 NA
ATOM      4  N   UNL     1      34.491 -23.572 -14.163  0.00  0.00    -0.238 N 
ATOM      5  N   UNL     1      29.768 -23.056 -14.457  0.00  0.00    -0.296 N 
ATOM      6  C   UNL     1      32.347 -22.768 -16.915  0.00  0.00    +0.288 C 
ATOM      7  C   UNL     1      31.133 -22.794 -16.260  0.00  0.00    +0.215 C 
ATOM      8  C   UNL     1      31.065 -23.083 -14.903  0.00  0.00    +0.196 C 
ATOM      9  C   UNL     1      33.301 -23.303 -14.879  0.00  0.00    +0.207 C 
ATOM     10  C   UNL     1      29.055 -22.755 -15.522  0.00  0.00    +0.164 C 
ATOM     11  H   UNL     1      29.521 -22.361 -17.539  0.00  0.00    +0.126 HD
ATOM     12  H   UNL     1      34.345 -23.767 -13.210  0.00  0.00    +0.166 HD
ATOM     13  H   UNL     1      29.442 -23.224 -13.543  0.00  0.00    +0.150 HD
ENDROOT
BRANCH   4  14
ATOM     14  C   UNL     1      35.843 -23.617 -14.550  0.00  0.00    +0.060 C 
ATOM     15  C   UNL     1      37.968 -24.771 -14.613  0.00  0.00    +0.123 C 
ATOM     16  C   UNL     1      36.628 -24.727 -14.229  0.00  0.00    +0.035 C 
ATOM     17  C   UNL     1      36.405 -22.552 -15.259  0.00  0.00    +0.015 C 
ATOM     18  C   UNL     1      38.527 -23.706 -15.321  0.00  0.00    +0.020 C 
ATOM     19  C   UNL     1      37.744 -22.597 -15.644  0.00  0.00    +0.003 C 
BRANCH  15  20
ATOM     20  S   UNL     1      38.947 -26.159 -14.211  0.00  0.00    +0.057 S 
ATOM     21  O   UNL     1      39.427 -26.003 -12.846  0.00  0.00    -0.153 OA
ATOM     22  O   UNL     1      38.219 -27.363 -14.588  0.00  0.00    -0.153 OA
BRANCH  20  23
ATOM     23  N   UNL     1      40.261 -25.955 -15.285  0.00  0.00    -0.203 NA
ATOM     24  H   UNL     1      41.081 -25.648 -14.763  0.00  0.00    +0.144 HD
ATOM     25  H   UNL     1      40.021 -25.252 -15.984  0.00  0.00    +0.144 HD
ENDBRANCH  20  23
ENDBRANCH  15  20
ENDBRANCH   4  14
BRANCH   6  26
ATOM     26  O   UNL     1      32.473 -22.488 -18.253  0.00  0.00    -0.453 OA
BRANCH  26  27
ATOM     27  C   UNL     1      33.725 -22.764 -18.852  0.00  0.00    +0.208 C 
BRANCH  27  28
ATOM     28  C   UNL     1      34.390 -21.437 -19.216  0.00  0.00    +0.044 C 
ATOM     29  C   UNL     1      35.849 -21.658 -19.637  0.00  0.00    +0.004 C 
ATOM     30  C   UNL     1      33.604 -20.724 -20.325  0.00  0.00    +0.004 C 
ATOM     31  C   UNL     1      36.519 -20.352 -20.056  0.00  0.00    +0.000 C 
ATOM     32  C   UNL     1      34.279 -19.419 -20.743  0.00  0.00    +0.000 C 
ATOM     33  C   UNL     1      35.731 -19.642 -21.152  0.00  0.00    +0.000 C 
ENDBRANCH  27  28
ENDBRANCH  26  27
ENDBRANCH   6  26
TORSDOF 6
ENDMDL
MODEL 2
REMARK VINA RESULT:     -12.0      2.346      2.784
REMARK  Name = 447655
REMARK  6 active torsions:
REMARK  status: ('A' for Active; 'I' for Inactive)
REMARK    1  A    between atoms: N_4  and  C_14
REMARK    2  A    between atoms: C_6  and  O_26
REMARK    3  A    between atoms: C_15  and  S_20
REMARK    4  A    between atoms: S_20  and  N_23
REMARK    5  A    between atoms: O_26  and  C_27
REMARK    6  A    between atoms: C_27  and  C_28
REMARK                            x       y       z     vdW  Elec       q    Type
REMARK                         _______ _______ _______ _____ _____    ______ ____
ROOT
ATOM      1  N   UNL     1      32.433 -23.445 -15.515  0.00  0.00    -0.293 NA
ATOM      2  N   UNL     1      29.150 -22.478 -16.862  0.00  0.00    -0.266 NA
ATOM      3  N   UNL     1      30.563 -23.922 -14.023  0.00  0.00    -0.316 NA
ATOM      4  N   UNL     1      32.764 -24.435 -13.418  0.00  0.00    -0.238 N 
ATOM      5  N   UNL     1      28.398 -23.280 -14.923  0.00  0.00    -0.296 N 
ATOM      6  C   UNL     1      31.608 -22.930 -16.454  0.00  0.00    +0.288 C 
ATOM      7  C   UNL     1      30.255 -22.906 -16.184  0.00  0.00    +0.215 C 
ATOM      8  C   UNL     1      29.763 -23.399 -14.984  0.00  0.00    +0.196 C 
ATOM      9  C   UNL     1      31.866 -23.904 -14.374  0.00  0.00    +0.207 C 
ATOM     10  C   UNL     1      28.061 -22.722 -16.067  0.00  0.00    +0.164 C 
ATOM     11  H   UNL     1      29.137 -22.070 -17.758  0.00  0.00    +0.126 HD
ATOM     12  H   UNL     1      32.325 -24.761 -12.600  0.00  0.00    +0.166 HD
ATOM     13  H   UNL     1      27.801 -23.549 -14.187  0.00  0.00    +0.150 HD
ENDROOT
BRANCH   4  14
ATOM     14  C   UNL     1      34.162 -24.589 -13.411  0.00  0.00    +0.060 C 
ATOM     15  C   UNL     1      36.295 -24.323 -12.301  0.00  0.00    +0.123 C 
ATOM     16  C   UNL     1      34.908 -24.168 -12.308  0.00  0.00    +0.035 C 
ATOM     17  C   UNL     1      34.809 -25.167 -14.507  0.00  0.00    +0.015 C 
ATOM     18  C   UNL     1      36.938 -24.900 -13.397  0.00  0.00    +0.020 C 
ATOM     19  C   UNL     1      36.194 -25.322 -14.499  0.00  0.00    +0.003 C 
BRANCH  15  20
ATOM     20  S   UNL     1      37.226 -23.796 -10.922  0.00  0.00    +0.057 S 
ATOM     21  O   UNL     1      38.434 -24.604 -10.848  0.00  0.00    -0.153 OA
ATOM     22  O   UNL     1      37.328 -22.344 -10.961  0.00  0.00    -0.153 OA
BRANCH  20  23
ATOM     23  N   UNL     1      36.187 -24.238  -9.639  0.00  0.00    -0.203 NA
ATOM     24  H   UNL     1      36.712 -24.769  -8.945  0.00  0.00    +0.144 HD
ATOM     25  H   UNL     1      35.425 -24.811 -10.001  0.00  0.00    +0.144 HD
ENDBRANCH  20  23
ENDBRANCH  15  20
ENDBRANCH   4  14
BRANCH   6  26
ATOM     26  O   UNL     1      32.150 -22.456 -17.624  0.00  0.00    -0.453 OA
BRANCH  26  27
ATOM     27  C   UNL     1      33.487 -22.823 -17.908  0.00  0.00    +0.208 C 
BRANCH  27  28
ATOM     28  C   UNL     1      33.925 -22.105 -19.183  0.00  0.00    +0.044 C 
ATOM     29  C   UNL     1      32.985 -20.933 -19.496  0.00  0.00    +0.004 C 
ATOM     30  C   UNL     1      35.377 -21.624 -19.063  0.00  0.00    +0.004 C 
ATOM     31  C   UNL     1      33.433 -20.167 -20.738  0.00  0.00    +0.000 C 
ATOM     32  C   UNL     1      35.821 -20.857 -20.306  0.00  0.00    +0.000 C 
ATOM     33  C   UNL     1      34.880 -19.698 -20.619  0.00  0.00    +0.000 C 
ENDBRANCH  27  28
ENDBRANCH  26  27
ENDBRANCH   6  26
TORSDOF 6
ENDMDL
MODEL 3
REMARK VINA RESULT:     -11.9      1.849      2.386
REMARK  Name = 447655
REMARK  6 active torsions:
REMARK  status: ('A' for Active; 'I' for Inactive)
REMARK    1  A    between atoms: N_4  and  C_14
REMARK    2  A    between atoms: C_6  and  O_26
REMARK    3  A    between atoms: C_15  and  S_20
REMARK    4  A    between atoms: S_20  and  N_23
REMARK    5  A    between atoms: O_26  and  C_27
REMARK    6  A    between atoms: C_27  and  C_28
REMARK                            x       y       z     vdW  Elec       q    Type
REMARK                         _______ _______ _______ _____ _____    ______ ____
ROOT
ATOM      1  N   UNL     1      33.469 -23.887 -14.401  0.00  0.00    -0.293 NA
ATOM      2  N   UNL     1      30.089 -24.005 -15.847  0.00  0.00    -0.266 NA
ATOM      3  N   UNL     1      31.849 -25.114 -13.052  0.00  0.00    -0.316 NA
ATOM      4  N   UNL     1      34.074 -24.882 -12.369  0.00  0.00    -0.238 N 
ATOM      5  N   UNL     1      29.619 -25.187 -14.017  0.00  0.00    -0.296 N 
ATOM      6  C   UNL     1      32.539 -23.609 -15.342  0.00  0.00    +0.288 C 
ATOM      7  C   UNL     1      31.258 -24.081 -15.144  0.00  0.00    +0.215 C 
ATOM      8  C   UNL     1      30.940 -24.819 -14.012  0.00  0.00    +0.196 C 
ATOM      9  C   UNL     1      33.072 -24.613 -13.329  0.00  0.00    +0.207 C 
ATOM     10  C   UNL     1      29.136 -24.682 -15.132  0.00  0.00    +0.164 C 
ATOM     11  H   UNL     1      29.956 -23.549 -16.709  0.00  0.00    +0.126 HD
ATOM     12  H   UNL     1      33.758 -25.411 -11.602  0.00  0.00    +0.166 HD
ATOM     13  H   UNL     1      29.137 -25.711 -13.336  0.00  0.00    +0.150 HD
ENDROOT
BRANCH   4  14
ATOM     14  C   UNL     1      35.437 -24.541 -12.298  0.00  0.00    +0.060 C 
ATOM     15  C   UNL     1      37.703 -24.776 -13.112  0.00  0.00    +0.123 C 
ATOM     16  C   UNL     1      36.352 -25.115 -13.183  0.00  0.00    +0.035 C 
ATOM     17  C   UNL     1      35.881 -23.623 -11.341  0.00  0.00    +0.015 C 
ATOM     18  C   UNL     1      38.143 -23.860 -12.155  0.00  0.00    +0.020 C 
ATOM     19  C   UNL     1      37.231 -23.285 -11.270  0.00  0.00    +0.003 C 
BRANCH  15  20
ATOM     20  S   UNL     1      38.845 -25.495 -14.220  0.00  0.00    +0.057 S 
ATOM     21  O   UNL     1      39.531 -24.426 -14.930  0.00  0.00    -0.153 OA
ATOM     22  O   UNL     1      39.617 -26.498 -13.500  0.00  0.00    -0.153 OA
BRANCH  20  23
ATOM     23  N   UNL     1      37.790 -26.290 -15.304  0.00  0.00    -0.203 NA
ATOM     24  H   UNL     1      38.325 -26.655 -16.092  0.00  0.00    +0.144 HD
ATOM     25  H   UNL     1      37.091 -25.629 -15.644  0.00  0.00    +0.144 HD
ENDBRANCH  20  23
ENDBRANCH  15  20
ENDBRANCH   4  14
BRANCH   6  26
ATOM     26  O   UNL     1      32.909 -22.874 -16.442  0.00  0.00    -0.453 OA
BRANCH  26  27
ATOM     27  C   UNL     1      34.199 -23.114 -16.971  0.00  0.00    +0.208 C 
BRANCH  27  28
ATOM     28  C   UNL     1      34.255 -22.542 -18.386  0.00  0.00    +0.044 C 
ATOM     29  C   UNL     1      33.053 -21.625 -18.649  0.00  0.00    +0.004 C 
ATOM     30  C   UNL     1      35.574 -21.792 -18.616  0.00  0.00    +0.004 C 
ATOM     31  C   UNL     1      33.115 -20.999 -20.040  0.00  0.00    +0.000 C 
ATOM     32  C   UNL     1      35.632 -21.166 -20.007  0.00  0.00    +0.000 C 
ATOM     33  C   UNL     1      34.431 -20.262 -20.267  0.00  0.00    +0.000 C 
ENDBRANCH  27  28
ENDBRANCH  26  27
ENDBRANCH   6  26
TORSDOF 6
ENDMDL
MODEL 4
REMARK VINA RESULT:     -11.2      2.621      5.429
REMARK  Name = 447655
REMARK  6 active torsions:
REMARK  status: ('A' for Active; 'I' for Inactive)
REMARK    1  A    between atoms: N_4  and  C_14
REMARK    2  A    between atoms: C_6  and  O_26
REMARK    3  A    between atoms: C_15  and  S_20
REMARK    4  A    between atoms: S_20  and  N_23
REMARK    5  A    between atoms: O_26  and  C_27
REMARK    6  A    between atoms: C_27  and  C_28
REMARK                            x       y       z     vdW  Elec       q    Type
REMARK                         _______ _______ _______ _____ _____    ______ ____
ROOT
ATOM      1  N   UNL     1      35.269 -23.382 -16.126  0.00  0.00    -0.293 NA
ATOM      2  N   UNL     1      33.188 -21.968 -18.809  0.00  0.00    -0.266 NA
ATOM      3  N   UNL     1      36.494 -21.986 -17.708  0.00  0.00    -0.316 NA
ATOM      4  N   UNL     1      37.571 -23.011 -15.902  0.00  0.00    -0.238 N 
ATOM      5  N   UNL     1      35.109 -21.056 -19.476  0.00  0.00    -0.296 N 
ATOM      6  C   UNL     1      34.106 -23.183 -16.785  0.00  0.00    +0.288 C 
ATOM      7  C   UNL     1      34.128 -22.385 -17.910  0.00  0.00    +0.215 C 
ATOM      8  C   UNL     1      35.312 -21.806 -18.346  0.00  0.00    +0.196 C 
ATOM      9  C   UNL     1      36.376 -22.778 -16.621  0.00  0.00    +0.207 C 
ATOM     10  C   UNL     1      33.822 -21.174 -19.728  0.00  0.00    +0.164 C 
ATOM     11  H   UNL     1      32.231 -22.195 -18.797  0.00  0.00    +0.126 HD
ATOM     12  H   UNL     1      38.358 -22.560 -16.284  0.00  0.00    +0.166 HD
ATOM     13  H   UNL     1      35.776 -20.543 -19.987  0.00  0.00    +0.150 HD
ENDROOT
BRANCH   4  14
ATOM     14  C   UNL     1      37.854 -23.761 -14.746  0.00  0.00    +0.060 C 
ATOM     15  C   UNL     1      37.348 -24.356 -12.457  0.00  0.00    +0.123 C 
ATOM     16  C   UNL     1      37.067 -23.611 -13.602  0.00  0.00    +0.035 C 
ATOM     17  C   UNL     1      38.923 -24.662 -14.740  0.00  0.00    +0.015 C 
ATOM     18  C   UNL     1      38.416 -25.254 -12.453  0.00  0.00    +0.020 C 
ATOM     19  C   UNL     1      39.204 -25.406 -13.595  0.00  0.00    +0.003 C 
BRANCH  15  20
ATOM     20  S   UNL     1      36.363 -24.167 -11.028  0.00  0.00    +0.057 S 
ATOM     21  O   UNL     1      36.098 -25.487 -10.475  0.00  0.00    -0.153 OA
ATOM     22  O   UNL     1      36.961 -23.138 -10.188  0.00  0.00    -0.153 OA
BRANCH  20  23
ATOM     23  N   UNL     1      34.920 -23.551 -11.706  0.00  0.00    -0.203 NA
ATOM     24  H   UNL     1      34.235 -23.402 -10.965  0.00  0.00    +0.144 HD
ATOM     25  H   UNL     1      34.551 -24.220 -12.382  0.00  0.00    +0.144 HD
ENDBRANCH  20  23
ENDBRANCH  15  20
ENDBRANCH   4  14
BRANCH   6  26
ATOM     26  O   UNL     1      32.965 -23.781 -16.309  0.00  0.00    -0.453 OA
BRANCH  26  27
ATOM     27  C   UNL     1      32.583 -23.473 -14.982  0.00  0.00    +0.208 C 
BRANCH  27  28
ATOM     28  C   UNL     1      31.057 -23.434 -14.915  0.00  0.00    +0.044 C 
ATOM     29  C   UNL     1      30.477 -22.731 -16.149  0.00  0.00    +0.004 C 
ATOM     30  C   UNL     1      30.485 -24.851 -14.775  0.00  0.00    +0.004 C 
ATOM     31  C   UNL     1      28.951 -22.726 -16.130  0.00  0.00    +0.000 C 
ATOM     32  C   UNL     1      28.959 -24.843 -14.759  0.00  0.00    +0.000 C 
ATOM     33  C   UNL     1      28.386 -24.135 -15.982  0.00  0.00    +0.000 C 
ENDBRANCH  27  28
ENDBRANCH  26  27
ENDBRANCH   6  26
TORSDOF 6
ENDMDL
MODEL 5
REMARK VINA RESULT:     -11.1      2.159      5.158
REMARK  Name = 447655
REMARK  6 active torsions:
REMARK  status: ('A' for Active; 'I' for Inactive)
REMARK    1  A    between atoms: N_4  and  C_14
REMARK    2  A    between atoms: C_6  and  O_26
REMARK    3  A    between atoms: C_15  and  S_20
REMARK    4  A    between atoms: S_20  and  N_23
REMARK    5  A    between atoms: O_26  and  C_27
REMARK    6  A    between atoms: C_27  and  C_28
REMARK                            x       y       z     vdW  Elec       q    Type
REMARK                         _______ _______ _______ _____ _____    ______ ____
ROOT
ATOM      1  N   UNL     1      35.168 -22.289 -17.579  0.00  0.00    -0.293 NA
ATOM      2  N   UNL     1      33.655 -20.713 -20.537  0.00  0.00    -0.266 NA
ATOM      3  N   UNL     1      36.700 -20.882 -18.853  0.00  0.00    -0.316 NA
ATOM      4  N   UNL     1      37.398 -22.006 -16.924  0.00  0.00    -0.238 N 
ATOM      5  N   UNL     1      35.690 -19.844 -20.805  0.00  0.00    -0.296 N 
ATOM      6  C   UNL     1      34.151 -22.028 -18.431  0.00  0.00    +0.288 C 
ATOM      7  C   UNL     1      34.402 -21.193 -19.500  0.00  0.00    +0.215 C 
ATOM      8  C   UNL     1      35.661 -20.640 -19.689  0.00  0.00    +0.196 C 
ATOM      9  C   UNL     1      36.363 -21.707 -17.839  0.00  0.00    +0.207 C 
ATOM     10  C   UNL     1      34.469 -19.910 -21.293  0.00  0.00    +0.164 C 
ATOM     11  H   UNL     1      32.706 -20.907 -20.711  0.00  0.00    +0.126 HD
ATOM     12  H   UNL     1      38.254 -21.569 -17.137  0.00  0.00    +0.166 HD
ATOM     13  H   UNL     1      36.454 -19.337 -21.165  0.00  0.00    +0.150 HD
ENDROOT
BRANCH   4  14
ATOM     14  C   UNL     1      37.443 -22.805 -15.767  0.00  0.00    +0.060 C 
ATOM     15  C   UNL     1      38.493 -24.552 -14.464  0.00  0.00    +0.123 C 
ATOM     16  C   UNL     1      38.449 -23.761 -15.612  0.00  0.00    +0.035 C 
ATOM     17  C   UNL     1      36.481 -22.642 -14.766  0.00  0.00    +0.015 C 
ATOM     18  C   UNL     1      37.531 -24.388 -13.467  0.00  0.00    +0.020 C 
ATOM     19  C   UNL     1      36.525 -23.433 -13.618  0.00  0.00    +0.003 C 
BRANCH  15  20
ATOM     20  S   UNL     1      39.752 -25.746 -14.273  0.00  0.00    +0.057 S 
ATOM     21  O   UNL     1      40.759 -25.211 -13.369  0.00  0.00    -0.153 OA
ATOM     22  O   UNL     1      39.130 -27.031 -13.984  0.00  0.00    -0.153 OA
BRANCH  20  23
ATOM     23  N   UNL     1      40.399 -25.794 -15.855  0.00  0.00    -0.203 NA
ATOM     24  H   UNL     1      40.076 -24.980 -16.378  0.00  0.00    +0.144 HD
ATOM     25  H   UNL     1      40.087 -26.645 -16.323  0.00  0.00    +0.144 HD
ENDBRANCH  20  23
ENDBRANCH  15  20
ENDBRANCH   4  14
BRANCH   6  26
ATOM     26  O   UNL     1      32.926 -22.602 -18.196  0.00  0.00    -0.453 OA
BRANCH  26  27
ATOM     27  C   UNL     1      32.879 -23.651 -17.247  0.00  0.00    +0.208 C 
BRANCH  27  28
ATOM     28  C   UNL     1      32.246 -23.114 -15.965  0.00  0.00    +0.044 C 
ATOM     29  C   UNL     1      30.722 -23.291 -15.997  0.00  0.00    +0.004 C 
ATOM     30  C   UNL     1      32.849 -23.803 -14.733  0.00  0.00    +0.004 C 
ATOM     31  C   UNL     1      30.071 -22.810 -14.702  0.00  0.00    +0.000 C 
ATOM     32  C   UNL     1      32.195 -23.321 -13.441  0.00  0.00    +0.000 C 
ATOM     33  C   UNL     1      30.679 -23.490 -13.480  0.00  0.00    +0.000 C 
ENDBRANCH  27  28
ENDBRANCH  26  27
ENDBRANCH   6  26
TORSDOF 6
ENDMDL
MODEL 6
REMARK VINA RESULT:     -10.9      2.537      5.459
REMARK  Name = 447655
REMARK  6 active torsions:
REMARK  status: ('A' for Active; 'I' for Inactive)
REMARK    1  A    between atoms: N_4  and  C_14
REMARK    2  A    between atoms: C_6  and  O_26
REMARK    3  A    between atoms: C_15  and  S_20
REMARK    4  A    between atoms: S_20  and  N_23
REMARK    5  A    between atoms: O_26  and  C_27
REMARK    6  A    between atoms: C_27  and  C_28
REMARK                            x       y       z     vdW  Elec       q    Type
REMARK                         _______ _______ _______ _____ _____    ______ ____
ROOT
ATOM      1  N   UNL     1      34.433 -22.859 -17.117  0.00  0.00    -0.293 NA
ATOM      2  N   UNL     1      33.119 -21.032 -20.026  0.00  0.00    -0.266 NA
ATOM      3  N   UNL     1      36.114 -21.575 -18.331  0.00  0.00    -0.316 NA
ATOM      4  N   UNL     1      36.675 -22.832 -16.440  0.00  0.00    -0.238 N 
ATOM      5  N   UNL     1      35.235 -20.371 -20.252  0.00  0.00    -0.296 N 
ATOM      6  C   UNL     1      33.457 -22.464 -17.965  0.00  0.00    +0.288 C 
ATOM      7  C   UNL     1      33.803 -21.623 -19.002  0.00  0.00    +0.215 C 
ATOM      8  C   UNL     1      35.114 -21.198 -19.164  0.00  0.00    +0.196 C 
ATOM      9  C   UNL     1      35.684 -22.396 -17.349  0.00  0.00    +0.207 C 
ATOM     10  C   UNL     1      34.019 -20.293 -20.748  0.00  0.00    +0.164 C 
ATOM     11  H   UNL     1      32.156 -21.121 -20.211  0.00  0.00    +0.126 HD
ATOM     12  H   UNL     1      37.573 -22.479 -16.632  0.00  0.00    +0.166 HD
ATOM     13  H   UNL     1      36.051 -19.934 -20.588  0.00  0.00    +0.150 HD
ENDROOT
BRANCH   4  14
ATOM     14  C   UNL     1      36.626 -23.671 -15.312  0.00  0.00    +0.060 C 
ATOM     15  C   UNL     1      37.086 -24.065 -12.969  0.00  0.00    +0.123 C 
ATOM     16  C   UNL     1      37.136 -23.232 -14.088  0.00  0.00    +0.035 C 
ATOM     17  C   UNL     1      36.064 -24.947 -15.411  0.00  0.00    +0.015 C 
ATOM     18  C   UNL     1      36.525 -25.338 -13.072  0.00  0.00    +0.020 C 
ATOM     19  C   UNL     1      36.015 -25.779 -14.294  0.00  0.00    +0.003 C 
BRANCH  15  20
ATOM     20  S   UNL     1      37.724 -23.514 -11.441  0.00  0.00    +0.057 S 
ATOM     21  O   UNL     1      39.140 -23.849 -11.387  0.00  0.00    -0.153 OA
ATOM     22  O   UNL     1      37.298 -22.137 -11.232  0.00  0.00    -0.153 OA
BRANCH  20  23
ATOM     23  N   UNL     1      36.876 -24.521 -10.351  0.00  0.00    -0.203 NA
ATOM     24  H   UNL     1      37.483 -24.758  -9.567  0.00  0.00    +0.144 HD
ATOM     25  H   UNL     1      36.591 -25.374 -10.831  0.00  0.00    +0.144 HD
ENDBRANCH  20  23
ENDBRANCH  15  20
ENDBRANCH   4  14
BRANCH   6  26
ATOM     26  O   UNL     1      32.177 -22.916 -17.758  0.00  0.00    -0.453 OA
BRANCH  26  27
ATOM     27  C   UNL     1      31.566 -22.576 -16.527  0.00  0.00    +0.208 C 
BRANCH  27  28
ATOM     28  C   UNL     1      31.585 -23.807 -15.622  0.00  0.00    +0.044 C 
ATOM     29  C   UNL     1      32.444 -23.551 -14.376  0.00  0.00    +0.004 C 
ATOM     30  C   UNL     1      30.158 -24.210 -15.227  0.00  0.00    +0.004 C 
ATOM     31  C   UNL     1      32.435 -24.748 -13.429  0.00  0.00    +0.000 C 
ATOM     32  C   UNL     1      30.153 -25.406 -14.278  0.00  0.00    +0.000 C 
ATOM     33  C   UNL     1      31.015 -25.152 -13.046  0.00  0.00    +0.000 C 
ENDBRANCH  27  28
ENDBRANCH  26  27
ENDBRANCH   6  26
TORSDOF 6
ENDMDL
MODEL 7
REMARK VINA RESULT:     -10.8      3.454      7.001
REMARK  Name = 447655
REMARK  6 active torsions:
REMARK  status: ('A' for Active; 'I' for Inactive)
REMARK    1  A    between atoms: N_4  and  C_14
REMARK    2  A    between atoms: C_6  and  O_26
REMARK    3  A    between atoms: C_15  and  S_20
REMARK    4  A    between atoms: S_20  and  N_23
REMARK    5  A    between atoms: O_26  and  C_27
REMARK    6  A    between atoms: C_27  and  C_28
REMARK                            x       y       z     vdW  Elec       q    Type
REMARK                         _______ _______ _______ _____ _____    ______ ____
ROOT
ATOM      1  N   UNL     1      33.723 -22.857 -16.499  0.00  0.00    -0.293 NA
ATOM      2  N   UNL     1      31.591 -24.431 -13.949  0.00  0.00    -0.266 NA
ATOM      3  N   UNL     1      31.358 -22.943 -17.090  0.00  0.00    -0.316 NA
ATOM      4  N   UNL     1      32.939 -21.995 -18.530  0.00  0.00    -0.238 N 
ATOM      5  N   UNL     1      29.958 -23.984 -15.398  0.00  0.00    -0.296 N 
ATOM      6  C   UNL     1      33.493 -23.468 -15.315  0.00  0.00    +0.288 C 
ATOM      7  C   UNL     1      32.194 -23.820 -15.010  0.00  0.00    +0.215 C 
ATOM      8  C   UNL     1      31.160 -23.553 -15.897  0.00  0.00    +0.196 C 
ATOM      9  C   UNL     1      32.655 -22.635 -17.302  0.00  0.00    +0.207 C 
ATOM     10  C   UNL     1      30.251 -24.507 -14.226  0.00  0.00    +0.164 C 
ATOM     11  H   UNL     1      32.036 -24.757 -13.134  0.00  0.00    +0.126 HD
ATOM     12  H   UNL     1      32.145 -21.845 -19.093  0.00  0.00    +0.166 HD
ATOM     13  H   UNL     1      29.071 -23.918 -15.821  0.00  0.00    +0.150 HD
ENDROOT
BRANCH   4  14
ATOM     14  C   UNL     1      34.135 -21.528 -19.105  0.00  0.00    +0.060 C 
ATOM     15  C   UNL     1      35.290 -20.058 -20.641  0.00  0.00    +0.123 C 
ATOM     16  C   UNL     1      34.103 -20.522 -20.072  0.00  0.00    +0.035 C 
ATOM     17  C   UNL     1      35.361 -22.068 -18.706  0.00  0.00    +0.015 C 
ATOM     18  C   UNL     1      36.512 -20.600 -20.242  0.00  0.00    +0.020 C 
ATOM     19  C   UNL     1      36.547 -21.605 -19.274  0.00  0.00    +0.003 C 
BRANCH  15  20
ATOM     20  S   UNL     1      35.247 -18.801 -21.851  0.00  0.00    +0.057 S 
ATOM     21  O   UNL     1      34.564 -19.318 -23.027  0.00  0.00    -0.153 OA
ATOM     22  O   UNL     1      34.778 -17.573 -21.224  0.00  0.00    -0.153 OA
BRANCH  20  23
ATOM     23  N   UNL     1      36.910 -18.634 -22.207  0.00  0.00    -0.203 NA
ATOM     24  H   UNL     1      37.169 -19.297 -22.937  0.00  0.00    +0.144 HD
ATOM     25  H   UNL     1      37.457 -18.822 -21.367  0.00  0.00    +0.144 HD
ENDBRANCH  20  23
ENDBRANCH  15  20
ENDBRANCH   4  14
BRANCH   6  26
ATOM     26  O   UNL     1      34.554 -23.708 -14.477  0.00  0.00    -0.453 OA
BRANCH  26  27
ATOM     27  C   UNL     1      35.813 -23.196 -14.870  0.00  0.00    +0.208 C 
BRANCH  27  28
ATOM     28  C   UNL     1      36.905 -24.027 -14.198  0.00  0.00    +0.044 C 
ATOM     29  C   UNL     1      37.062 -23.627 -12.725  0.00  0.00    +0.004 C 
ATOM     30  C   UNL     1      36.601 -25.526 -14.327  0.00  0.00    +0.004 C 
ATOM     31  C   UNL     1      38.111 -24.480 -12.018  0.00  0.00    +0.000 C 
ATOM     32  C   UNL     1      37.651 -26.376 -13.617  0.00  0.00    +0.000 C 
ATOM     33  C   UNL     1      37.811 -25.970 -12.156  0.00  0.00    +0.000 C 
ENDBRANCH  27  28
ENDBRANCH  26  27
ENDBRANCH   6  26
TORSDOF 6
ENDMDL
MODEL 8
REMARK VINA RESULT:     -10.8      3.515      7.373
REMARK  Name = 447655
REMARK  6 active torsions:
REMARK  status: ('A' for Active; 'I' for Inactive)
REMARK    1  A    between atoms: N_4  and  C_14
REMARK    2  A    between atoms: C_6  and  O_26
REMARK    3  A    between atoms: C_15  and  S_20
REMARK    4  A    between atoms: S_20  and  N_23
REMARK    5  A    between atoms: O_26  and  C_27
REMARK    6  A    between atoms: C_27  and  C_28
REMARK                            x       y       z     vdW  Elec       q    Type
REMARK                         _______ _______ _______ _____ _____    ______ ____
ROOT
ATOM      1  N   UNL     1      35.103 -22.747 -15.830  0.00  0.00    -0.293 NA
ATOM      2  N   UNL     1      35.948 -24.327 -12.618  0.00  0.00    -0.266 NA
ATOM      3  N   UNL     1      37.462 -23.318 -15.589  0.00  0.00    -0.316 NA
ATOM      4  N   UNL     1      36.648 -22.302 -17.533  0.00  0.00    -0.238 N 
ATOM      5  N   UNL     1      38.010 -24.362 -13.463  0.00  0.00    -0.296 N 
ATOM      6  C   UNL     1      34.817 -23.232 -14.602  0.00  0.00    +0.288 C 
ATOM      7  C   UNL     1      35.850 -23.763 -13.858  0.00  0.00    +0.215 C 
ATOM      8  C   UNL     1      37.143 -23.796 -14.362  0.00  0.00    +0.196 C 
ATOM      9  C   UNL     1      36.391 -22.820 -16.243  0.00  0.00    +0.207 C 
ATOM     10  C   UNL     1      37.261 -24.670 -12.426  0.00  0.00    +0.164 C 
ATOM     11  H   UNL     1      35.211 -24.463 -11.980  0.00  0.00    +0.126 HD
ATOM     12  H   UNL     1      37.592 -22.369 -17.807  0.00  0.00    +0.166 HD
ATOM     13  H   UNL     1      38.978 -24.506 -13.569  0.00  0.00    +0.150 HD
ENDROOT
BRANCH   4  14
ATOM     14  C   UNL     1      35.818 -21.712 -18.503  0.00  0.00    +0.060 C 
ATOM     15  C   UNL     1      35.511 -20.173 -20.344  0.00  0.00    +0.123 C 
ATOM     16  C   UNL     1      36.335 -20.758 -19.382  0.00  0.00    +0.035 C 
ATOM     17  C   UNL     1      34.473 -22.081 -18.592  0.00  0.00    +0.015 C 
ATOM     18  C   UNL     1      34.168 -20.543 -20.430  0.00  0.00    +0.020 C 
ATOM     19  C   UNL     1      33.650 -21.497 -19.554  0.00  0.00    +0.003 C 
BRANCH  15  20
ATOM     20  S   UNL     1      36.159 -18.981 -21.442  0.00  0.00    +0.057 S 
ATOM     21  O   UNL     1      37.597 -18.896 -21.231  0.00  0.00    -0.153 OA
ATOM     22  O   UNL     1      35.637 -19.248 -22.775  0.00  0.00    -0.153 OA
BRANCH  20  23
ATOM     23  N   UNL     1      35.429 -17.556 -20.844  0.00  0.00    -0.203 NA
ATOM     24  H   UNL     1      35.911 -17.258 -19.996  0.00  0.00    +0.144 HD
ATOM     25  H   UNL     1      34.449 -17.740 -20.631  0.00  0.00    +0.144 HD
ENDBRANCH  20  23
ENDBRANCH  15  20
ENDBRANCH   4  14
BRANCH   6  26
ATOM     26  O   UNL     1      33.520 -23.174 -14.153  0.00  0.00    -0.453 OA
BRANCH  26  27
ATOM     27  C   UNL     1      32.757 -24.362 -14.234  0.00  0.00    +0.208 C 
BRANCH  27  28
ATOM     28  C   UNL     1      31.293 -23.983 -14.452  0.00  0.00    +0.044 C 
ATOM     29  C   UNL     1      31.114 -23.253 -15.789  0.00  0.00    +0.004 C 
ATOM     30  C   UNL     1      30.396 -25.227 -14.385  0.00  0.00    +0.004 C 
ATOM     31  C   UNL     1      29.650 -22.910 -16.054  0.00  0.00    +0.000 C 
ATOM     32  C   UNL     1      28.933 -24.881 -14.652  0.00  0.00    +0.000 C 
ATOM     33  C   UNL     1      28.761 -24.147 -15.978  0.00  0.00    +0.000 C 
ENDBRANCH  27  28
ENDBRANCH  26  27
ENDBRANCH   6  26
TORSDOF 6
ENDMDL
MODEL 9
REMARK VINA RESULT:     -10.4      2.016      2.628
REMARK  Name = 447655
REMARK  6 active torsions:
REMARK  status: ('A' for Active; 'I' for Inactive)
REMARK    1  A    between atoms: N_4  and  C_14
REMARK    2  A    between atoms: C_6  and  O_26
REMARK    3  A    between atoms: C_15  and  S_20
REMARK    4  A    between atoms: S_20  and  N_23
REMARK    5  A    between atoms: O_26  and  C_27
REMARK    6  A    between atoms: C_27  and  C_28
REMARK                            x       y       z     vdW  Elec       q    Type
REMARK                         _______ _______ _______ _____ _____    ______ ____
ROOT
ATOM      1  N   UNL     1      32.579 -23.279 -15.312  0.00  0.00    -0.293 NA
ATOM      2  N   UNL     1      29.270 -22.742 -16.826  0.00  0.00    -0.266 NA
ATOM      3  N   UNL     1      30.711 -23.943 -13.890  0.00  0.00    -0.316 NA
ATOM      4  N   UNL     1      32.927 -24.175 -13.177  0.00  0.00    -0.238 N 
ATOM      5  N   UNL     1      28.529 -23.585 -14.901  0.00  0.00    -0.296 N 
ATOM      6  C   UNL     1      31.743 -22.887 -16.300  0.00  0.00    +0.288 C 
ATOM      7  C   UNL     1      30.386 -23.020 -16.090  0.00  0.00    +0.215 C 
ATOM      8  C   UNL     1      29.900 -23.542 -14.898  0.00  0.00    +0.196 C 
ATOM      9  C   UNL     1      32.018 -23.777 -14.184  0.00  0.00    +0.207 C 
ATOM     10  C   UNL     1      28.182 -23.097 -16.073  0.00  0.00    +0.164 C 
ATOM     11  H   UNL     1      29.251 -22.358 -17.732  0.00  0.00    +0.126 HD
ATOM     12  H   UNL     1      32.492 -24.534 -12.369  0.00  0.00    +0.166 HD
ATOM     13  H   UNL     1      27.936 -23.908 -14.184  0.00  0.00    +0.150 HD
ENDROOT
BRANCH   4  14
ATOM     14  C   UNL     1      34.331 -24.161 -13.104  0.00  0.00    +0.060 C 
ATOM     15  C   UNL     1      36.475 -23.563 -14.053  0.00  0.00    +0.123 C 
ATOM     16  C   UNL     1      35.082 -23.577 -14.127  0.00  0.00    +0.035 C 
ATOM     17  C   UNL     1      34.982 -24.730 -12.005  0.00  0.00    +0.015 C 
ATOM     18  C   UNL     1      37.121 -24.132 -12.956  0.00  0.00    +0.020 C 
ATOM     19  C   UNL     1      36.374 -24.715 -11.932  0.00  0.00    +0.003 C 
BRANCH  15  20
ATOM     20  S   UNL     1      37.410 -22.832 -15.333  0.00  0.00    +0.057 S 
ATOM     21  O   UNL     1      36.675 -22.980 -16.581  0.00  0.00    -0.153 OA
ATOM     22  O   UNL     1      37.835 -21.509 -14.897  0.00  0.00    -0.153 OA
BRANCH  20  23
ATOM     23  N   UNL     1      38.773 -23.861 -15.370  0.00  0.00    -0.203 NA
ATOM     24  H   UNL     1      38.721 -24.521 -14.594  0.00  0.00    +0.144 HD
ATOM     25  H   UNL     1      39.622 -23.302 -15.285  0.00  0.00    +0.144 HD
ENDBRANCH  20  23
ENDBRANCH  15  20
ENDBRANCH   4  14
BRANCH   6  26
ATOM     26  O   UNL     1      32.279 -22.378 -17.457  0.00  0.00    -0.453 OA
BRANCH  26  27
ATOM     27  C   UNL     1      33.593 -22.783 -17.790  0.00  0.00    +0.208 C 
BRANCH  27  28
ATOM     28  C   UNL     1      33.989 -22.108 -19.102  0.00  0.00    +0.044 C 
ATOM     29  C   UNL     1      33.023 -20.964 -19.437  0.00  0.00    +0.004 C 
ATOM     30  C   UNL     1      35.435 -21.599 -19.034  0.00  0.00    +0.004 C 
ATOM     31  C   UNL     1      33.429 -20.239 -20.718  0.00  0.00    +0.000 C 
ATOM     32  C   UNL     1      35.838 -20.873 -20.315  0.00  0.00    +0.000 C 
ATOM     33  C   UNL     1      34.870 -19.742 -20.650  0.00  0.00    +0.000 C 
ENDBRANCH  27  28
ENDBRANCH  26  27
ENDBRANCH   6  26
TORSDOF 6
ENDMDL
