MODEL 1
REMARK VINA RESULT:     -12.6      0.000      0.000
REMARK  Name = 25174099
REMARK  5 active torsions:
REMARK  status: ('A' for Active; 'I' for Inactive)
REMARK    1  A    between atoms: C_5  and  C_33
REMARK    2  A    between atoms: C_14  and  C_18
REMARK    3  A    between atoms: N_17  and  C_20
REMARK    4  A    between atoms: C_20  and  C_24
REMARK    5  A    between atoms: C_33  and  C_36
REMARK                            x       y       z     vdW  Elec       q    Type
REMARK                         _______ _______ _______ _____ _____    ______ ____
ROOT
ATOM      1  S   UNL     1      37.544 -22.009 -16.202  0.00  0.00    -0.064 S 
ATOM      2  O   UNL     1      33.236 -22.714 -18.518  0.00  0.00    -0.274 OA
ATOM      3  N   UNL     1      36.954 -20.906 -18.569  0.00  0.00    -0.379 NA
ATOM      4  N   UNL     1      34.812 -21.361 -19.532  0.00  0.00    -0.255 N 
ATOM      5  C   UNL     1      34.010 -23.872 -15.708  0.00  0.00    +0.028 C 
ATOM      6  C   UNL     1      34.444 -24.891 -14.625  0.00  0.00    +0.005 C 
ATOM      7  C   UNL     1      35.196 -23.078 -16.200  0.00  0.00    -0.027 C 
ATOM      8  C   UNL     1      35.354 -24.261 -13.561  0.00  0.00    +0.006 C 
ATOM      9  C   UNL     1      36.642 -23.697 -14.173  0.00  0.00    +0.032 C 
ATOM     10  C   UNL     1      36.365 -22.989 -15.464  0.00  0.00    +0.002 C 
ATOM     11  C   UNL     1      35.307 -22.338 -17.424  0.00  0.00    +0.154 C 
ATOM     12  C   UNL     1      36.533 -21.697 -17.541  0.00  0.00    +0.152 C 
ATOM     13  C   UNL     1      34.340 -22.179 -18.507  0.00  0.00    +0.239 C 
ATOM     14  C   UNL     1      36.071 -20.778 -19.511  0.00  0.00    +0.240 C 
ATOM     15  H   UNL     1      34.227 -21.189 -20.305  0.00  0.00    +0.157 HD
ENDROOT
BRANCH  14  18
ATOM     16  O   UNL     1      37.527 -19.487 -20.776  0.00  0.00    -0.266 OA
ATOM     17  N   UNL     1      35.338 -19.794 -21.563  0.00  0.00    -0.294 N 
ATOM     18  C   UNL     1      36.395 -19.944 -20.691  0.00  0.00    +0.290 C 
ATOM     19  H   UNL     1      34.485 -20.233 -21.345  0.00  0.00    +0.150 HD
BRANCH  17  20
ATOM     20  C   UNL     1      35.425 -19.024 -22.782  0.00  0.00    +0.117 C 
BRANCH  20  24
ATOM     21  O   UNL     1      34.036 -13.611 -21.904  0.00  0.00    -0.464 OA
ATOM     22  O   UNL     1      33.694 -12.484 -25.320  0.00  0.00    -0.271 OA
ATOM     23  N   UNL     1      34.252 -14.580 -24.553  0.00  0.00    -0.279 N 
ATOM     24  C   UNL     1      35.043 -17.588 -22.567  0.00  0.00    -0.001 C 
ATOM     25  C   UNL     1      34.450 -15.424 -23.457  0.00  0.00    +0.085 C 
ATOM     26  C   UNL     1      34.811 -16.757 -23.664  0.00  0.00    +0.015 C 
ATOM     27  C   UNL     1      34.329 -14.921 -22.163  0.00  0.00    +0.153 C 
ATOM     28  C   UNL     1      34.926 -17.085 -21.271  0.00  0.00    +0.001 C 
ATOM     29  C   UNL     1      34.577 -15.749 -21.068  0.00  0.00    +0.038 C 
ATOM     30  C   UNL     1      33.403 -12.938 -22.975  0.00  0.00    +0.290 C 
ATOM     31  C   UNL     1      33.817 -13.284 -24.395  0.00  0.00    +0.271 C 
ATOM     32  H   UNL     1      34.427 -14.919 -25.460  0.00  0.00    +0.155 HD
ENDBRANCH  20  24
ENDBRANCH  17  20
ENDBRANCH  14  18
BRANCH   5  33
ATOM     33  C   UNL     1      32.909 -22.949 -15.172  0.00  0.00    +0.089 C 
BRANCH  33  36
ATOM     34  O   UNL     1      30.939 -24.355 -15.023  0.00  0.00    -0.275 OA
ATOM     35  N   UNL     1      31.012 -22.688 -16.605  0.00  0.00    -0.329 N 
ATOM     36  C   UNL     1      31.532 -23.425 -15.563  0.00  0.00    +0.220 C 
ATOM     37  H   UNL     1      30.117 -22.896 -16.958  0.00  0.00    +0.145 HD
ATOM     38  H   UNL     1      31.536 -21.953 -16.997  0.00  0.00    +0.145 HD
ENDBRANCH  33  36
ENDBRANCH   5  33
TORSDOF 5
ENDMDL
MODEL 2
REMARK VINA RESULT:     -12.1      2.606     10.357
REMARK  Name = 25174099
REMARK  5 active torsions:
REMARK  status: ('A' for Active; 'I' for Inactive)
REMARK    1  A    between atoms: C_5  and  C_33
REMARK    2  A    between atoms: C_14  and  C_18
REMARK    3  A    between atoms: N_17  and  C_20
REMARK    4  A    between atoms: C_20  and  C_24
REMARK    5  A    between atoms: C_33  and  C_36
REMARK                            x       y       z     vdW  Elec       q    Type
REMARK                         _______ _______ _______ _____ _____    ______ ____
ROOT
ATOM      1  S   UNL     1      34.796 -17.196 -24.928  0.00  0.00    -0.064 S 
ATOM      2  O   UNL     1      34.758 -14.892 -20.557  0.00  0.00    -0.274 OA
ATOM      3  N   UNL     1      35.624 -18.347 -22.658  0.00  0.00    -0.379 NA
ATOM      4  N   UNL     1      35.525 -17.072 -20.637  0.00  0.00    -0.255 N 
ATOM      5  C   UNL     1      33.732 -13.688 -23.264  0.00  0.00    +0.028 C 
ATOM      6  C   UNL     1      33.699 -12.830 -24.554  0.00  0.00    +0.005 C 
ATOM      7  C   UNL     1      34.233 -15.080 -23.563  0.00  0.00    -0.027 C 
ATOM      8  C   UNL     1      33.049 -13.569 -25.732  0.00  0.00    +0.006 C 
ATOM      9  C   UNL     1      33.803 -14.859 -26.082  0.00  0.00    +0.032 C 
ATOM     10  C   UNL     1      34.220 -15.596 -24.847  0.00  0.00    +0.002 C 
ATOM     11  C   UNL     1      34.770 -16.034 -22.636  0.00  0.00    +0.154 C 
ATOM     12  C   UNL     1      35.104 -17.234 -23.251  0.00  0.00    +0.152 C 
ATOM     13  C   UNL     1      34.998 -15.910 -21.199  0.00  0.00    +0.239 C 
ATOM     14  C   UNL     1      35.805 -18.208 -21.380  0.00  0.00    +0.240 C 
ATOM     15  H   UNL     1      35.706 -17.086 -19.669  0.00  0.00    +0.157 HD
ENDROOT
BRANCH  14  18
ATOM     16  O   UNL     1      37.513 -19.243 -20.197  0.00  0.00    -0.266 OA
ATOM     17  N   UNL     1      35.481 -20.387 -20.451  0.00  0.00    -0.294 N 
ATOM     18  C   UNL     1      36.364 -19.341 -20.608  0.00  0.00    +0.290 C 
ATOM     19  H   UNL     1      34.584 -20.306 -20.848  0.00  0.00    +0.150 HD
BRANCH  17  20
ATOM     20  C   UNL     1      35.809 -21.596 -19.731  0.00  0.00    +0.117 C 
BRANCH  20  24
ATOM     21  O   UNL     1      31.691 -23.066 -16.143  0.00  0.00    -0.464 OA
ATOM     22  O   UNL     1      33.652 -24.606 -13.527  0.00  0.00    -0.271 OA
ATOM     23  N   UNL     1      34.380 -23.660 -15.494  0.00  0.00    -0.279 N 
ATOM     24  C   UNL     1      34.730 -21.982 -18.762  0.00  0.00    -0.001 C 
ATOM     25  C   UNL     1      34.055 -22.979 -16.671  0.00  0.00    +0.085 C 
ATOM     26  C   UNL     1      35.062 -22.630 -17.571  0.00  0.00    +0.015 C 
ATOM     27  C   UNL     1      32.721 -22.693 -16.961  0.00  0.00    +0.153 C 
ATOM     28  C   UNL     1      33.396 -21.698 -19.055  0.00  0.00    +0.001 C 
ATOM     29  C   UNL     1      32.390 -22.060 -18.159  0.00  0.00    +0.038 C 
ATOM     30  C   UNL     1      32.076 -23.311 -14.804  0.00  0.00    +0.290 C 
ATOM     31  C   UNL     1      33.429 -23.951 -14.543  0.00  0.00    +0.271 C 
ATOM     32  H   UNL     1      35.311 -23.937 -15.340  0.00  0.00    +0.155 HD
ENDBRANCH  20  24
ENDBRANCH  17  20
ENDBRANCH  14  18
BRANCH   5  33
ATOM     33  C   UNL     1      32.349 -13.726 -22.605  0.00  0.00    +0.089 C 
BRANCH  33  36
ATOM     34  O   UNL     1      31.968 -11.490 -21.746  0.00  0.00    -0.275 OA
ATOM     35  N   UNL     1      32.372 -13.206 -20.270  0.00  0.00    -0.329 N 
ATOM     36  C   UNL     1      32.205 -12.676 -21.531  0.00  0.00    +0.220 C 
ATOM     37  H   UNL     1      32.303 -12.625 -19.478  0.00  0.00    +0.145 HD
ATOM     38  H   UNL     1      32.561 -14.166 -20.161  0.00  0.00    +0.145 HD
ENDBRANCH  33  36
ENDBRANCH   5  33
TORSDOF 5
ENDMDL
MODEL 3
REMARK VINA RESULT:     -12.0      1.386      1.937
REMARK  Name = 25174099
REMARK  5 active torsions:
REMARK  status: ('A' for Active; 'I' for Inactive)
REMARK    1  A    between atoms: C_5  and  C_33
REMARK    2  A    between atoms: C_14  and  C_18
REMARK    3  A    between atoms: N_17  and  C_20
REMARK    4  A    between atoms: C_20  and  C_24
REMARK    5  A    between atoms: C_33  and  C_36
REMARK                            x       y       z     vdW  Elec       q    Type
REMARK                         _______ _______ _______ _____ _____    ______ ____
ROOT
ATOM      1  S   UNL     1      37.282 -21.916 -16.829  0.00  0.00    -0.064 S 
ATOM      2  O   UNL     1      32.663 -22.688 -18.405  0.00  0.00    -0.274 OA
ATOM      3  N   UNL     1      36.318 -20.888 -19.105  0.00  0.00    -0.379 NA
ATOM      4  N   UNL     1      34.052 -21.370 -19.699  0.00  0.00    -0.255 N 
ATOM      5  C   UNL     1      33.878 -23.758 -15.720  0.00  0.00    +0.028 C 
ATOM      6  C   UNL     1      34.484 -24.744 -14.689  0.00  0.00    +0.005 C 
ATOM      7  C   UNL     1      34.968 -22.982 -16.419  0.00  0.00    -0.027 C 
ATOM      8  C   UNL     1      35.549 -24.082 -13.804  0.00  0.00    +0.006 C 
ATOM      9  C   UNL     1      36.721 -23.539 -14.631  0.00  0.00    +0.032 C 
ATOM     10  C   UNL     1      36.239 -22.871 -15.882  0.00  0.00    +0.002 C 
ATOM     11  C   UNL     1      34.880 -22.281 -17.667  0.00  0.00    +0.154 C 
ATOM     12  C   UNL     1      36.069 -21.645 -17.998  0.00  0.00    +0.152 C 
ATOM     13  C   UNL     1      33.753 -22.155 -18.587  0.00  0.00    +0.239 C 
ATOM     14  C   UNL     1      35.296 -20.787 -19.897  0.00  0.00    +0.240 C 
ATOM     15  H   UNL     1      33.351 -21.221 -20.373  0.00  0.00    +0.157 HD
ENDROOT
BRANCH  14  18
ATOM     16  O   UNL     1      34.609 -20.185 -22.031  0.00  0.00    -0.266 OA
ATOM     17  N   UNL     1      36.483 -19.110 -21.118  0.00  0.00    -0.294 N 
ATOM     18  C   UNL     1      35.424 -19.992 -21.139  0.00  0.00    +0.290 C 
ATOM     19  H   UNL     1      37.050 -19.078 -20.314  0.00  0.00    +0.150 HD
BRANCH  17  20
ATOM     20  C   UNL     1      36.801 -18.231 -22.220  0.00  0.00    +0.117 C 
BRANCH  20  24
ATOM     21  O   UNL     1      32.855 -14.249 -22.973  0.00  0.00    -0.464 OA
ATOM     22  O   UNL     1      32.159 -13.390 -19.533  0.00  0.00    -0.271 OA
ATOM     23  N   UNL     1      33.646 -14.944 -20.348  0.00  0.00    -0.279 N 
ATOM     24  C   UNL     1      35.761 -17.163 -22.402  0.00  0.00    -0.001 C 
ATOM     25  C   UNL     1      34.238 -15.544 -21.463  0.00  0.00    +0.085 C 
ATOM     26  C   UNL     1      35.199 -16.541 -21.287  0.00  0.00    +0.015 C 
ATOM     27  C   UNL     1      33.833 -15.176 -22.745  0.00  0.00    +0.153 C 
ATOM     28  C   UNL     1      35.355 -16.799 -23.686  0.00  0.00    +0.001 C 
ATOM     29  C   UNL     1      34.385 -15.810 -23.859  0.00  0.00    +0.038 C 
ATOM     30  C   UNL     1      32.633 -13.364 -21.892  0.00  0.00    +0.290 C 
ATOM     31  C   UNL     1      32.755 -13.903 -20.477  0.00  0.00    +0.271 C 
ATOM     32  H   UNL     1      33.872 -15.273 -19.448  0.00  0.00    +0.155 HD
ENDBRANCH  20  24
ENDBRANCH  17  20
ENDBRANCH  14  18
BRANCH   5  33
ATOM     33  C   UNL     1      32.874 -22.818 -15.044  0.00  0.00    +0.089 C 
BRANCH  33  36
ATOM     34  O   UNL     1      30.917 -24.092 -14.389  0.00  0.00    -0.275 OA
ATOM     35  N   UNL     1      30.830 -22.796 -16.287  0.00  0.00    -0.329 N 
ATOM     36  C   UNL     1      31.456 -23.317 -15.175  0.00  0.00    +0.220 C 
ATOM     37  H   UNL     1      29.898 -23.042 -16.488  0.00  0.00    +0.145 HD
ATOM     38  H   UNL     1      31.314 -22.178 -16.880  0.00  0.00    +0.145 HD
ENDBRANCH  33  36
ENDBRANCH   5  33
TORSDOF 5
ENDMDL
MODEL 4
REMARK VINA RESULT:     -11.9      2.078      3.020
REMARK  Name = 25174099
REMARK  5 active torsions:
REMARK  status: ('A' for Active; 'I' for Inactive)
REMARK    1  A    between atoms: C_5  and  C_33
REMARK    2  A    between atoms: C_14  and  C_18
REMARK    3  A    between atoms: N_17  and  C_20
REMARK    4  A    between atoms: C_20  and  C_24
REMARK    5  A    between atoms: C_33  and  C_36
REMARK                            x       y       z     vdW  Elec       q    Type
REMARK                         _______ _______ _______ _____ _____    ______ ____
ROOT
ATOM      1  S   UNL     1      33.212 -22.799 -17.622  0.00  0.00    -0.064 S 
ATOM      2  O   UNL     1      37.878 -21.780 -16.352  0.00  0.00    -0.274 OA
ATOM      3  N   UNL     1      34.889 -21.418 -19.186  0.00  0.00    -0.379 NA
ATOM      4  N   UNL     1      37.114 -21.028 -18.400  0.00  0.00    -0.255 N 
ATOM      5  C   UNL     1      35.849 -23.462 -14.653  0.00  0.00    +0.028 C 
ATOM      6  C   UNL     1      34.839 -23.825 -13.535  0.00  0.00    +0.005 C 
ATOM      7  C   UNL     1      35.125 -23.032 -15.906  0.00  0.00    -0.027 C 
ATOM      8  C   UNL     1      33.712 -24.738 -14.039  0.00  0.00    +0.006 C 
ATOM      9  C   UNL     1      32.903 -24.078 -15.163  0.00  0.00    +0.032 C 
ATOM     10  C   UNL     1      33.797 -23.357 -16.125  0.00  0.00    +0.002 C 
ATOM     11  C   UNL     1      35.649 -22.269 -17.002  0.00  0.00    +0.154 C 
ATOM     12  C   UNL     1      34.712 -22.083 -18.009  0.00  0.00    +0.152 C 
ATOM     13  C   UNL     1      36.979 -21.694 -17.183  0.00  0.00    +0.239 C 
ATOM     14  C   UNL     1      36.082 -20.926 -19.322  0.00  0.00    +0.240 C 
ATOM     15  H   UNL     1      37.980 -20.612 -18.616  0.00  0.00    +0.157 HD
ENDROOT
BRANCH  14  18
ATOM     16  O   UNL     1      37.579 -19.839 -20.723  0.00  0.00    -0.266 OA
ATOM     17  N   UNL     1      35.329 -19.958 -21.373  0.00  0.00    -0.294 N 
ATOM     18  C   UNL     1      36.415 -20.178 -20.555  0.00  0.00    +0.290 C 
ATOM     19  H   UNL     1      34.451 -20.301 -21.088  0.00  0.00    +0.150 HD
BRANCH  17  20
ATOM     20  C   UNL     1      35.417 -19.250 -22.630  0.00  0.00    +0.117 C 
BRANCH  20  24
ATOM     21  O   UNL     1      34.075 -13.789 -22.021  0.00  0.00    -0.464 OA
ATOM     22  O   UNL     1      33.566 -12.874 -25.479  0.00  0.00    -0.271 OA
ATOM     23  N   UNL     1      34.160 -14.920 -24.612  0.00  0.00    -0.279 N 
ATOM     24  C   UNL     1      35.046 -17.803 -22.485  0.00  0.00    -0.001 C 
ATOM     25  C   UNL     1      34.411 -15.696 -23.477  0.00  0.00    +0.085 C 
ATOM     26  C   UNL     1      34.762 -17.040 -23.618  0.00  0.00    +0.015 C 
ATOM     27  C   UNL     1      34.354 -15.113 -22.212  0.00  0.00    +0.153 C 
ATOM     28  C   UNL     1      34.993 -17.220 -21.219  0.00  0.00    +0.001 C 
ATOM     29  C   UNL     1      34.655 -15.874 -21.081  0.00  0.00    +0.038 C 
ATOM     30  C   UNL     1      33.390 -13.181 -23.099  0.00  0.00    +0.290 C 
ATOM     31  C   UNL     1      33.734 -13.615 -24.514  0.00  0.00    +0.271 C 
ATOM     32  H   UNL     1      34.290 -15.316 -25.504  0.00  0.00    +0.155 HD
ENDBRANCH  20  24
ENDBRANCH  17  20
ENDBRANCH  14  18
BRANCH   5  33
ATOM     33  C   UNL     1      36.792 -24.637 -14.933  0.00  0.00    +0.089 C 
BRANCH  33  36
ATOM     34  O   UNL     1      38.394 -24.300 -13.143  0.00  0.00    -0.275 OA
ATOM     35  N   UNL     1      39.136 -24.354 -15.320  0.00  0.00    -0.329 N 
ATOM     36  C   UNL     1      38.163 -24.414 -14.344  0.00  0.00    +0.220 C 
ATOM     37  H   UNL     1      40.077 -24.211 -15.068  0.00  0.00    +0.145 HD
ATOM     38  H   UNL     1      38.889 -24.452 -16.267  0.00  0.00    +0.145 HD
ENDBRANCH  33  36
ENDBRANCH   5  33
TORSDOF 5
ENDMDL
MODEL 5
REMARK VINA RESULT:     -11.5      1.722      2.252
REMARK  Name = 25174099
REMARK  5 active torsions:
REMARK  status: ('A' for Active; 'I' for Inactive)
REMARK    1  A    between atoms: C_5  and  C_33
REMARK    2  A    between atoms: C_14  and  C_18
REMARK    3  A    between atoms: N_17  and  C_20
REMARK    4  A    between atoms: C_20  and  C_24
REMARK    5  A    between atoms: C_33  and  C_36
REMARK                            x       y       z     vdW  Elec       q    Type
REMARK                         _______ _______ _______ _____ _____    ______ ____
ROOT
ATOM      1  S   UNL     1      35.408 -23.461 -14.981  0.00  0.00    -0.064 S 
ATOM      2  O   UNL     1      31.954 -22.457 -18.370  0.00  0.00    -0.274 OA
ATOM      3  N   UNL     1      35.956 -22.321 -17.340  0.00  0.00    -0.379 NA
ATOM      4  N   UNL     1      34.147 -21.908 -18.850  0.00  0.00    -0.255 N 
ATOM      5  C   UNL     1      31.428 -23.704 -15.540  0.00  0.00    +0.028 C 
ATOM      6  C   UNL     1      31.115 -24.762 -14.454  0.00  0.00    +0.005 C 
ATOM      7  C   UNL     1      32.918 -23.483 -15.655  0.00  0.00    -0.027 C 
ATOM      8  C   UNL     1      31.887 -24.510 -13.151  0.00  0.00    +0.006 C 
ATOM      9  C   UNL     1      33.405 -24.545 -13.372  0.00  0.00    +0.032 C 
ATOM     10  C   UNL     1      33.786 -23.844 -14.639  0.00  0.00    +0.002 C 
ATOM     11  C   UNL     1      33.634 -22.907 -16.756  0.00  0.00    +0.154 C 
ATOM     12  C   UNL     1      34.999 -22.825 -16.511  0.00  0.00    +0.152 C 
ATOM     13  C   UNL     1      33.135 -22.418 -18.039  0.00  0.00    +0.239 C 
ATOM     14  C   UNL     1      35.480 -21.886 -18.466  0.00  0.00    +0.240 C 
ATOM     15  H   UNL     1      33.906 -21.548 -19.734  0.00  0.00    +0.157 HD
ENDROOT
BRANCH  14  18
ATOM     16  O   UNL     1      37.455 -21.907 -19.686  0.00  0.00    -0.266 OA
ATOM     17  N   UNL     1      35.953 -20.137 -20.026  0.00  0.00    -0.294 N 
ATOM     18  C   UNL     1      36.410 -21.309 -19.464  0.00  0.00    +0.290 C 
ATOM     19  H   UNL     1      35.081 -19.787 -19.735  0.00  0.00    +0.150 HD
BRANCH  17  20
ATOM     20  C   UNL     1      36.693 -19.399 -21.024  0.00  0.00    +0.117 C 
BRANCH  20  24
ATOM     21  O   UNL     1      33.832 -14.871 -22.841  0.00  0.00    -0.464 OA
ATOM     22  O   UNL     1      34.225 -15.266 -26.412  0.00  0.00    -0.271 OA
ATOM     23  N   UNL     1      35.032 -16.606 -24.725  0.00  0.00    -0.279 N 
ATOM     24  C   UNL     1      35.927 -18.209 -21.524  0.00  0.00    -0.001 C 
ATOM     25  C   UNL     1      35.106 -16.867 -23.354  0.00  0.00    +0.085 C 
ATOM     26  C   UNL     1      35.825 -17.972 -22.895  0.00  0.00    +0.015 C 
ATOM     27  C   UNL     1      34.498 -15.998 -22.449  0.00  0.00    +0.153 C 
ATOM     28  C   UNL     1      35.322 -17.339 -20.617  0.00  0.00    +0.001 C 
ATOM     29  C   UNL     1      34.614 -16.229 -21.078  0.00  0.00    +0.038 C 
ATOM     30  C   UNL     1      33.390 -14.898 -24.185  0.00  0.00    +0.290 C 
ATOM     31  C   UNL     1      34.267 -15.576 -25.223  0.00  0.00    +0.271 C 
ATOM     32  H   UNL     1      35.539 -17.172 -25.351  0.00  0.00    +0.155 HD
ENDBRANCH  20  24
ENDBRANCH  17  20
ENDBRANCH  14  18
BRANCH   5  33
ATOM     33  C   UNL     1      30.695 -22.390 -15.244  0.00  0.00    +0.089 C 
BRANCH  33  36
ATOM     34  O   UNL     1      28.309 -22.079 -14.942  0.00  0.00    -0.275 OA
ATOM     35  N   UNL     1      29.084 -22.974 -16.913  0.00  0.00    -0.329 N 
ATOM     36  C   UNL     1      29.243 -22.450 -15.648  0.00  0.00    +0.220 C 
ATOM     37  H   UNL     1      28.183 -23.068 -17.298  0.00  0.00    +0.145 HD
ATOM     38  H   UNL     1      29.872 -23.255 -17.432  0.00  0.00    +0.145 HD
ENDBRANCH  33  36
ENDBRANCH   5  33
TORSDOF 5
ENDMDL
MODEL 6
REMARK VINA RESULT:     -11.5      3.483     11.451
REMARK  Name = 25174099
REMARK  5 active torsions:
REMARK  status: ('A' for Active; 'I' for Inactive)
REMARK    1  A    between atoms: C_5  and  C_33
REMARK    2  A    between atoms: C_14  and  C_18
REMARK    3  A    between atoms: N_17  and  C_20
REMARK    4  A    between atoms: C_20  and  C_24
REMARK    5  A    between atoms: C_33  and  C_36
REMARK                            x       y       z     vdW  Elec       q    Type
REMARK                         _______ _______ _______ _____ _____    ______ ____
ROOT
ATOM      1  S   UNL     1      32.359 -13.095 -20.822  0.00  0.00    -0.064 S 
ATOM      2  O   UNL     1      34.002 -11.410 -25.167  0.00  0.00    -0.274 OA
ATOM      3  N   UNL     1      33.519 -14.660 -22.657  0.00  0.00    -0.379 NA
ATOM      4  N   UNL     1      34.255 -13.660 -24.701  0.00  0.00    -0.255 N 
ATOM      5  C   UNL     1      32.712  -9.666 -22.902  0.00  0.00    +0.028 C 
ATOM      6  C   UNL     1      31.658  -8.830 -22.134  0.00  0.00    +0.005 C 
ATOM      7  C   UNL     1      32.723 -11.093 -22.408  0.00  0.00    -0.027 C 
ATOM      8  C   UNL     1      31.737  -9.043 -20.615  0.00  0.00    +0.006 C 
ATOM      9  C   UNL     1      31.496 -10.509 -20.232  0.00  0.00    +0.032 C 
ATOM     10  C   UNL     1      32.195 -11.438 -21.176  0.00  0.00    +0.002 C 
ATOM     11  C   UNL     1      33.243 -12.248 -23.082  0.00  0.00    +0.154 C 
ATOM     12  C   UNL     1      33.118 -13.402 -22.319  0.00  0.00    +0.152 C 
ATOM     13  C   UNL     1      33.858 -12.358 -24.401  0.00  0.00    +0.239 C 
ATOM     14  C   UNL     1      34.070 -14.723 -23.830  0.00  0.00    +0.240 C 
ATOM     15  H   UNL     1      34.687 -13.833 -25.569  0.00  0.00    +0.157 HD
ENDROOT
BRANCH  14  18
ATOM     16  O   UNL     1      34.650 -16.186 -25.537  0.00  0.00    -0.266 OA
ATOM     17  N   UNL     1      34.841 -16.928 -23.320  0.00  0.00    -0.294 N 
ATOM     18  C   UNL     1      34.554 -16.032 -24.326  0.00  0.00    +0.290 C 
ATOM     19  H   UNL     1      34.709 -16.643 -22.387  0.00  0.00    +0.150 HD
BRANCH  17  20
ATOM     20  C   UNL     1      35.330 -18.265 -23.569  0.00  0.00    +0.117 C 
BRANCH  20  24
ATOM     21  O   UNL     1      36.108 -21.117 -18.747  0.00  0.00    -0.464 OA
ATOM     22  O   UNL     1      32.774 -22.414 -18.234  0.00  0.00    -0.271 OA
ATOM     23  N   UNL     1      33.548 -21.090 -19.948  0.00  0.00    -0.279 N 
ATOM     24  C   UNL     1      35.522 -19.037 -22.296  0.00  0.00    -0.001 C 
ATOM     25  C   UNL     1      34.632 -20.438 -20.544  0.00  0.00    +0.085 C 
ATOM     26  C   UNL     1      34.445 -19.716 -21.724  0.00  0.00    +0.015 C 
ATOM     27  C   UNL     1      35.884 -20.475 -19.932  0.00  0.00    +0.153 C 
ATOM     28  C   UNL     1      36.775 -19.070 -21.684  0.00  0.00    +0.001 C 
ATOM     29  C   UNL     1      36.956 -19.783 -20.498  0.00  0.00    +0.038 C 
ATOM     30  C   UNL     1      35.153 -22.115 -18.439  0.00  0.00    +0.290 C 
ATOM     31  C   UNL     1      33.705 -21.877 -18.831  0.00  0.00    +0.271 C 
ATOM     32  H   UNL     1      32.650 -20.983 -20.338  0.00  0.00    +0.155 HD
ENDBRANCH  20  24
ENDBRANCH  17  20
ENDBRANCH  14  18
BRANCH   5  33
ATOM     33  C   UNL     1      34.100  -9.028 -22.785  0.00  0.00    +0.089 C 
BRANCH  33  36
ATOM     34  O   UNL     1      33.182  -7.093 -23.924  0.00  0.00    -0.275 OA
ATOM     35  N   UNL     1      35.395  -7.083 -23.299  0.00  0.00    -0.329 N 
ATOM     36  C   UNL     1      34.143  -7.650 -23.398  0.00  0.00    +0.220 C 
ATOM     37  H   UNL     1      35.558  -6.182 -23.661  0.00  0.00    +0.145 HD
ATOM     38  H   UNL     1      36.126  -7.579 -22.865  0.00  0.00    +0.145 HD
ENDBRANCH  33  36
ENDBRANCH   5  33
TORSDOF 5
ENDMDL
MODEL 7
REMARK VINA RESULT:     -11.4      2.572     10.654
REMARK  Name = 25174099
REMARK  5 active torsions:
REMARK  status: ('A' for Active; 'I' for Inactive)
REMARK    1  A    between atoms: C_5  and  C_33
REMARK    2  A    between atoms: C_14  and  C_18
REMARK    3  A    between atoms: N_17  and  C_20
REMARK    4  A    between atoms: C_20  and  C_24
REMARK    5  A    between atoms: C_33  and  C_36
REMARK                            x       y       z     vdW  Elec       q    Type
REMARK                         _______ _______ _______ _____ _____    ______ ____
ROOT
ATOM      1  S   UNL     1      33.308 -14.995 -19.657  0.00  0.00    -0.064 S 
ATOM      2  O   UNL     1      34.804 -15.210 -24.362  0.00  0.00    -0.274 OA
ATOM      3  N   UNL     1      34.875 -16.946 -20.610  0.00  0.00    -0.379 NA
ATOM      4  N   UNL     1      35.499 -16.876 -22.918  0.00  0.00    -0.255 N 
ATOM      5  C   UNL     1      33.049 -12.934 -23.105  0.00  0.00    +0.028 C 
ATOM      6  C   UNL     1      31.801 -12.082 -22.763  0.00  0.00    +0.005 C 
ATOM      7  C   UNL     1      33.333 -13.930 -22.007  0.00  0.00    -0.027 C 
ATOM      8  C   UNL     1      31.837 -11.546 -21.325  0.00  0.00    +0.006 C 
ATOM      9  C   UNL     1      31.889 -12.681 -20.294  0.00  0.00    +0.032 C 
ATOM     10  C   UNL     1      32.820 -13.769 -20.731  0.00  0.00    +0.002 C 
ATOM     11  C   UNL     1      34.121 -15.126 -22.091  0.00  0.00    +0.154 C 
ATOM     12  C   UNL     1      34.199 -15.791 -20.875  0.00  0.00    +0.152 C 
ATOM     13  C   UNL     1      34.820 -15.701 -23.237  0.00  0.00    +0.239 C 
ATOM     14  C   UNL     1      35.492 -17.427 -21.645  0.00  0.00    +0.240 C 
ATOM     15  H   UNL     1      36.006 -17.334 -23.626  0.00  0.00    +0.157 HD
ENDROOT
BRANCH  14  18
ATOM     16  O   UNL     1      37.227 -18.848 -22.242  0.00  0.00    -0.266 OA
ATOM     17  N   UNL     1      35.788 -19.512 -20.513  0.00  0.00    -0.294 N 
ATOM     18  C   UNL     1      36.268 -18.679 -21.500  0.00  0.00    +0.290 C 
ATOM     19  H   UNL     1      34.998 -19.223 -20.001  0.00  0.00    +0.150 HD
BRANCH  17  20
ATOM     20  C   UNL     1      36.388 -20.787 -20.193  0.00  0.00    +0.117 C 
BRANCH  20  24
ATOM     21  O   UNL     1      33.448 -23.573 -16.245  0.00  0.00    -0.464 OA
ATOM     22  O   UNL     1      36.079 -24.258 -13.864  0.00  0.00    -0.271 OA
ATOM     23  N   UNL     1      36.220 -23.149 -15.875  0.00  0.00    -0.279 N 
ATOM     24  C   UNL     1      35.620 -21.517 -19.130  0.00  0.00    -0.001 C 
ATOM     25  C   UNL     1      35.558 -22.652 -17.001  0.00  0.00    +0.085 C 
ATOM     26  C   UNL     1      36.278 -21.980 -17.990  0.00  0.00    +0.015 C 
ATOM     27  C   UNL     1      34.189 -22.870 -17.153  0.00  0.00    +0.153 C 
ATOM     28  C   UNL     1      34.251 -21.736 -19.285  0.00  0.00    +0.001 C 
ATOM     29  C   UNL     1      33.536 -22.420 -18.301  0.00  0.00    +0.038 C 
ATOM     30  C   UNL     1      34.025 -23.639 -14.955  0.00  0.00    +0.290 C 
ATOM     31  C   UNL     1      35.536 -23.746 -14.841  0.00  0.00    +0.271 C 
ATOM     32  H   UNL     1      37.200 -23.071 -15.819  0.00  0.00    +0.155 HD
ENDBRANCH  20  24
ENDBRANCH  17  20
ENDBRANCH  14  18
BRANCH   5  33
ATOM     33  C   UNL     1      34.263 -12.036 -23.365  0.00  0.00    +0.089 C 
BRANCH  33  36
ATOM     34  O   UNL     1      33.816 -12.255 -25.739  0.00  0.00    -0.275 OA
ATOM     35  N   UNL     1      35.262 -10.620 -25.015  0.00  0.00    -0.329 N 
ATOM     36  C   UNL     1      34.400 -11.678 -24.825  0.00  0.00    +0.220 C 
ATOM     37  H   UNL     1      35.440 -10.287 -25.924  0.00  0.00    +0.145 HD
ATOM     38  H   UNL     1      35.701 -10.198 -24.242  0.00  0.00    +0.145 HD
ENDBRANCH  33  36
ENDBRANCH   5  33
TORSDOF 5
ENDMDL
MODEL 8
REMARK VINA RESULT:     -11.1      2.433      3.439
REMARK  Name = 25174099
REMARK  5 active torsions:
REMARK  status: ('A' for Active; 'I' for Inactive)
REMARK    1  A    between atoms: C_5  and  C_33
REMARK    2  A    between atoms: C_14  and  C_18
REMARK    3  A    between atoms: N_17  and  C_20
REMARK    4  A    between atoms: C_20  and  C_24
REMARK    5  A    between atoms: C_33  and  C_36
REMARK                            x       y       z     vdW  Elec       q    Type
REMARK                         _______ _______ _______ _____ _____    ______ ____
ROOT
ATOM      1  S   UNL     1      32.346 -22.611 -17.382  0.00  0.00    -0.064 S 
ATOM      2  O   UNL     1      37.238 -22.243 -16.791  0.00  0.00    -0.274 OA
ATOM      3  N   UNL     1      33.951 -21.414 -19.158  0.00  0.00    -0.379 NA
ATOM      4  N   UNL     1      36.298 -21.340 -18.699  0.00  0.00    -0.255 N 
ATOM      5  C   UNL     1      35.266 -23.697 -14.832  0.00  0.00    +0.028 C 
ATOM      6  C   UNL     1      34.387 -23.958 -13.584  0.00  0.00    +0.005 C 
ATOM      7  C   UNL     1      34.435 -23.140 -15.963  0.00  0.00    -0.027 C 
ATOM      8  C   UNL     1      33.088 -24.702 -13.929  0.00  0.00    +0.006 C 
ATOM      9  C   UNL     1      32.222 -23.910 -14.917  0.00  0.00    +0.032 C 
ATOM     10  C   UNL     1      33.058 -23.284 -15.991  0.00  0.00    +0.002 C 
ATOM     11  C   UNL     1      34.895 -22.420 -17.115  0.00  0.00    +0.154 C 
ATOM     12  C   UNL     1      33.857 -22.085 -17.975  0.00  0.00    +0.152 C 
ATOM     13  C   UNL     1      36.250 -22.017 -17.482  0.00  0.00    +0.239 C 
ATOM     14  C   UNL     1      35.168 -21.078 -19.460  0.00  0.00    +0.240 C 
ATOM     15  H   UNL     1      37.171 -21.034 -19.034  0.00  0.00    +0.157 HD
ENDROOT
BRANCH  14  18
ATOM     16  O   UNL     1      34.675 -20.562 -21.668  0.00  0.00    -0.266 OA
ATOM     17  N   UNL     1      36.493 -19.484 -20.651  0.00  0.00    -0.294 N 
ATOM     18  C   UNL     1      35.418 -20.343 -20.721  0.00  0.00    +0.290 C 
ATOM     19  H   UNL     1      36.991 -19.425 -19.804  0.00  0.00    +0.150 HD
BRANCH  17  20
ATOM     20  C   UNL     1      36.921 -18.663 -21.760  0.00  0.00    +0.117 C 
BRANCH  20  24
ATOM     21  O   UNL     1      33.157 -14.628 -23.004  0.00  0.00    -0.464 OA
ATOM     22  O   UNL     1      32.209 -13.600 -19.672  0.00  0.00    -0.271 OA
ATOM     23  N   UNL     1      33.714 -15.223 -20.296  0.00  0.00    -0.279 N 
ATOM     24  C   UNL     1      35.929 -17.580 -22.073  0.00  0.00    -0.001 C 
ATOM     25  C   UNL     1      34.378 -15.886 -21.332  0.00  0.00    +0.085 C 
ATOM     26  C   UNL     1      35.295 -16.896 -21.035  0.00  0.00    +0.015 C 
ATOM     27  C   UNL     1      34.088 -15.566 -22.657  0.00  0.00    +0.153 C 
ATOM     28  C   UNL     1      35.638 -17.264 -23.400  0.00  0.00    +0.001 C 
ATOM     29  C   UNL     1      34.712 -16.262 -23.693  0.00  0.00    +0.038 C 
ATOM     30  C   UNL     1      32.873 -13.690 -21.983  0.00  0.00    +0.290 C 
ATOM     31  C   UNL     1      32.865 -14.169 -20.541  0.00  0.00    +0.271 C 
ATOM     32  H   UNL     1      33.858 -15.517 -19.367  0.00  0.00    +0.155 HD
ENDBRANCH  20  24
ENDBRANCH  17  20
ENDBRANCH  14  18
BRANCH   5  33
ATOM     33  C   UNL     1      35.996 -24.976 -15.258  0.00  0.00    +0.089 C 
BRANCH  33  36
ATOM     34  O   UNL     1      37.393 -25.934 -13.522  0.00  0.00    -0.275 OA
ATOM     35  N   UNL     1      38.307 -24.419 -14.992  0.00  0.00    -0.329 N 
ATOM     36  C   UNL     1      37.276 -25.181 -14.486  0.00  0.00    +0.220 C 
ATOM     37  H   UNL     1      39.199 -24.460 -14.577  0.00  0.00    +0.145 HD
ATOM     38  H   UNL     1      38.151 -23.833 -15.768  0.00  0.00    +0.145 HD
ENDBRANCH  33  36
ENDBRANCH   5  33
TORSDOF 5
ENDMDL
MODEL 9
REMARK VINA RESULT:     -11.1      2.607      9.972
REMARK  Name = 25174099
REMARK  5 active torsions:
REMARK  status: ('A' for Active; 'I' for Inactive)
REMARK    1  A    between atoms: C_5  and  C_33
REMARK    2  A    between atoms: C_14  and  C_18
REMARK    3  A    between atoms: N_17  and  C_20
REMARK    4  A    between atoms: C_20  and  C_24
REMARK    5  A    between atoms: C_33  and  C_36
REMARK                            x       y       z     vdW  Elec       q    Type
REMARK                         _______ _______ _______ _____ _____    ______ ____
ROOT
ATOM      1  S   UNL     1      34.819 -17.170 -24.829  0.00  0.00    -0.064 S 
ATOM      2  O   UNL     1      34.774 -15.030 -20.375  0.00  0.00    -0.274 OA
ATOM      3  N   UNL     1      35.687 -18.388 -22.608  0.00  0.00    -0.379 NA
ATOM      4  N   UNL     1      35.581 -17.189 -20.541  0.00  0.00    -0.255 N 
ATOM      5  C   UNL     1      33.703 -13.746 -23.029  0.00  0.00    +0.028 C 
ATOM      6  C   UNL     1      33.643 -12.843 -24.286  0.00  0.00    +0.005 C 
ATOM      7  C   UNL     1      34.228 -15.117 -23.382  0.00  0.00    -0.027 C 
ATOM      8  C   UNL     1      32.997 -13.551 -25.485  0.00  0.00    +0.006 C 
ATOM      9  C   UNL     1      33.773 -14.812 -25.888  0.00  0.00    +0.032 C 
ATOM     10  C   UNL     1      34.214 -15.586 -24.685  0.00  0.00    +0.002 C 
ATOM     11  C   UNL     1      34.790 -16.094 -22.495  0.00  0.00    +0.154 C 
ATOM     12  C   UNL     1      35.141 -17.264 -23.156  0.00  0.00    +0.152 C 
ATOM     13  C   UNL     1      35.027 -16.019 -21.056  0.00  0.00    +0.239 C 
ATOM     14  C   UNL     1      35.876 -18.292 -21.328  0.00  0.00    +0.240 C 
ATOM     15  H   UNL     1      35.770 -17.236 -19.576  0.00  0.00    +0.157 HD
ENDROOT
BRANCH  14  18
ATOM     16  O   UNL     1      37.444 -19.235 -19.900  0.00  0.00    -0.266 OA
ATOM     17  N   UNL     1      35.799 -20.628 -20.825  0.00  0.00    -0.294 N 
ATOM     18  C   UNL     1      36.463 -19.442 -20.602  0.00  0.00    +0.290 C 
ATOM     19  H   UNL     1      35.018 -20.622 -21.424  0.00  0.00    +0.150 HD
BRANCH  17  20
ATOM     20  C   UNL     1      36.194 -21.880 -20.219  0.00  0.00    +0.117 C 
BRANCH  20  24
ATOM     21  O   UNL     1      33.636 -22.701 -15.242  0.00  0.00    -0.464 OA
ATOM     22  O   UNL     1      30.198 -22.939 -16.329  0.00  0.00    -0.271 OA
ATOM     23  N   UNL     1      32.082 -22.597 -17.603  0.00  0.00    -0.279 N 
ATOM     24  C   UNL     1      35.500 -22.111 -18.908  0.00  0.00    -0.001 C 
ATOM     25  C   UNL     1      33.475 -22.482 -17.649  0.00  0.00    +0.085 C 
ATOM     26  C   UNL     1      34.113 -22.260 -18.870  0.00  0.00    +0.015 C 
ATOM     27  C   UNL     1      34.215 -22.545 -16.469  0.00  0.00    +0.153 C 
ATOM     28  C   UNL     1      36.242 -22.170 -17.728  0.00  0.00    +0.001 C 
ATOM     29  C   UNL     1      35.600 -22.380 -16.507  0.00  0.00    +0.038 C 
ATOM     30  C   UNL     1      32.339 -23.266 -15.281  0.00  0.00    +0.290 C 
ATOM     31  C   UNL     1      31.422 -22.895 -16.434  0.00  0.00    +0.271 C 
ATOM     32  H   UNL     1      31.561 -22.461 -18.427  0.00  0.00    +0.155 HD
ENDBRANCH  20  24
ENDBRANCH  17  20
ENDBRANCH  14  18
BRANCH   5  33
ATOM     33  C   UNL     1      32.326 -13.836 -22.361  0.00  0.00    +0.089 C 
BRANCH  33  36
ATOM     34  O   UNL     1      31.785 -11.612 -21.556  0.00  0.00    -0.275 OA
ATOM     35  N   UNL     1      32.399 -13.235 -20.046  0.00  0.00    -0.329 N 
ATOM     36  C   UNL     1      32.135 -12.765 -21.315  0.00  0.00    +0.220 C 
ATOM     37  H   UNL     1      32.312 -12.635 -19.271  0.00  0.00    +0.145 HD
ATOM     38  H   UNL     1      32.676 -14.171 -19.916  0.00  0.00    +0.145 HD
ENDBRANCH  33  36
ENDBRANCH   5  33
TORSDOF 5
ENDMDL
