MODEL 1
REMARK VINA RESULT:     -11.4      0.000      0.000
REMARK  Name = 91617630
REMARK  6 active torsions:
REMARK  status: ('A' for Active; 'I' for Inactive)
REMARK    1  A    between atoms: N_4  and  C_10
REMARK    2  A    between atoms: N_5  and  C_16
REMARK    3  A    between atoms: C_7  and  C_24
REMARK    4  A    between atoms: N_23  and  C_26
REMARK    5  A    between atoms: C_26  and  C_28
REMARK    6  A    between atoms: C_28  and  O_29
REMARK                            x       y       z     vdW  Elec       q    Type
REMARK                         _______ _______ _______ _____ _____    ______ ____
ROOT
ATOM      1  O   UNL     1      36.215 -23.306 -15.807  0.00  0.00    -0.252 OA
ATOM      2  O   UNL     1      31.821 -23.078 -17.301  0.00  0.00    -0.273 OA
ATOM      3  O   UNL     1      32.703 -24.713 -13.105  0.00  0.00    -0.273 OA
ATOM      4  N   UNL     1      34.031 -23.079 -16.564  0.00  0.00    -0.215 N 
ATOM      5  N   UNL     1      34.490 -23.939 -14.385  0.00  0.00    -0.215 N 
ATOM      6  C   UNL     1      35.002 -23.415 -15.594  0.00  0.00    +0.319 C 
ATOM      7  C   UNL     1      32.209 -23.272 -14.949  0.00  0.00    +0.229 C 
ATOM      8  C   UNL     1      32.645 -23.155 -16.389  0.00  0.00    +0.250 C 
ATOM      9  C   UNL     1      33.135 -24.066 -14.061  0.00  0.00    +0.250 C 
ENDROOT
BRANCH   4  10
ATOM     10  C   UNL     1      34.525 -22.717 -17.871  0.00  0.00    +0.084 C 
ATOM     11  C   UNL     1      35.878 -22.011 -17.756  0.00  0.00    +0.020 C 
ATOM     12  C   UNL     1      33.505 -21.851 -18.614  0.00  0.00    +0.020 C 
ATOM     13  C   UNL     1      34.031 -21.411 -19.979  0.00  0.00    +0.002 C 
ATOM     14  C   UNL     1      36.400 -21.569 -19.121  0.00  0.00    +0.002 C 
ATOM     15  C   UNL     1      35.380 -20.709 -19.862  0.00  0.00    +0.000 C 
ENDBRANCH   4  10
BRANCH   5  16
ATOM     16  C   UNL     1      35.459 -24.462 -13.451  0.00  0.00    +0.084 C 
ATOM     17  C   UNL     1      36.316 -25.546 -14.110  0.00  0.00    +0.020 C 
ATOM     18  C   UNL     1      36.325 -23.333 -12.889  0.00  0.00    +0.020 C 
ATOM     19  C   UNL     1      37.394 -23.864 -11.938  0.00  0.00    +0.002 C 
ATOM     20  C   UNL     1      37.384 -26.075 -13.156  0.00  0.00    +0.002 C 
ATOM     21  C   UNL     1      38.245 -24.947 -12.595  0.00  0.00    +0.000 C 
ENDBRANCH   5  16
BRANCH   7  24
ATOM     22  O   UNL     1      30.506 -24.889 -14.509  0.00  0.00    -0.274 OA
ATOM     23  N   UNL     1      29.881 -22.741 -15.154  0.00  0.00    -0.294 N 
ATOM     24  C   UNL     1      30.786 -23.738 -14.835  0.00  0.00    +0.240 C 
ATOM     25  H   UNL     1      30.228 -21.854 -15.401  0.00  0.00    +0.150 HD
BRANCH  23  26
ATOM     26  C   UNL     1      28.449 -22.941 -15.145  0.00  0.00    +0.200 C 
BRANCH  26  28
ATOM     27  O   UNL     1      27.440 -21.645 -16.904  0.00  0.00    -0.248 OA
ATOM     28  C   UNL     1      27.820 -22.737 -16.498  0.00  0.00    +0.334 C 
BRANCH  28  29
ATOM     29  O   UNL     1      27.712 -23.876 -17.223  0.00  0.00    -0.479 OA
ATOM     30  H   UNL     1      28.478 -24.271 -17.590  0.00  0.00    +0.295 HD
ENDBRANCH  28  29
ENDBRANCH  26  28
ENDBRANCH  23  26
ENDBRANCH   7  24
TORSDOF 6
ENDMDL
MODEL 2
REMARK VINA RESULT:     -11.2      1.723      7.044
REMARK  Name = 91617630
REMARK  6 active torsions:
REMARK  status: ('A' for Active; 'I' for Inactive)
REMARK    1  A    between atoms: N_4  and  C_10
REMARK    2  A    between atoms: N_5  and  C_16
REMARK    3  A    between atoms: C_7  and  C_24
REMARK    4  A    between atoms: N_23  and  C_26
REMARK    5  A    between atoms: C_26  and  C_28
REMARK    6  A    between atoms: C_28  and  O_29
REMARK                            x       y       z     vdW  Elec       q    Type
REMARK                         _______ _______ _______ _____ _____    ______ ____
ROOT
ATOM      1  O   UNL     1      32.047 -22.748 -16.902  0.00  0.00    -0.252 OA
ATOM      2  O   UNL     1      33.284 -24.474 -12.769  0.00  0.00    -0.273 OA
ATOM      3  O   UNL     1      36.520 -23.472 -15.865  0.00  0.00    -0.273 OA
ATOM      4  N   UNL     1      32.617 -23.519 -14.788  0.00  0.00    -0.215 N 
ATOM      5  N   UNL     1      34.300 -23.009 -16.401  0.00  0.00    -0.215 N 
ATOM      6  C   UNL     1      32.923 -23.051 -16.085  0.00  0.00    +0.319 C 
ATOM      7  C   UNL     1      34.945 -23.346 -14.069  0.00  0.00    +0.229 C 
ATOM      8  C   UNL     1      33.552 -23.860 -13.802  0.00  0.00    +0.250 C 
ATOM      9  C   UNL     1      35.348 -23.307 -15.523  0.00  0.00    +0.250 C 
ENDROOT
BRANCH   4  10
ATOM     10  C   UNL     1      31.222 -23.750 -14.499  0.00  0.00    +0.084 C 
ATOM     11  C   UNL     1      30.786 -25.121 -15.020  0.00  0.00    +0.020 C 
ATOM     12  C   UNL     1      30.357 -22.630 -15.081  0.00  0.00    +0.020 C 
ATOM     13  C   UNL     1      28.871 -22.883 -14.834  0.00  0.00    +0.002 C 
ATOM     14  C   UNL     1      29.300 -25.369 -14.775  0.00  0.00    +0.002 C 
ATOM     15  C   UNL     1      28.438 -24.250 -15.353  0.00  0.00    +0.000 C 
ENDBRANCH   4  10
BRANCH   5  16
ATOM     16  C   UNL     1      34.635 -22.712 -17.774  0.00  0.00    +0.084 C 
ATOM     17  C   UNL     1      33.495 -21.950 -18.456  0.00  0.00    +0.020 C 
ATOM     18  C   UNL     1      35.949 -21.933 -17.849  0.00  0.00    +0.020 C 
ATOM     19  C   UNL     1      36.300 -21.559 -19.287  0.00  0.00    +0.002 C 
ATOM     20  C   UNL     1      33.850 -21.578 -19.894  0.00  0.00    +0.002 C 
ATOM     21  C   UNL     1      35.162 -20.804 -19.967  0.00  0.00    +0.000 C 
ENDBRANCH   5  16
BRANCH   7  24
ATOM     22  O   UNL     1      36.548 -23.478 -12.302  0.00  0.00    -0.274 OA
ATOM     23  N   UNL     1      36.170 -25.357 -13.623  0.00  0.00    -0.294 N 
ATOM     24  C   UNL     1      35.968 -24.048 -13.223  0.00  0.00    +0.240 C 
ATOM     25  H   UNL     1      35.643 -25.703 -14.379  0.00  0.00    +0.150 HD
BRANCH  23  26
ATOM     26  C   UNL     1      37.120 -26.241 -12.987  0.00  0.00    +0.200 C 
BRANCH  26  28
ATOM     27  O   UNL     1      39.026 -26.865 -14.318  0.00  0.00    -0.248 OA
ATOM     28  C   UNL     1      38.520 -26.083 -13.523  0.00  0.00    +0.334 C 
BRANCH  28  29
ATOM     29  O   UNL     1      39.164 -24.994 -13.041  0.00  0.00    -0.479 OA
ATOM     30  H   UNL     1      40.017 -24.775 -13.362  0.00  0.00    +0.295 HD
ENDBRANCH  28  29
ENDBRANCH  26  28
ENDBRANCH  23  26
ENDBRANCH   7  24
TORSDOF 6
ENDMDL
MODEL 3
REMARK VINA RESULT:     -11.2      1.812      4.984
REMARK  Name = 91617630
REMARK  6 active torsions:
REMARK  status: ('A' for Active; 'I' for Inactive)
REMARK    1  A    between atoms: N_4  and  C_10
REMARK    2  A    between atoms: N_5  and  C_16
REMARK    3  A    between atoms: C_7  and  C_24
REMARK    4  A    between atoms: N_23  and  C_26
REMARK    5  A    between atoms: C_26  and  C_28
REMARK    6  A    between atoms: C_28  and  O_29
REMARK                            x       y       z     vdW  Elec       q    Type
REMARK                         _______ _______ _______ _____ _____    ______ ____
ROOT
ATOM      1  O   UNL     1      32.923 -24.904 -12.743  0.00  0.00    -0.252 OA
ATOM      2  O   UNL     1      32.329 -22.638 -16.756  0.00  0.00    -0.273 OA
ATOM      3  O   UNL     1      36.576 -23.397 -15.192  0.00  0.00    -0.273 OA
ATOM      4  N   UNL     1      32.574 -23.864 -14.790  0.00  0.00    -0.215 N 
ATOM      5  N   UNL     1      34.783 -24.250 -13.972  0.00  0.00    -0.215 N 
ATOM      6  C   UNL     1      33.392 -24.395 -13.767  0.00  0.00    +0.319 C 
ATOM      7  C   UNL     1      34.470 -23.605 -16.307  0.00  0.00    +0.229 C 
ATOM      8  C   UNL     1      33.030 -23.294 -15.984  0.00  0.00    +0.250 C 
ATOM      9  C   UNL     1      35.388 -23.712 -15.113  0.00  0.00    +0.250 C 
ENDROOT
BRANCH   4  10
ATOM     10  C   UNL     1      31.156 -23.830 -14.527  0.00  0.00    +0.084 C 
ATOM     11  C   UNL     1      30.442 -24.950 -15.289  0.00  0.00    +0.020 C 
ATOM     12  C   UNL     1      30.573 -22.459 -14.877  0.00  0.00    +0.020 C 
ATOM     13  C   UNL     1      29.062 -22.418 -14.658  0.00  0.00    +0.002 C 
ATOM     14  C   UNL     1      28.932 -24.905 -15.072  0.00  0.00    +0.002 C 
ATOM     15  C   UNL     1      28.353 -23.535 -15.417  0.00  0.00    +0.000 C 
ENDBRANCH   4  10
BRANCH   5  16
ATOM     16  C   UNL     1      35.636 -24.613 -12.865  0.00  0.00    +0.084 C 
ATOM     17  C   UNL     1      36.682 -25.643 -13.303  0.00  0.00    +0.020 C 
ATOM     18  C   UNL     1      36.295 -23.370 -12.266  0.00  0.00    +0.020 C 
ATOM     19  C   UNL     1      37.246 -23.730 -11.126  0.00  0.00    +0.002 C 
ATOM     20  C   UNL     1      37.630 -26.001 -12.162  0.00  0.00    +0.002 C 
ATOM     21  C   UNL     1      38.284 -24.759 -11.563  0.00  0.00    +0.000 C 
ENDBRANCH   5  16
BRANCH   7  24
ATOM     22  O   UNL     1      35.901 -21.862 -17.097  0.00  0.00    -0.274 OA
ATOM     23  N   UNL     1      34.403 -22.850 -18.581  0.00  0.00    -0.294 N 
ATOM     24  C   UNL     1      35.018 -22.678 -17.353  0.00  0.00    +0.240 C 
ATOM     25  H   UNL     1      33.706 -23.540 -18.663  0.00  0.00    +0.150 HD
BRANCH  23  26
ATOM     26  C   UNL     1      34.732 -22.064 -19.748  0.00  0.00    +0.200 C 
BRANCH  26  28
ATOM     27  O   UNL     1      34.142 -19.894 -20.605  0.00  0.00    -0.248 OA
ATOM     28  C   UNL     1      33.841 -20.861 -19.917  0.00  0.00    +0.334 C 
BRANCH  28  29
ATOM     29  O   UNL     1      32.676 -20.950 -19.233  0.00  0.00    -0.479 OA
ATOM     30  H   UNL     1      31.860 -20.871 -19.687  0.00  0.00    +0.295 HD
ENDBRANCH  28  29
ENDBRANCH  26  28
ENDBRANCH  23  26
ENDBRANCH   7  24
TORSDOF 6
ENDMDL
MODEL 4
REMARK VINA RESULT:     -11.1      1.734      6.103
REMARK  Name = 91617630
REMARK  6 active torsions:
REMARK  status: ('A' for Active; 'I' for Inactive)
REMARK    1  A    between atoms: N_4  and  C_10
REMARK    2  A    between atoms: N_5  and  C_16
REMARK    3  A    between atoms: C_7  and  C_24
REMARK    4  A    between atoms: N_23  and  C_26
REMARK    5  A    between atoms: C_26  and  C_28
REMARK    6  A    between atoms: C_28  and  O_29
REMARK                            x       y       z     vdW  Elec       q    Type
REMARK                         _______ _______ _______ _____ _____    ______ ____
ROOT
ATOM      1  O   UNL     1      31.837 -23.140 -17.399  0.00  0.00    -0.252 OA
ATOM      2  O   UNL     1      36.305 -22.969 -16.136  0.00  0.00    -0.273 OA
ATOM      3  O   UNL     1      33.097 -23.882 -12.986  0.00  0.00    -0.273 OA
ATOM      4  N   UNL     1      34.090 -23.140 -16.840  0.00  0.00    -0.215 N 
ATOM      5  N   UNL     1      32.421 -23.605 -15.199  0.00  0.00    -0.215 N 
ATOM      6  C   UNL     1      32.717 -23.302 -16.547  0.00  0.00    +0.319 C 
ATOM      7  C   UNL     1      34.762 -24.086 -14.691  0.00  0.00    +0.229 C 
ATOM      8  C   UNL     1      35.144 -23.328 -15.938  0.00  0.00    +0.250 C 
ATOM      9  C   UNL     1      33.362 -23.831 -14.188  0.00  0.00    +0.250 C 
ENDROOT
BRANCH   4  10
ATOM     10  C   UNL     1      34.414 -22.650 -18.158  0.00  0.00    +0.084 C 
ATOM     11  C   UNL     1      35.799 -21.999 -18.163  0.00  0.00    +0.020 C 
ATOM     12  C   UNL     1      33.340 -21.680 -18.654  0.00  0.00    +0.020 C 
ATOM     13  C   UNL     1      33.690 -21.107 -20.026  0.00  0.00    +0.002 C 
ATOM     14  C   UNL     1      36.146 -21.424 -19.535  0.00  0.00    +0.002 C 
ATOM     15  C   UNL     1      35.072 -20.460 -20.029  0.00  0.00    +0.000 C 
ENDBRANCH   4  10
BRANCH   5  16
ATOM     16  C   UNL     1      31.025 -23.594 -14.831  0.00  0.00    +0.084 C 
ATOM     17  C   UNL     1      30.289 -22.449 -15.534  0.00  0.00    +0.020 C 
ATOM     18  C   UNL     1      30.379 -24.945 -15.141  0.00  0.00    +0.020 C 
ATOM     19  C   UNL     1      28.888 -24.945 -14.811  0.00  0.00    +0.002 C 
ATOM     20  C   UNL     1      28.799 -22.452 -15.201  0.00  0.00    +0.002 C 
ATOM     21  C   UNL     1      28.157 -23.801 -15.508  0.00  0.00    +0.000 C 
ENDBRANCH   5  16
BRANCH   7  24
ATOM     22  O   UNL     1      36.439 -22.890 -13.481  0.00  0.00    -0.274 OA
ATOM     23  N   UNL     1      35.897 -25.054 -12.815  0.00  0.00    -0.294 N 
ATOM     24  C   UNL     1      35.785 -23.923 -13.605  0.00  0.00    +0.240 C 
ATOM     25  H   UNL     1      35.316 -25.823 -13.013  0.00  0.00    +0.150 HD
BRANCH  23  26
ATOM     26  C   UNL     1      36.828 -25.162 -11.715  0.00  0.00    +0.200 C 
BRANCH  26  28
ATOM     27  O   UNL     1      35.560 -24.600  -9.749  0.00  0.00    -0.248 OA
ATOM     28  C   UNL     1      36.448 -24.303 -10.538  0.00  0.00    +0.334 C 
BRANCH  28  29
ATOM     29  O   UNL     1      37.181 -23.169 -10.435  0.00  0.00    -0.479 OA
ATOM     30  H   UNL     1      36.820 -22.415 -10.011  0.00  0.00    +0.295 HD
ENDBRANCH  28  29
ENDBRANCH  26  28
ENDBRANCH  23  26
ENDBRANCH   7  24
TORSDOF 6
ENDMDL
MODEL 5
REMARK VINA RESULT:     -11.0      1.797      6.460
REMARK  Name = 91617630
REMARK  6 active torsions:
REMARK  status: ('A' for Active; 'I' for Inactive)
REMARK    1  A    between atoms: N_4  and  C_10
REMARK    2  A    between atoms: N_5  and  C_16
REMARK    3  A    between atoms: C_7  and  C_24
REMARK    4  A    between atoms: N_23  and  C_26
REMARK    5  A    between atoms: C_26  and  C_28
REMARK    6  A    between atoms: C_28  and  O_29
REMARK                            x       y       z     vdW  Elec       q    Type
REMARK                         _______ _______ _______ _____ _____    ______ ____
ROOT
ATOM      1  O   UNL     1      31.951 -23.127 -17.375  0.00  0.00    -0.252 OA
ATOM      2  O   UNL     1      36.503 -22.832 -16.491  0.00  0.00    -0.273 OA
ATOM      3  O   UNL     1      33.607 -23.933 -13.106  0.00  0.00    -0.273 OA
ATOM      4  N   UNL     1      34.243 -23.062 -17.009  0.00  0.00    -0.215 N 
ATOM      5  N   UNL     1      32.736 -23.625 -15.246  0.00  0.00    -0.215 N 
ATOM      6  C   UNL     1      32.906 -23.279 -16.606  0.00  0.00    +0.319 C 
ATOM      7  C   UNL     1      35.125 -24.037 -14.951  0.00  0.00    +0.229 C 
ATOM      8  C   UNL     1      35.375 -23.235 -16.205  0.00  0.00    +0.250 C 
ATOM      9  C   UNL     1      33.766 -23.843 -14.325  0.00  0.00    +0.250 C 
ENDROOT
BRANCH   4  10
ATOM     10  C   UNL     1      34.437 -22.530 -18.336  0.00  0.00    +0.084 C 
ATOM     11  C   UNL     1      35.798 -21.839 -18.443  0.00  0.00    +0.020 C 
ATOM     12  C   UNL     1      33.298 -21.577 -18.709  0.00  0.00    +0.020 C 
ATOM     13  C   UNL     1      33.512 -20.959 -20.089  0.00  0.00    +0.002 C 
ATOM     14  C   UNL     1      36.008 -21.219 -19.823  0.00  0.00    +0.002 C 
ATOM     15  C   UNL     1      34.870 -20.273 -20.194  0.00  0.00    +0.000 C 
ENDBRANCH   4  10
BRANCH   5  16
ATOM     16  C   UNL     1      31.377 -23.671 -14.761  0.00  0.00    +0.084 C 
ATOM     17  C   UNL     1      30.556 -22.515 -15.340  0.00  0.00    +0.020 C 
ATOM     18  C   UNL     1      30.739 -25.024 -15.083  0.00  0.00    +0.020 C 
ATOM     19  C   UNL     1      29.282 -25.082 -14.628  0.00  0.00    +0.002 C 
ATOM     20  C   UNL     1      29.100 -22.577 -14.884  0.00  0.00    +0.002 C 
ATOM     21  C   UNL     1      28.467 -23.927 -15.203  0.00  0.00    +0.000 C 
ENDBRANCH   5  16
BRANCH   7  24
ATOM     22  O   UNL     1      36.255 -22.921 -13.165  0.00  0.00    -0.274 OA
ATOM     23  N   UNL     1      37.189 -24.861 -14.052  0.00  0.00    -0.294 N 
ATOM     24  C   UNL     1      36.232 -23.865 -13.951  0.00  0.00    +0.240 C 
ATOM     25  H   UNL     1      37.060 -25.568 -14.724  0.00  0.00    +0.150 HD
BRANCH  23  26
ATOM     26  C   UNL     1      38.368 -24.911 -13.219  0.00  0.00    +0.200 C 
BRANCH  26  28
ATOM     27  O   UNL     1      40.630 -25.002 -14.039  0.00  0.00    -0.248 OA
ATOM     28  C   UNL     1      39.545 -25.555 -13.905  0.00  0.00    +0.334 C 
BRANCH  28  29
ATOM     29  O   UNL     1      39.289 -26.804 -14.362  0.00  0.00    -0.479 OA
ATOM     30  H   UNL     1      39.496 -27.030 -15.248  0.00  0.00    +0.295 HD
ENDBRANCH  28  29
ENDBRANCH  26  28
ENDBRANCH  23  26
ENDBRANCH   7  24
TORSDOF 6
ENDMDL
MODEL 6
REMARK VINA RESULT:     -10.9      1.728      6.847
REMARK  Name = 91617630
REMARK  6 active torsions:
REMARK  status: ('A' for Active; 'I' for Inactive)
REMARK    1  A    between atoms: N_4  and  C_10
REMARK    2  A    between atoms: N_5  and  C_16
REMARK    3  A    between atoms: C_7  and  C_24
REMARK    4  A    between atoms: N_23  and  C_26
REMARK    5  A    between atoms: C_26  and  C_28
REMARK    6  A    between atoms: C_28  and  O_29
REMARK                            x       y       z     vdW  Elec       q    Type
REMARK                         _______ _______ _______ _____ _____    ______ ____
ROOT
ATOM      1  O   UNL     1      31.710 -22.468 -17.308  0.00  0.00    -0.252 OA
ATOM      2  O   UNL     1      32.893 -24.297 -13.203  0.00  0.00    -0.273 OA
ATOM      3  O   UNL     1      36.162 -23.322 -16.273  0.00  0.00    -0.273 OA
ATOM      4  N   UNL     1      32.256 -23.291 -15.206  0.00  0.00    -0.215 N 
ATOM      5  N   UNL     1      33.955 -22.794 -16.806  0.00  0.00    -0.215 N 
ATOM      6  C   UNL     1      32.577 -22.807 -16.494  0.00  0.00    +0.319 C 
ATOM      7  C   UNL     1      34.585 -23.188 -14.479  0.00  0.00    +0.229 C 
ATOM      8  C   UNL     1      33.179 -23.671 -14.225  0.00  0.00    +0.250 C 
ATOM      9  C   UNL     1      34.993 -23.134 -15.931  0.00  0.00    +0.250 C 
ENDROOT
BRANCH   4  10
ATOM     10  C   UNL     1      30.855 -23.491 -14.924  0.00  0.00    +0.084 C 
ATOM     11  C   UNL     1      30.412 -24.886 -15.371  0.00  0.00    +0.020 C 
ATOM     12  C   UNL     1      30.008 -22.400 -15.584  0.00  0.00    +0.020 C 
ATOM     13  C   UNL     1      28.517 -22.624 -15.344  0.00  0.00    +0.002 C 
ATOM     14  C   UNL     1      28.920 -25.107 -15.134  0.00  0.00    +0.002 C 
ATOM     15  C   UNL     1      28.078 -24.015 -15.789  0.00  0.00    +0.000 C 
ENDBRANCH   4  10
BRANCH   5  16
ATOM     16  C   UNL     1      34.301 -22.482 -18.173  0.00  0.00    +0.084 C 
ATOM     17  C   UNL     1      33.295 -21.495 -18.774  0.00  0.00    +0.020 C 
ATOM     18  C   UNL     1      35.729 -21.940 -18.254  0.00  0.00    +0.020 C 
ATOM     19  C   UNL     1      36.103 -21.551 -19.682  0.00  0.00    +0.002 C 
ATOM     20  C   UNL     1      33.672 -21.109 -20.202  0.00  0.00    +0.002 C 
ATOM     21  C   UNL     1      35.098 -20.571 -20.281  0.00  0.00    +0.000 C 
ENDBRANCH   5  16
BRANCH   7  24
ATOM     22  O   UNL     1      36.057 -25.008 -13.999  0.00  0.00    -0.274 OA
ATOM     23  N   UNL     1      35.877 -23.269 -12.462  0.00  0.00    -0.294 N 
ATOM     24  C   UNL     1      35.588 -23.930 -13.643  0.00  0.00    +0.240 C 
ATOM     25  H   UNL     1      35.435 -22.406 -12.287  0.00  0.00    +0.150 HD
BRANCH  23  26
ATOM     26  C   UNL     1      36.794 -23.784 -11.471  0.00  0.00    +0.200 C 
BRANCH  26  28
ATOM     27  O   UNL     1      35.322 -25.395 -10.456  0.00  0.00    -0.248 OA
ATOM     28  C   UNL     1      36.095 -24.455 -10.317  0.00  0.00    +0.334 C 
BRANCH  28  29
ATOM     29  O   UNL     1      36.403 -23.920  -9.112  0.00  0.00    -0.479 OA
ATOM     30  H   UNL     1      36.549 -24.480  -8.375  0.00  0.00    +0.295 HD
ENDBRANCH  28  29
ENDBRANCH  26  28
ENDBRANCH  23  26
ENDBRANCH   7  24
TORSDOF 6
ENDMDL
MODEL 7
REMARK VINA RESULT:     -10.9      0.962      5.040
REMARK  Name = 91617630
REMARK  6 active torsions:
REMARK  status: ('A' for Active; 'I' for Inactive)
REMARK    1  A    between atoms: N_4  and  C_10
REMARK    2  A    between atoms: N_5  and  C_16
REMARK    3  A    between atoms: C_7  and  C_24
REMARK    4  A    between atoms: N_23  and  C_26
REMARK    5  A    between atoms: C_26  and  C_28
REMARK    6  A    between atoms: C_28  and  O_29
REMARK                            x       y       z     vdW  Elec       q    Type
REMARK                         _______ _______ _______ _____ _____    ______ ____
ROOT
ATOM      1  O   UNL     1      36.636 -23.961 -15.390  0.00  0.00    -0.252 OA
ATOM      2  O   UNL     1      32.790 -24.007 -12.784  0.00  0.00    -0.273 OA
ATOM      3  O   UNL     1      32.540 -22.662 -17.164  0.00  0.00    -0.273 OA
ATOM      4  N   UNL     1      34.728 -24.096 -14.073  0.00  0.00    -0.215 N 
ATOM      5  N   UNL     1      34.599 -23.387 -16.349  0.00  0.00    -0.215 N 
ATOM      6  C   UNL     1      35.411 -23.842 -15.285  0.00  0.00    +0.319 C 
ATOM      7  C   UNL     1      32.546 -23.972 -15.163  0.00  0.00    +0.229 C 
ATOM      8  C   UNL     1      33.344 -24.005 -13.883  0.00  0.00    +0.250 C 
ATOM      9  C   UNL     1      33.207 -23.255 -16.314  0.00  0.00    +0.250 C 
ENDROOT
BRANCH   4  10
ATOM     10  C   UNL     1      35.548 -24.383 -12.921  0.00  0.00    +0.084 C 
ATOM     11  C   UNL     1      36.392 -23.162 -12.547  0.00  0.00    +0.020 C 
ATOM     12  C   UNL     1      36.425 -25.611 -13.172  0.00  0.00    +0.020 C 
ATOM     13  C   UNL     1      37.341 -25.900 -11.984  0.00  0.00    +0.002 C 
ATOM     14  C   UNL     1      37.309 -23.454 -11.361  0.00  0.00    +0.002 C 
ATOM     15  C   UNL     1      38.180 -24.682 -11.612  0.00  0.00    +0.000 C 
ENDBRANCH   4  10
BRANCH   5  16
ATOM     16  C   UNL     1      35.289 -22.944 -17.537  0.00  0.00    +0.084 C 
ATOM     17  C   UNL     1      34.289 -22.521 -18.618  0.00  0.00    +0.020 C 
ATOM     18  C   UNL     1      36.259 -21.810 -17.202  0.00  0.00    +0.020 C 
ATOM     19  C   UNL     1      36.964 -21.285 -18.450  0.00  0.00    +0.002 C 
ATOM     20  C   UNL     1      34.998 -21.997 -19.864  0.00  0.00    +0.002 C 
ATOM     21  C   UNL     1      35.967 -20.868 -19.528  0.00  0.00    +0.000 C 
ENDBRANCH   5  16
BRANCH   7  24
ATOM     22  O   UNL     1      30.911 -22.457 -14.303  0.00  0.00    -0.274 OA
ATOM     23  N   UNL     1      30.198 -24.335 -15.479  0.00  0.00    -0.294 N 
ATOM     24  C   UNL     1      31.144 -23.487 -14.931  0.00  0.00    +0.240 C 
ATOM     25  H   UNL     1      30.509 -25.135 -15.962  0.00  0.00    +0.150 HD
BRANCH  23  26
ATOM     26  C   UNL     1      28.775 -24.107 -15.375  0.00  0.00    +0.200 C 
BRANCH  26  28
ATOM     27  O   UNL     1      27.476 -23.866 -17.387  0.00  0.00    -0.248 OA
ATOM     28  C   UNL     1      28.214 -23.354 -16.554  0.00  0.00    +0.334 C 
BRANCH  28  29
ATOM     29  O   UNL     1      28.604 -22.059 -16.605  0.00  0.00    -0.479 OA
ATOM     30  H   UNL     1      29.492 -21.829 -16.413  0.00  0.00    +0.295 HD
ENDBRANCH  28  29
ENDBRANCH  26  28
ENDBRANCH  23  26
ENDBRANCH   7  24
TORSDOF 6
ENDMDL
MODEL 8
REMARK VINA RESULT:     -10.4      1.247      1.714
REMARK  Name = 91617630
REMARK  6 active torsions:
REMARK  status: ('A' for Active; 'I' for Inactive)
REMARK    1  A    between atoms: N_4  and  C_10
REMARK    2  A    between atoms: N_5  and  C_16
REMARK    3  A    between atoms: C_7  and  C_24
REMARK    4  A    between atoms: N_23  and  C_26
REMARK    5  A    between atoms: C_26  and  C_28
REMARK    6  A    between atoms: C_28  and  O_29
REMARK                            x       y       z     vdW  Elec       q    Type
REMARK                         _______ _______ _______ _____ _____    ______ ____
ROOT
ATOM      1  O   UNL     1      36.861 -22.713 -16.495  0.00  0.00    -0.252 OA
ATOM      2  O   UNL     1      32.260 -23.159 -16.974  0.00  0.00    -0.273 OA
ATOM      3  O   UNL     1      34.265 -24.463 -13.058  0.00  0.00    -0.273 OA
ATOM      4  N   UNL     1      34.555 -22.823 -16.748  0.00  0.00    -0.215 N 
ATOM      5  N   UNL     1      35.599 -23.511 -14.715  0.00  0.00    -0.215 N 
ATOM      6  C   UNL     1      35.753 -22.978 -16.015  0.00  0.00    +0.319 C 
ATOM      7  C   UNL     1      33.178 -23.189 -14.765  0.00  0.00    +0.229 C 
ATOM      8  C   UNL     1      33.266 -23.080 -16.267  0.00  0.00    +0.250 C 
ATOM      9  C   UNL     1      34.380 -23.807 -14.094  0.00  0.00    +0.250 C 
ENDROOT
BRANCH   4  10
ATOM     10  C   UNL     1      34.694 -22.457 -18.138  0.00  0.00    +0.084 C 
ATOM     11  C   UNL     1      36.013 -21.717 -18.368  0.00  0.00    +0.020 C 
ATOM     12  C   UNL     1      33.497 -21.622 -18.599  0.00  0.00    +0.020 C 
ATOM     13  C   UNL     1      33.650 -21.177 -20.053  0.00  0.00    +0.002 C 
ATOM     14  C   UNL     1      36.162 -21.270 -19.821  0.00  0.00    +0.002 C 
ATOM     15  C   UNL     1      34.966 -20.441 -20.280  0.00  0.00    +0.000 C 
ENDBRANCH   4  10
BRANCH   5  16
ATOM     16  C   UNL     1      36.813 -23.852 -14.013  0.00  0.00    +0.084 C 
ATOM     17  C   UNL     1      36.742 -23.395 -12.553  0.00  0.00    +0.020 C 
ATOM     18  C   UNL     1      37.086 -25.354 -14.114  0.00  0.00    +0.020 C 
ATOM     19  C   UNL     1      38.337 -25.753 -13.335  0.00  0.00    +0.002 C 
ATOM     20  C   UNL     1      37.994 -23.795 -11.778  0.00  0.00    +0.002 C 
ATOM     21  C   UNL     1      38.266 -25.293 -11.882  0.00  0.00    +0.000 C 
ENDBRANCH   5  16
BRANCH   7  24
ATOM     22  O   UNL     1      31.872 -24.983 -13.878  0.00  0.00    -0.274 OA
ATOM     23  N   UNL     1      30.800 -23.019 -14.520  0.00  0.00    -0.294 N 
ATOM     24  C   UNL     1      31.897 -23.840 -14.330  0.00  0.00    +0.240 C 
ATOM     25  H   UNL     1      30.947 -22.118 -14.891  0.00  0.00    +0.150 HD
BRANCH  23  26
ATOM     26  C   UNL     1      29.448 -23.418 -14.202  0.00  0.00    +0.200 C 
BRANCH  26  28
ATOM     27  O   UNL     1      28.695 -24.627 -16.143  0.00  0.00    -0.248 OA
ATOM     28  C   UNL     1      29.005 -24.644 -14.958  0.00  0.00    +0.334 C 
BRANCH  28  29
ATOM     29  O   UNL     1      28.981 -25.767 -14.201  0.00  0.00    -0.479 OA
ATOM     30  H   UNL     1      28.864 -26.603 -14.609  0.00  0.00    +0.295 HD
ENDBRANCH  28  29
ENDBRANCH  26  28
ENDBRANCH  23  26
ENDBRANCH   7  24
TORSDOF 6
ENDMDL
MODEL 9
REMARK VINA RESULT:      -9.7      1.153      5.310
REMARK  Name = 91617630
REMARK  6 active torsions:
REMARK  status: ('A' for Active; 'I' for Inactive)
REMARK    1  A    between atoms: N_4  and  C_10
REMARK    2  A    between atoms: N_5  and  C_16
REMARK    3  A    between atoms: C_7  and  C_24
REMARK    4  A    between atoms: N_23  and  C_26
REMARK    5  A    between atoms: C_26  and  C_28
REMARK    6  A    between atoms: C_28  and  O_29
REMARK                            x       y       z     vdW  Elec       q    Type
REMARK                         _______ _______ _______ _____ _____    ______ ____
ROOT
ATOM      1  O   UNL     1      36.629 -22.521 -16.940  0.00  0.00    -0.252 OA
ATOM      2  O   UNL     1      33.594 -24.607 -14.106  0.00  0.00    -0.273 OA
ATOM      3  O   UNL     1      32.052 -22.173 -17.676  0.00  0.00    -0.273 OA
ATOM      4  N   UNL     1      35.159 -23.664 -15.552  0.00  0.00    -0.215 N 
ATOM      5  N   UNL     1      34.356 -22.389 -17.403  0.00  0.00    -0.215 N 
ATOM      6  C   UNL     1      35.470 -22.849 -16.664  0.00  0.00    +0.319 C 
ATOM      7  C   UNL     1      32.845 -23.944 -16.278  0.00  0.00    +0.229 C 
ATOM      8  C   UNL     1      33.878 -24.094 -15.189  0.00  0.00    +0.250 C 
ATOM      9  C   UNL     1      33.021 -22.739 -17.169  0.00  0.00    +0.250 C 
ENDROOT
BRANCH   4  10
ATOM     10  C   UNL     1      36.254 -23.996 -14.672  0.00  0.00    +0.084 C 
ATOM     11  C   UNL     1      36.443 -25.514 -14.603  0.00  0.00    +0.020 C 
ATOM     12  C   UNL     1      36.032 -23.398 -13.281  0.00  0.00    +0.020 C 
ATOM     13  C   UNL     1      37.153 -23.784 -12.318  0.00  0.00    +0.002 C 
ATOM     14  C   UNL     1      37.562 -25.897 -13.637  0.00  0.00    +0.002 C 
ATOM     15  C   UNL     1      37.341 -25.296 -12.252  0.00  0.00    +0.000 C 
ENDBRANCH   4  10
BRANCH   5  16
ATOM     16  C   UNL     1      34.627 -21.410 -18.428  0.00  0.00    +0.084 C 
ATOM     17  C   UNL     1      35.870 -21.799 -19.234  0.00  0.00    +0.020 C 
ATOM     18  C   UNL     1      33.408 -21.233 -19.336  0.00  0.00    +0.020 C 
ATOM     19  C   UNL     1      33.684 -20.242 -20.463  0.00  0.00    +0.002 C 
ATOM     20  C   UNL     1      36.143 -20.806 -20.360  0.00  0.00    +0.002 C 
ATOM     21  C   UNL     1      34.925 -20.629 -21.262  0.00  0.00    +0.000 C 
ENDBRANCH   5  16
BRANCH   7  24
ATOM     22  O   UNL     1      30.787 -25.071 -15.825  0.00  0.00    -0.274 OA
ATOM     23  N   UNL     1      31.023 -22.850 -15.168  0.00  0.00    -0.294 N 
ATOM     24  C   UNL     1      31.447 -24.039 -15.736  0.00  0.00    +0.240 C 
ATOM     25  H   UNL     1      31.646 -22.087 -15.156  0.00  0.00    +0.150 HD
BRANCH  23  26
ATOM     26  C   UNL     1      29.709 -22.671 -14.596  0.00  0.00    +0.200 C 
BRANCH  26  28
ATOM     27  O   UNL     1      28.657 -21.988 -16.650  0.00  0.00    -0.248 OA
ATOM     28  C   UNL     1      28.613 -22.665 -15.630  0.00  0.00    +0.334 C 
BRANCH  28  29
ATOM     29  O   UNL     1      27.575 -23.479 -15.325  0.00  0.00    -0.479 OA
ATOM     30  H   UNL     1      26.697 -23.204 -15.504  0.00  0.00    +0.295 HD
ENDBRANCH  28  29
ENDBRANCH  26  28
ENDBRANCH  23  26
ENDBRANCH   7  24
TORSDOF 6
ENDMDL
