MODEL 1
REMARK VINA RESULT:     -11.2      0.000      0.000
REMARK  Name = 25114442
REMARK  7 active torsions:
REMARK  status: ('A' for Active; 'I' for Inactive)
REMARK    1  A    between atoms: C_3  and  C_15
REMARK    2  A    between atoms: C_3  and  C_18
REMARK    3  A    between atoms: C_6  and  C_8
REMARK    4  A    between atoms: C_15  and  O_16
REMARK    5  A    between atoms: C_18  and  O_19
REMARK    6  A    between atoms: O_19  and  C_20
REMARK    7  A    between atoms: C_28  and  O_30
REMARK                            x       y       z     vdW  Elec       q    Type
REMARK                         _______ _______ _______ _____ _____    ______ ____
ROOT
ATOM      1  O   UNL     1      32.004 -23.148 -12.269  0.00  0.00    -0.270 OA
ATOM      2  N   UNL     1      33.430 -23.995 -13.865  0.00  0.00    -0.275 N 
ATOM      3  C   UNL     1      35.286 -24.003 -14.725  0.00  0.00    +0.166 C 
ATOM      4  C   UNL     1      33.912 -24.564 -15.110  0.00  0.00    +0.110 C 
ATOM      5  C   UNL     1      34.753 -23.804 -13.302  0.00  0.00    +0.110 C 
ATOM      6  C   UNL     1      32.201 -23.624 -13.384  0.00  0.00    +0.249 C 
ENDROOT
BRANCH   6   8
ATOM      7  F   UNL     1      27.820 -24.265 -16.819  0.00  0.00    -0.204 F 
ATOM      8  C   UNL     1      31.049 -23.794 -14.289  0.00  0.00    +0.054 C 
ATOM      9  C   UNL     1      30.238 -24.923 -14.182  0.00  0.00    +0.007 C 
ATOM     10  C   UNL     1      30.768 -22.822 -15.250  0.00  0.00    +0.007 C 
ATOM     11  C   UNL     1      29.147 -25.083 -15.036  0.00  0.00    +0.030 C 
ATOM     12  C   UNL     1      29.677 -22.982 -16.105  0.00  0.00    +0.030 C 
ATOM     13  C   UNL     1      28.867 -24.112 -15.998  0.00  0.00    +0.140 C 
ENDBRANCH   6   8
BRANCH   3  15
ATOM     14  O   UNL     1      36.427 -26.193 -14.935  0.00  0.00    -0.250 OA
ATOM     15  C   UNL     1      36.489 -24.967 -14.882  0.00  0.00    +0.320 C 
BRANCH  15  16
ATOM     16  O   UNL     1      37.677 -24.305 -14.960  0.00  0.00    -0.480 OA
ATOM     17  H   UNL     1      37.988 -23.998 -15.788  0.00  0.00    +0.295 HD
ENDBRANCH  15  16
ENDBRANCH   3  15
BRANCH   3  18
ATOM     18  C   UNL     1      35.565 -22.679 -15.410  0.00  0.00    +0.219 C 
BRANCH  18  19
ATOM     19  O   UNL     1      36.172 -22.940 -16.675  0.00  0.00    -0.475 OA
BRANCH  19  20
ATOM     20  C   UNL     1      35.690 -22.250 -17.746  0.00  0.00    +0.139 C 
ATOM     21  C   UNL     1      36.545 -21.436 -18.490  0.00  0.00    +0.037 C 
ATOM     22  C   UNL     1      34.348 -22.357 -18.097  0.00  0.00    +0.037 C 
ATOM     23  C   UNL     1      36.064 -20.717 -19.597  0.00  0.00    +0.003 C 
ATOM     24  C   UNL     1      34.699 -20.826 -19.954  0.00  0.00    +0.003 C 
ATOM     25  C   UNL     1      33.854 -21.650 -19.194  0.00  0.00    +0.003 C 
ATOM     26  C   UNL     1      36.910 -19.893 -20.358  0.00  0.00    +0.003 C 
ATOM     27  C   UNL     1      34.220 -20.107 -21.061  0.00  0.00    +0.037 C 
ATOM     28  C   UNL     1      35.074 -19.293 -21.806  0.00  0.00    +0.139 C 
ATOM     29  C   UNL     1      36.416 -19.185 -21.455  0.00  0.00    +0.037 C 
BRANCH  28  30
ATOM     30  O   UNL     1      34.592 -18.601 -22.875  0.00  0.00    -0.471 OA
ATOM     31  C   UNL     1      35.290 -17.413 -23.246  0.00  0.00    +0.252 C 
ENDBRANCH  28  30
ENDBRANCH  19  20
ENDBRANCH  18  19
ENDBRANCH   3  18
TORSDOF 7
ENDMDL
MODEL 2
REMARK VINA RESULT:     -11.1      4.278      9.456
REMARK  Name = 25114442
REMARK  7 active torsions:
REMARK  status: ('A' for Active; 'I' for Inactive)
REMARK    1  A    between atoms: C_3  and  C_15
REMARK    2  A    between atoms: C_3  and  C_18
REMARK    3  A    between atoms: C_6  and  C_8
REMARK    4  A    between atoms: C_15  and  O_16
REMARK    5  A    between atoms: C_18  and  O_19
REMARK    6  A    between atoms: O_19  and  C_20
REMARK    7  A    between atoms: C_28  and  O_30
REMARK                            x       y       z     vdW  Elec       q    Type
REMARK                         _______ _______ _______ _____ _____    ______ ____
ROOT
ATOM      1  O   UNL     1      33.837 -15.420 -24.189  0.00  0.00    -0.270 OA
ATOM      2  N   UNL     1      34.949 -16.350 -22.400  0.00  0.00    -0.275 N 
ATOM      3  C   UNL     1      35.793 -17.998 -21.531  0.00  0.00    +0.166 C 
ATOM      4  C   UNL     1      35.392 -16.601 -21.042  0.00  0.00    +0.110 C 
ATOM      5  C   UNL     1      35.657 -17.481 -22.968  0.00  0.00    +0.110 C 
ATOM      6  C   UNL     1      34.077 -15.468 -22.985  0.00  0.00    +0.249 C 
ENDROOT
BRANCH   6   8
ATOM      7  F   UNL     1      31.381 -11.922 -19.585  0.00  0.00    -0.204 F 
ATOM      8  C   UNL     1      33.369 -14.534 -22.090  0.00  0.00    +0.054 C 
ATOM      9  C   UNL     1      33.029 -13.259 -22.540  0.00  0.00    +0.007 C 
ATOM     10  C   UNL     1      33.036 -14.928 -20.794  0.00  0.00    +0.007 C 
ATOM     11  C   UNL     1      32.358 -12.376 -21.694  0.00  0.00    +0.030 C 
ATOM     12  C   UNL     1      32.365 -14.045 -19.947  0.00  0.00    +0.030 C 
ATOM     13  C   UNL     1      32.026 -12.769 -20.397  0.00  0.00    +0.140 C 
ENDBRANCH   6   8
BRANCH   3  15
ATOM     14  O   UNL     1      37.585 -18.663 -19.954  0.00  0.00    -0.250 OA
ATOM     15  C   UNL     1      37.198 -18.496 -21.108  0.00  0.00    +0.320 C 
BRANCH  15  16
ATOM     16  O   UNL     1      38.003 -18.745 -22.178  0.00  0.00    -0.480 OA
ATOM     17  H   UNL     1      38.195 -19.628 -22.425  0.00  0.00    +0.295 HD
ENDBRANCH  15  16
ENDBRANCH   3  15
BRANCH   3  18
ATOM     18  C   UNL     1      34.735 -19.034 -21.206  0.00  0.00    +0.219 C 
BRANCH  18  19
ATOM     19  O   UNL     1      35.374 -20.298 -21.030  0.00  0.00    -0.475 OA
BRANCH  19  20
ATOM     20  C   UNL     1      35.051 -21.005 -19.912  0.00  0.00    +0.139 C 
ATOM     21  C   UNL     1      36.037 -21.315 -18.976  0.00  0.00    +0.037 C 
ATOM     22  C   UNL     1      33.738 -21.418 -19.705  0.00  0.00    +0.037 C 
ATOM     23  C   UNL     1      35.721 -22.044 -17.817  0.00  0.00    +0.003 C 
ATOM     24  C   UNL     1      34.386 -22.464 -17.606  0.00  0.00    +0.003 C 
ATOM     25  C   UNL     1      33.406 -22.142 -18.559  0.00  0.00    +0.003 C 
ATOM     26  C   UNL     1      36.702 -22.365 -16.864  0.00  0.00    +0.003 C 
ATOM     27  C   UNL     1      34.071 -23.192 -16.447  0.00  0.00    +0.037 C 
ATOM     28  C   UNL     1      35.057 -23.503 -15.511  0.00  0.00    +0.139 C 
ATOM     29  C   UNL     1      36.370 -23.091 -15.719  0.00  0.00    +0.037 C 
BRANCH  28  30
ATOM     30  O   UNL     1      34.735 -24.212 -14.394  0.00  0.00    -0.471 OA
ATOM     31  C   UNL     1      35.813 -24.780 -13.653  0.00  0.00    +0.252 C 
ENDBRANCH  28  30
ENDBRANCH  19  20
ENDBRANCH  18  19
ENDBRANCH   3  18
TORSDOF 7
ENDMDL
MODEL 3
REMARK VINA RESULT:     -10.1      1.433      2.465
REMARK  Name = 25114442
REMARK  7 active torsions:
REMARK  status: ('A' for Active; 'I' for Inactive)
REMARK    1  A    between atoms: C_3  and  C_15
REMARK    2  A    between atoms: C_3  and  C_18
REMARK    3  A    between atoms: C_6  and  C_8
REMARK    4  A    between atoms: C_15  and  O_16
REMARK    5  A    between atoms: C_18  and  O_19
REMARK    6  A    between atoms: O_19  and  C_20
REMARK    7  A    between atoms: C_28  and  O_30
REMARK                            x       y       z     vdW  Elec       q    Type
REMARK                         _______ _______ _______ _____ _____    ______ ____
ROOT
ATOM      1  O   UNL     1      34.293 -23.760 -11.600  0.00  0.00    -0.270 OA
ATOM      2  N   UNL     1      35.366 -24.859 -13.314  0.00  0.00    -0.275 N 
ATOM      3  C   UNL     1      37.080 -25.179 -14.383  0.00  0.00    +0.166 C 
ATOM      4  C   UNL     1      35.600 -25.525 -14.581  0.00  0.00    +0.110 C 
ATOM      5  C   UNL     1      36.761 -24.866 -12.917  0.00  0.00    +0.110 C 
ATOM      6  C   UNL     1      34.277 -24.287 -12.709  0.00  0.00    +0.249 C 
ENDROOT
BRANCH   6   8
ATOM      7  F   UNL     1      29.469 -24.313 -15.588  0.00  0.00    -0.204 F 
ATOM      8  C   UNL     1      33.011 -24.293 -13.466  0.00  0.00    +0.054 C 
ATOM      9  C   UNL     1      32.772 -23.316 -14.432  0.00  0.00    +0.007 C 
ATOM     10  C   UNL     1      32.054 -25.277 -13.217  0.00  0.00    +0.007 C 
ATOM     11  C   UNL     1      31.575 -23.322 -15.149  0.00  0.00    +0.030 C 
ATOM     12  C   UNL     1      30.857 -25.283 -13.934  0.00  0.00    +0.030 C 
ATOM     13  C   UNL     1      30.618 -24.307 -14.900  0.00  0.00    +0.140 C 
ENDBRANCH   6   8
BRANCH   3  15
ATOM     14  O   UNL     1      37.941 -27.503 -14.321  0.00  0.00    -0.250 OA
ATOM     15  C   UNL     1      38.093 -26.325 -14.638  0.00  0.00    +0.320 C 
BRANCH  15  16
ATOM     16  O   UNL     1      39.216 -25.892 -15.275  0.00  0.00    -0.480 OA
ATOM     17  H   UNL     1      40.040 -25.904 -14.831  0.00  0.00    +0.295 HD
ENDBRANCH  15  16
ENDBRANCH   3  15
BRANCH   3  18
ATOM     18  C   UNL     1      37.476 -23.933 -15.150  0.00  0.00    +0.219 C 
BRANCH  18  19
ATOM     19  O   UNL     1      36.316 -23.122 -15.332  0.00  0.00    -0.475 OA
BRANCH  19  20
ATOM     20  C   UNL     1      36.183 -22.491 -16.530  0.00  0.00    +0.139 C 
ATOM     21  C   UNL     1      34.926 -22.390 -17.128  0.00  0.00    +0.037 C 
ATOM     22  C   UNL     1      37.299 -21.948 -17.159  0.00  0.00    +0.037 C 
ATOM     23  C   UNL     1      34.771 -21.743 -18.365  0.00  0.00    +0.003 C 
ATOM     24  C   UNL     1      35.906 -21.190 -19.004  0.00  0.00    +0.003 C 
ATOM     25  C   UNL     1      37.164 -21.301 -18.388  0.00  0.00    +0.003 C 
ATOM     26  C   UNL     1      33.513 -21.632 -18.981  0.00  0.00    +0.003 C 
ATOM     27  C   UNL     1      35.751 -20.543 -20.241  0.00  0.00    +0.037 C 
ATOM     28  C   UNL     1      34.495 -20.442 -20.838  0.00  0.00    +0.139 C 
ATOM     29  C   UNL     1      33.378 -20.985 -20.211  0.00  0.00    +0.037 C 
BRANCH  28  30
ATOM     30  O   UNL     1      34.362 -19.813 -22.039  0.00  0.00    -0.471 OA
ATOM     31  C   UNL     1      35.304 -18.786 -22.341  0.00  0.00    +0.252 C 
ENDBRANCH  28  30
ENDBRANCH  19  20
ENDBRANCH  18  19
ENDBRANCH   3  18
TORSDOF 7
ENDMDL
MODEL 4
REMARK VINA RESULT:      -9.9      5.216      9.517
REMARK  Name = 25114442
REMARK  7 active torsions:
REMARK  status: ('A' for Active; 'I' for Inactive)
REMARK    1  A    between atoms: C_3  and  C_15
REMARK    2  A    between atoms: C_3  and  C_18
REMARK    3  A    between atoms: C_6  and  C_8
REMARK    4  A    between atoms: C_15  and  O_16
REMARK    5  A    between atoms: C_18  and  O_19
REMARK    6  A    between atoms: O_19  and  C_20
REMARK    7  A    between atoms: C_28  and  O_30
REMARK                            x       y       z     vdW  Elec       q    Type
REMARK                         _______ _______ _______ _____ _____    ______ ____
ROOT
ATOM      1  O   UNL     1      37.570 -19.624 -20.054  0.00  0.00    -0.270 OA
ATOM      2  N   UNL     1      35.982 -18.982 -21.591  0.00  0.00    -0.275 N 
ATOM      3  C   UNL     1      35.220 -17.533 -22.817  0.00  0.00    +0.166 C 
ATOM      4  C   UNL     1      34.720 -18.887 -22.299  0.00  0.00    +0.110 C 
ATOM      5  C   UNL     1      36.626 -17.930 -22.354  0.00  0.00    +0.110 C 
ATOM      6  C   UNL     1      36.431 -19.689 -20.506  0.00  0.00    +0.249 C 
ENDROOT
BRANCH   6   8
ATOM      7  F   UNL     1      32.731 -23.026 -17.939  0.00  0.00    -0.204 F 
ATOM      8  C   UNL     1      35.457 -20.569 -19.831  0.00  0.00    +0.054 C 
ATOM      9  C   UNL     1      35.900 -21.547 -18.941  0.00  0.00    +0.007 C 
ATOM     10  C   UNL     1      34.093 -20.420 -20.081  0.00  0.00    +0.007 C 
ATOM     11  C   UNL     1      34.980 -22.377 -18.302  0.00  0.00    +0.030 C 
ATOM     12  C   UNL     1      33.172 -21.251 -19.442  0.00  0.00    +0.030 C 
ATOM     13  C   UNL     1      33.615 -22.229 -18.552  0.00  0.00    +0.140 C 
ENDBRANCH   6   8
BRANCH   3  15
ATOM     14  O   UNL     1      34.451 -18.001 -25.126  0.00  0.00    -0.250 OA
ATOM     15  C   UNL     1      35.043 -17.271 -24.334  0.00  0.00    +0.320 C 
BRANCH  15  16
ATOM     16  O   UNL     1      35.626 -16.105 -24.730  0.00  0.00    -0.480 OA
ATOM     17  H   UNL     1      35.247 -15.604 -25.424  0.00  0.00    +0.295 HD
ENDBRANCH  15  16
ENDBRANCH   3  15
BRANCH   3  18
ATOM     18  C   UNL     1      34.666 -16.379 -22.004  0.00  0.00    +0.219 C 
BRANCH  18  19
ATOM     19  O   UNL     1      33.799 -15.610 -22.836  0.00  0.00    -0.475 OA
BRANCH  19  20
ATOM     20  C   UNL     1      33.335 -14.436 -22.328  0.00  0.00    +0.139 C 
ATOM     21  C   UNL     1      33.478 -13.256 -23.060  0.00  0.00    +0.037 C 
ATOM     22  C   UNL     1      32.719 -14.411 -21.080  0.00  0.00    +0.037 C 
ATOM     23  C   UNL     1      33.005 -12.036 -22.550  0.00  0.00    +0.003 C 
ATOM     24  C   UNL     1      32.379 -12.010 -21.282  0.00  0.00    +0.003 C 
ATOM     25  C   UNL     1      32.243 -13.208 -20.559  0.00  0.00    +0.003 C 
ATOM     26  C   UNL     1      33.141 -10.839 -23.274  0.00  0.00    +0.003 C 
ATOM     27  C   UNL     1      31.906 -10.790 -20.773  0.00  0.00    +0.037 C 
ATOM     28  C   UNL     1      32.049  -9.611 -21.504  0.00  0.00    +0.139 C 
ATOM     29  C   UNL     1      32.666  -9.634 -22.752  0.00  0.00    +0.037 C 
BRANCH  28  30
ATOM     30  O   UNL     1      31.588  -8.435 -20.996  0.00  0.00    -0.471 OA
ATOM     31  C   UNL     1      32.336  -7.852 -19.931  0.00  0.00    +0.252 C 
ENDBRANCH  28  30
ENDBRANCH  19  20
ENDBRANCH  18  19
ENDBRANCH   3  18
TORSDOF 7
ENDMDL
MODEL 5
REMARK VINA RESULT:      -9.4      9.458     14.700
REMARK  Name = 25114442
REMARK  7 active torsions:
REMARK  status: ('A' for Active; 'I' for Inactive)
REMARK    1  A    between atoms: C_3  and  C_15
REMARK    2  A    between atoms: C_3  and  C_18
REMARK    3  A    between atoms: C_6  and  C_8
REMARK    4  A    between atoms: C_15  and  O_16
REMARK    5  A    between atoms: C_18  and  O_19
REMARK    6  A    between atoms: O_19  and  C_20
REMARK    7  A    between atoms: C_28  and  O_30
REMARK                            x       y       z     vdW  Elec       q    Type
REMARK                         _______ _______ _______ _____ _____    ______ ____
ROOT
ATOM      1  O   UNL     1      33.467  -6.375 -20.080  0.00  0.00    -0.270 OA
ATOM      2  N   UNL     1      32.234  -8.092 -20.990  0.00  0.00    -0.275 N 
ATOM      3  C   UNL     1      31.807 -10.091 -21.062  0.00  0.00    +0.166 C 
ATOM      4  C   UNL     1      31.478  -8.881 -21.945  0.00  0.00    +0.110 C 
ATOM      5  C   UNL     1      32.226  -9.113 -19.959  0.00  0.00    +0.110 C 
ATOM      6  C   UNL     1      32.867  -6.877 -21.026  0.00  0.00    +0.249 C 
ENDROOT
BRANCH   6   8
ATOM      7  F   UNL     1      32.751  -4.088 -25.886  0.00  0.00    -0.204 F 
ATOM      8  C   UNL     1      32.835  -6.144 -22.306  0.00  0.00    +0.054 C 
ATOM      9  C   UNL     1      31.893  -5.135 -22.509  0.00  0.00    +0.007 C 
ATOM     10  C   UNL     1      33.749  -6.457 -23.312  0.00  0.00    +0.007 C 
ATOM     11  C   UNL     1      31.865  -4.441 -23.718  0.00  0.00    +0.030 C 
ATOM     12  C   UNL     1      33.720  -5.763 -24.522  0.00  0.00    +0.030 C 
ATOM     13  C   UNL     1      32.778  -4.755 -24.725  0.00  0.00    +0.140 C 
ENDBRANCH   6   8
BRANCH   3  15
ATOM     14  O   UNL     1      30.316 -11.438 -19.611  0.00  0.00    -0.250 OA
ATOM     15  C   UNL     1      30.626 -11.040 -20.731  0.00  0.00    +0.320 C 
BRANCH  15  16
ATOM     16  O   UNL     1      29.931 -11.408 -21.842  0.00  0.00    -0.480 OA
ATOM     17  H   UNL     1      29.241 -12.038 -21.776  0.00  0.00    +0.295 HD
ENDBRANCH  15  16
ENDBRANCH   3  15
BRANCH   3  18
ATOM     18  C   UNL     1      32.991 -10.874 -21.597  0.00  0.00    +0.219 C 
BRANCH  18  19
ATOM     19  O   UNL     1      32.503 -12.018 -22.295  0.00  0.00    -0.475 OA
BRANCH  19  20
ATOM     20  C   UNL     1      33.095 -13.212 -22.018  0.00  0.00    +0.139 C 
ATOM     21  C   UNL     1      33.533 -14.030 -23.059  0.00  0.00    +0.037 C 
ATOM     22  C   UNL     1      33.261 -13.616 -20.696  0.00  0.00    +0.037 C 
ATOM     23  C   UNL     1      34.146 -15.265 -22.790  0.00  0.00    +0.003 C 
ATOM     24  C   UNL     1      34.316 -15.677 -21.446  0.00  0.00    +0.003 C 
ATOM     25  C   UNL     1      33.868 -14.840 -20.411  0.00  0.00    +0.003 C 
ATOM     26  C   UNL     1      34.595 -16.101 -23.826  0.00  0.00    +0.003 C 
ATOM     27  C   UNL     1      34.928 -16.911 -21.178  0.00  0.00    +0.037 C 
ATOM     28  C   UNL     1      35.368 -17.729 -22.219  0.00  0.00    +0.139 C 
ATOM     29  C   UNL     1      35.201 -17.326 -23.541  0.00  0.00    +0.037 C 
BRANCH  28  30
ATOM     30  O   UNL     1      35.957 -18.924 -21.942  0.00  0.00    -0.471 OA
ATOM     31  C   UNL     1      35.315 -19.756 -20.976  0.00  0.00    +0.252 C 
ENDBRANCH  28  30
ENDBRANCH  19  20
ENDBRANCH  18  19
ENDBRANCH   3  18
TORSDOF 7
ENDMDL
MODEL 6
REMARK VINA RESULT:      -8.9      4.889      8.808
REMARK  Name = 25114442
REMARK  7 active torsions:
REMARK  status: ('A' for Active; 'I' for Inactive)
REMARK    1  A    between atoms: C_3  and  C_15
REMARK    2  A    between atoms: C_3  and  C_18
REMARK    3  A    between atoms: C_6  and  C_8
REMARK    4  A    between atoms: C_15  and  O_16
REMARK    5  A    between atoms: C_18  and  O_19
REMARK    6  A    between atoms: O_19  and  C_20
REMARK    7  A    between atoms: C_28  and  O_30
REMARK                            x       y       z     vdW  Elec       q    Type
REMARK                         _______ _______ _______ _____ _____    ______ ____
ROOT
ATOM      1  O   UNL     1      37.508 -20.570 -19.479  0.00  0.00    -0.270 OA
ATOM      2  N   UNL     1      35.972 -19.573 -20.873  0.00  0.00    -0.275 N 
ATOM      3  C   UNL     1      35.404 -17.939 -21.965  0.00  0.00    +0.166 C 
ATOM      4  C   UNL     1      34.708 -19.221 -21.492  0.00  0.00    +0.110 C 
ATOM      5  C   UNL     1      36.745 -18.595 -21.616  0.00  0.00    +0.110 C 
ATOM      6  C   UNL     1      36.351 -20.414 -19.860  0.00  0.00    +0.249 C 
ENDROOT
BRANCH   6   8
ATOM      7  F   UNL     1      32.281 -23.252 -17.254  0.00  0.00    -0.204 F 
ATOM      8  C   UNL     1      35.279 -21.160 -19.173  0.00  0.00    +0.054 C 
ATOM      9  C   UNL     1      33.958 -21.039 -19.604  0.00  0.00    +0.007 C 
ATOM     10  C   UNL     1      35.587 -21.989 -18.094  0.00  0.00    +0.007 C 
ATOM     11  C   UNL     1      32.945 -21.745 -18.956  0.00  0.00    +0.030 C 
ATOM     12  C   UNL     1      34.574 -22.695 -17.446  0.00  0.00    +0.030 C 
ATOM     13  C   UNL     1      33.253 -22.574 -17.877  0.00  0.00    +0.140 C 
ENDBRANCH   6   8
BRANCH   3  15
ATOM     14  O   UNL     1      35.578 -16.516 -23.987  0.00  0.00    -0.250 OA
ATOM     15  C   UNL     1      35.192 -17.553 -23.452  0.00  0.00    +0.320 C 
BRANCH  15  16
ATOM     16  O   UNL     1      34.511 -18.508 -24.143  0.00  0.00    -0.480 OA
ATOM     17  H   UNL     1      34.977 -19.126 -24.670  0.00  0.00    +0.295 HD
ENDBRANCH  15  16
ENDBRANCH   3  15
BRANCH   3  18
ATOM     18  C   UNL     1      35.101 -16.765 -21.056  0.00  0.00    +0.219 C 
BRANCH  18  19
ATOM     19  O   UNL     1      33.710 -16.462 -21.151  0.00  0.00    -0.475 OA
BRANCH  19  20
ATOM     20  C   UNL     1      33.373 -15.166 -21.394  0.00  0.00    +0.139 C 
ATOM     21  C   UNL     1      32.805 -14.392 -20.381  0.00  0.00    +0.037 C 
ATOM     22  C   UNL     1      33.594 -14.613 -22.653  0.00  0.00    +0.037 C 
ATOM     23  C   UNL     1      32.452 -13.053 -20.616  0.00  0.00    +0.003 C 
ATOM     24  C   UNL     1      32.677 -12.491 -21.895  0.00  0.00    +0.003 C 
ATOM     25  C   UNL     1      33.249 -13.285 -22.903  0.00  0.00    +0.003 C 
ATOM     26  C   UNL     1      31.881 -12.259 -19.608  0.00  0.00    +0.003 C 
ATOM     27  C   UNL     1      32.323 -11.152 -22.129  0.00  0.00    +0.037 C 
ATOM     28  C   UNL     1      31.756 -10.378 -21.117  0.00  0.00    +0.139 C 
ATOM     29  C   UNL     1      31.534 -10.930 -19.858  0.00  0.00    +0.037 C 
BRANCH  28  30
ATOM     30  O   UNL     1      31.417  -9.083 -21.361  0.00  0.00    -0.471 OA
ATOM     31  C   UNL     1      32.152  -8.078 -20.664  0.00  0.00    +0.252 C 
ENDBRANCH  28  30
ENDBRANCH  19  20
ENDBRANCH  18  19
ENDBRANCH   3  18
TORSDOF 7
ENDMDL
MODEL 7
REMARK VINA RESULT:      -8.9      3.717      7.192
REMARK  Name = 25114442
REMARK  7 active torsions:
REMARK  status: ('A' for Active; 'I' for Inactive)
REMARK    1  A    between atoms: C_3  and  C_15
REMARK    2  A    between atoms: C_3  and  C_18
REMARK    3  A    between atoms: C_6  and  C_8
REMARK    4  A    between atoms: C_15  and  O_16
REMARK    5  A    between atoms: C_18  and  O_19
REMARK    6  A    between atoms: O_19  and  C_20
REMARK    7  A    between atoms: C_28  and  O_30
REMARK                            x       y       z     vdW  Elec       q    Type
REMARK                         _______ _______ _______ _____ _____    ______ ____
ROOT
ATOM      1  O   UNL     1      36.496 -25.891 -15.217  0.00  0.00    -0.270 OA
ATOM      2  N   UNL     1      36.398 -24.493 -13.392  0.00  0.00    -0.275 N 
ATOM      3  C   UNL     1      35.637 -24.091 -11.536  0.00  0.00    +0.166 C 
ATOM      4  C   UNL     1      36.409 -23.285 -12.588  0.00  0.00    +0.110 C 
ATOM      5  C   UNL     1      36.032 -25.365 -12.292  0.00  0.00    +0.110 C 
ATOM      6  C   UNL     1      36.540 -24.766 -14.727  0.00  0.00    +0.249 C 
ENDROOT
BRANCH   6   8
ATOM      7  F   UNL     1      37.285 -20.396 -18.156  0.00  0.00    -0.204 F 
ATOM      8  C   UNL     1      36.736 -23.615 -15.629  0.00  0.00    +0.054 C 
ATOM      9  C   UNL     1      37.970 -22.966 -15.674  0.00  0.00    +0.007 C 
ATOM     10  C   UNL     1      35.687 -23.177 -16.439  0.00  0.00    +0.007 C 
ATOM     11  C   UNL     1      38.155 -21.879 -16.528  0.00  0.00    +0.030 C 
ATOM     12  C   UNL     1      35.873 -22.089 -17.292  0.00  0.00    +0.030 C 
ATOM     13  C   UNL     1      37.107 -21.440 -17.337  0.00  0.00    +0.140 C 
ENDBRANCH   6   8
BRANCH   3  15
ATOM     14  O   UNL     1      37.145 -23.366  -9.707  0.00  0.00    -0.250 OA
ATOM     15  C   UNL     1      36.142 -23.973 -10.075  0.00  0.00    +0.320 C 
BRANCH  15  16
ATOM     16  O   UNL     1      35.337 -24.630  -9.194  0.00  0.00    -0.480 OA
ATOM     17  H   UNL     1      35.405 -24.455  -8.277  0.00  0.00    +0.295 HD
ENDBRANCH  15  16
ENDBRANCH   3  15
BRANCH   3  18
ATOM     18  C   UNL     1      34.145 -23.833 -11.611  0.00  0.00    +0.219 C 
BRANCH  18  19
ATOM     19  O   UNL     1      33.554 -24.820 -12.456  0.00  0.00    -0.475 OA
BRANCH  19  20
ATOM     20  C   UNL     1      32.673 -24.382 -13.397  0.00  0.00    +0.139 C 
ATOM     21  C   UNL     1      31.418 -24.980 -13.507  0.00  0.00    +0.037 C 
ATOM     22  C   UNL     1      33.026 -23.340 -14.250  0.00  0.00    +0.037 C 
ATOM     23  C   UNL     1      30.497 -24.541 -14.472  0.00  0.00    +0.003 C 
ATOM     24  C   UNL     1      30.855 -23.481 -15.339  0.00  0.00    +0.003 C 
ATOM     25  C   UNL     1      32.124 -22.891 -15.215  0.00  0.00    +0.003 C 
ATOM     26  C   UNL     1      29.228 -25.131 -14.596  0.00  0.00    +0.003 C 
ATOM     27  C   UNL     1      29.934 -23.042 -16.304  0.00  0.00    +0.037 C 
ATOM     28  C   UNL     1      28.679 -23.639 -16.414  0.00  0.00    +0.139 C 
ATOM     29  C   UNL     1      28.326 -24.682 -15.562  0.00  0.00    +0.037 C 
BRANCH  28  30
ATOM     30  O   UNL     1      27.799 -23.204 -17.357  0.00  0.00    -0.471 OA
ATOM     31  C   UNL     1      26.943 -22.121 -16.994  0.00  0.00    +0.252 C 
ENDBRANCH  28  30
ENDBRANCH  19  20
ENDBRANCH  18  19
ENDBRANCH   3  18
TORSDOF 7
ENDMDL
MODEL 8
REMARK VINA RESULT:      -8.6      2.950      4.850
REMARK  Name = 25114442
REMARK  7 active torsions:
REMARK  status: ('A' for Active; 'I' for Inactive)
REMARK    1  A    between atoms: C_3  and  C_15
REMARK    2  A    between atoms: C_3  and  C_18
REMARK    3  A    between atoms: C_6  and  C_8
REMARK    4  A    between atoms: C_15  and  O_16
REMARK    5  A    between atoms: C_18  and  O_19
REMARK    6  A    between atoms: O_19  and  C_20
REMARK    7  A    between atoms: C_28  and  O_30
REMARK                            x       y       z     vdW  Elec       q    Type
REMARK                         _______ _______ _______ _____ _____    ______ ____
ROOT
ATOM      1  O   UNL     1      36.311 -26.061 -14.588  0.00  0.00    -0.270 OA
ATOM      2  N   UNL     1      34.543 -24.598 -14.769  0.00  0.00    -0.275 N 
ATOM      3  C   UNL     1      33.296 -23.501 -15.963  0.00  0.00    +0.166 C 
ATOM      4  C   UNL     1      33.612 -23.529 -14.463  0.00  0.00    +0.110 C 
ATOM      5  C   UNL     1      33.994 -24.860 -16.086  0.00  0.00    +0.110 C 
ATOM      6  C   UNL     1      35.643 -25.130 -14.147  0.00  0.00    +0.249 C 
ENDROOT
BRANCH   6   8
ATOM      7  F   UNL     1      37.208 -22.791  -9.300  0.00  0.00    -0.204 F 
ATOM      8  C   UNL     1      36.054 -24.513 -12.871  0.00  0.00    +0.054 C 
ATOM      9  C   UNL     1      35.435 -24.895 -11.681  0.00  0.00    +0.007 C 
ATOM     10  C   UNL     1      37.063 -23.551 -12.855  0.00  0.00    +0.007 C 
ATOM     11  C   UNL     1      35.824 -24.313 -10.475  0.00  0.00    +0.030 C 
ATOM     12  C   UNL     1      37.453 -22.969 -11.648  0.00  0.00    +0.030 C 
ATOM     13  C   UNL     1      36.834 -23.350 -10.458  0.00  0.00    +0.140 C 
ENDBRANCH   6   8
BRANCH   3  15
ATOM     14  O   UNL     1      30.936 -24.257 -15.977  0.00  0.00    -0.250 OA
ATOM     15  C   UNL     1      31.795 -23.461 -16.348  0.00  0.00    +0.320 C 
BRANCH  15  16
ATOM     16  O   UNL     1      31.499 -22.415 -17.169  0.00  0.00    -0.480 OA
ATOM     17  H   UNL     1      30.701 -21.940 -17.053  0.00  0.00    +0.295 HD
ENDBRANCH  15  16
ENDBRANCH   3  15
BRANCH   3  18
ATOM     18  C   UNL     1      34.064 -22.409 -16.681  0.00  0.00    +0.219 C 
BRANCH  18  19
ATOM     19  O   UNL     1      34.235 -22.793 -18.045  0.00  0.00    -0.475 OA
BRANCH  19  20
ATOM     20  C   UNL     1      34.345 -21.792 -18.961  0.00  0.00    +0.139 C 
ATOM     21  C   UNL     1      35.605 -21.310 -19.317  0.00  0.00    +0.037 C 
ATOM     22  C   UNL     1      33.201 -21.249 -19.539  0.00  0.00    +0.037 C 
ATOM     23  C   UNL     1      35.736 -20.277 -20.260  0.00  0.00    +0.003 C 
ATOM     24  C   UNL     1      34.573 -19.725 -20.849  0.00  0.00    +0.003 C 
ATOM     25  C   UNL     1      33.313 -20.222 -20.478  0.00  0.00    +0.003 C 
ATOM     26  C   UNL     1      36.996 -19.780 -20.632  0.00  0.00    +0.003 C 
ATOM     27  C   UNL     1      34.705 -18.693 -21.792  0.00  0.00    +0.037 C 
ATOM     28  C   UNL     1      35.964 -18.211 -22.149  0.00  0.00    +0.139 C 
ATOM     29  C   UNL     1      37.108 -18.753 -21.570  0.00  0.00    +0.037 C 
BRANCH  28  30
ATOM     30  O   UNL     1      36.074 -17.208 -23.063  0.00  0.00    -0.471 OA
ATOM     31  C   UNL     1      34.962 -16.997 -23.931  0.00  0.00    +0.252 C 
ENDBRANCH  28  30
ENDBRANCH  19  20
ENDBRANCH  18  19
ENDBRANCH   3  18
TORSDOF 7
ENDMDL
MODEL 9
REMARK VINA RESULT:      -8.6      3.000      5.445
REMARK  Name = 25114442
REMARK  7 active torsions:
REMARK  status: ('A' for Active; 'I' for Inactive)
REMARK    1  A    between atoms: C_3  and  C_15
REMARK    2  A    between atoms: C_3  and  C_18
REMARK    3  A    between atoms: C_6  and  C_8
REMARK    4  A    between atoms: C_15  and  O_16
REMARK    5  A    between atoms: C_18  and  O_19
REMARK    6  A    between atoms: O_19  and  C_20
REMARK    7  A    between atoms: C_28  and  O_30
REMARK                            x       y       z     vdW  Elec       q    Type
REMARK                         _______ _______ _______ _____ _____    ______ ____
ROOT
ATOM      1  O   UNL     1      35.611 -26.365 -15.074  0.00  0.00    -0.270 OA
ATOM      2  N   UNL     1      34.037 -25.055 -14.023  0.00  0.00    -0.275 N 
ATOM      3  C   UNL     1      32.284 -24.007 -14.127  0.00  0.00    +0.166 C 
ATOM      4  C   UNL     1      33.438 -24.090 -13.121  0.00  0.00    +0.110 C 
ATOM      5  C   UNL     1      32.818 -25.290 -14.773  0.00  0.00    +0.110 C 
ATOM      6  C   UNL     1      35.309 -25.522 -14.234  0.00  0.00    +0.249 C 
ENDROOT
BRANCH   6   8
ATOM      7  F   UNL     1      39.376 -23.329 -11.063  0.00  0.00    -0.204 F 
ATOM      8  C   UNL     1      36.380 -24.945 -13.400  0.00  0.00    +0.054 C 
ATOM      9  C   UNL     1      36.543 -23.561 -13.333  0.00  0.00    +0.007 C 
ATOM     10  C   UNL     1      37.229 -25.783 -12.677  0.00  0.00    +0.007 C 
ATOM     11  C   UNL     1      37.555 -23.015 -12.544  0.00  0.00    +0.030 C 
ATOM     12  C   UNL     1      38.242 -25.236 -11.888  0.00  0.00    +0.030 C 
ATOM     13  C   UNL     1      38.404 -23.853 -11.821  0.00  0.00    +0.140 C 
ENDBRANCH   6   8
BRANCH   3  15
ATOM     14  O   UNL     1      30.547 -24.551 -12.445  0.00  0.00    -0.250 OA
ATOM     15  C   UNL     1      30.852 -24.076 -13.537  0.00  0.00    +0.320 C 
BRANCH  15  16
ATOM     16  O   UNL     1      29.921 -23.539 -14.372  0.00  0.00    -0.480 OA
ATOM     17  H   UNL     1      30.121 -22.767 -14.862  0.00  0.00    +0.295 HD
ENDBRANCH  15  16
ENDBRANCH   3  15
BRANCH   3  18
ATOM     18  C   UNL     1      32.427 -22.813 -15.051  0.00  0.00    +0.219 C 
BRANCH  18  19
ATOM     19  O   UNL     1      32.392 -23.274 -16.401  0.00  0.00    -0.475 OA
BRANCH  19  20
ATOM     20  C   UNL     1      33.244 -22.680 -17.280  0.00  0.00    +0.139 C 
ATOM     21  C   UNL     1      32.740 -21.880 -18.306  0.00  0.00    +0.037 C 
ATOM     22  C   UNL     1      34.617 -22.871 -17.157  0.00  0.00    +0.037 C 
ATOM     23  C   UNL     1      33.605 -21.260 -19.222  0.00  0.00    +0.003 C 
ATOM     24  C   UNL     1      35.002 -21.454 -19.097  0.00  0.00    +0.003 C 
ATOM     25  C   UNL     1      35.492 -22.263 -18.058  0.00  0.00    +0.003 C 
ATOM     26  C   UNL     1      33.115 -20.451 -20.260  0.00  0.00    +0.003 C 
ATOM     27  C   UNL     1      35.866 -20.834 -20.013  0.00  0.00    +0.037 C 
ATOM     28  C   UNL     1      35.362 -20.034 -21.038  0.00  0.00    +0.139 C 
ATOM     29  C   UNL     1      33.989 -19.842 -21.163  0.00  0.00    +0.037 C 
BRANCH  28  30
ATOM     30  O   UNL     1      36.214 -19.441 -21.919  0.00  0.00    -0.471 OA
ATOM     31  C   UNL     1      37.245 -18.620 -21.373  0.00  0.00    +0.252 C 
ENDBRANCH  28  30
ENDBRANCH  19  20
ENDBRANCH  18  19
ENDBRANCH   3  18
TORSDOF 7
ENDMDL
