MODEL 1
REMARK VINA RESULT:     -12.0      0.000      0.000
REMARK  Name = 59473233
REMARK  3 active torsions:
REMARK  status: ('A' for Active; 'I' for Inactive)
REMARK    1  A    between atoms: N_1  and  C_25
REMARK    2  A    between atoms: C_7  and  C_14
REMARK    3  A    between atoms: C_22  and  N_29
REMARK                            x       y       z     vdW  Elec       q    Type
REMARK                         _______ _______ _______ _____ _____    ______ ____
ROOT
ATOM      1  N   UNL     1      36.638 -23.225 -15.762  0.00  0.00    -0.286 N 
ATOM      2  N   UNL     1      35.132 -24.015 -12.474  0.00  0.00    -0.260 N 
ATOM      3  N   UNL     1      34.427 -23.627 -15.123  0.00  0.00    -0.387 NA
ATOM      4  N   UNL     1      37.292 -23.663 -12.904  0.00  0.00    -0.224 NA
ATOM      5  C   UNL     1      35.701 -23.522 -14.799  0.00  0.00    +0.216 C 
ATOM      6  C   UNL     1      36.084 -23.725 -13.416  0.00  0.00    +0.180 C 
ATOM      7  C   UNL     1      33.485 -23.930 -14.140  0.00  0.00    +0.131 C 
ATOM      8  C   UNL     1      33.806 -24.118 -12.840  0.00  0.00    +0.156 C 
ATOM      9  C   UNL     1      35.776 -24.146 -11.276  0.00  0.00    +0.088 C 
ATOM     10  C   UNL     1      37.105 -23.925 -11.567  0.00  0.00    +0.117 C 
ATOM     11  H   UNL     1      37.544 -23.584 -15.621  0.00  0.00    +0.155 HD
ENDROOT
BRANCH   7  14
ATOM     12  N   UNL     1      29.479 -22.581 -16.803  0.00  0.00    -0.236 N 
ATOM     13  N   UNL     1      28.207 -23.005 -16.877  0.00  0.00    -0.180 NA
ATOM     14  C   UNL     1      32.071 -24.022 -14.565  0.00  0.00    +0.028 C 
ATOM     15  C   UNL     1      30.248 -23.268 -15.902  0.00  0.00    +0.067 C 
ATOM     16  C   UNL     1      31.590 -23.138 -15.537  0.00  0.00    +0.018 C 
ATOM     17  C   UNL     1      29.400 -24.220 -15.347  0.00  0.00    +0.035 C 
ATOM     18  C   UNL     1      31.240 -24.986 -13.990  0.00  0.00    +0.002 C 
ATOM     19  C   UNL     1      29.897 -25.100 -14.371  0.00  0.00    +0.003 C 
ATOM     20  C   UNL     1      28.162 -24.001 -15.990  0.00  0.00    +0.119 C 
ATOM     21  H   UNL     1      29.828 -21.839 -17.348  0.00  0.00    +0.174 HD
ENDBRANCH   7  14
BRANCH   1  25
ATOM     22  C   UNL     1      36.037 -20.958 -19.224  0.00  0.00    +0.048 C 
ATOM     23  C   UNL     1      37.185 -20.766 -18.454  0.00  0.00    +0.016 C 
ATOM     24  C   UNL     1      35.090 -21.906 -18.837  0.00  0.00    +0.016 C 
ATOM     25  C   UNL     1      36.437 -22.469 -16.913  0.00  0.00    +0.050 C 
ATOM     26  C   UNL     1      37.385 -21.521 -17.298  0.00  0.00    +0.016 C 
ATOM     27  C   UNL     1      35.289 -22.661 -17.682  0.00  0.00    +0.016 C 
BRANCH  22  29
ATOM     28  O   UNL     1      35.393 -18.458 -22.541  0.00  0.00    -0.350 OA
ATOM     29  N   UNL     1      35.836 -20.200 -20.382  0.00  0.00    -0.303 N 
ATOM     30  C   UNL     1      36.811 -19.147 -20.699  0.00  0.00    +0.123 C 
ATOM     31  C   UNL     1      34.474 -19.959 -20.873  0.00  0.00    +0.123 C 
ATOM     32  C   UNL     1      36.731 -18.801 -22.181  0.00  0.00    +0.164 C 
ATOM     33  C   UNL     1      34.519 -19.568 -22.345  0.00  0.00    +0.164 C 
ENDBRANCH  22  29
ENDBRANCH   1  25
TORSDOF 3
ENDMDL
MODEL 2
REMARK VINA RESULT:     -10.8      6.305     11.688
REMARK  Name = 59473233
REMARK  3 active torsions:
REMARK  status: ('A' for Active; 'I' for Inactive)
REMARK    1  A    between atoms: N_1  and  C_25
REMARK    2  A    between atoms: C_7  and  C_14
REMARK    3  A    between atoms: C_22  and  N_29
REMARK                            x       y       z     vdW  Elec       q    Type
REMARK                         _______ _______ _______ _____ _____    ______ ____
ROOT
ATOM      1  N   UNL     1      35.180 -16.510 -24.071  0.00  0.00    -0.286 N 
ATOM      2  N   UNL     1      33.368 -13.610 -25.488  0.00  0.00    -0.260 N 
ATOM      3  N   UNL     1      33.966 -14.791 -23.056  0.00  0.00    -0.387 NA
ATOM      4  N   UNL     1      34.492 -15.167 -26.622  0.00  0.00    -0.224 NA
ATOM      5  C   UNL     1      34.428 -15.361 -24.152  0.00  0.00    +0.216 C 
ATOM      6  C   UNL     1      34.125 -14.751 -25.432  0.00  0.00    +0.180 C 
ATOM      7  C   UNL     1      33.205 -13.625 -23.150  0.00  0.00    +0.131 C 
ATOM      8  C   UNL     1      32.896 -13.035 -24.326  0.00  0.00    +0.156 C 
ATOM      9  C   UNL     1      33.243 -13.273 -26.806  0.00  0.00    +0.088 C 
ATOM     10  C   UNL     1      33.944 -14.247 -27.485  0.00  0.00    +0.117 C 
ATOM     11  H   UNL     1      35.854 -16.647 -24.776  0.00  0.00    +0.155 HD
ENDROOT
BRANCH   7  14
ATOM     12  N   UNL     1      31.527  -9.927 -20.240  0.00  0.00    -0.236 N 
ATOM     13  N   UNL     1      31.134  -9.836 -18.959  0.00  0.00    -0.180 NA
ATOM     14  C   UNL     1      32.706 -13.042 -21.884  0.00  0.00    +0.028 C 
ATOM     15  C   UNL     1      31.921 -11.182 -20.619  0.00  0.00    +0.067 C 
ATOM     16  C   UNL     1      32.388 -11.681 -21.837  0.00  0.00    +0.018 C 
ATOM     17  C   UNL     1      31.767 -11.972 -19.485  0.00  0.00    +0.035 C 
ATOM     18  C   UNL     1      32.562 -13.857 -20.760  0.00  0.00    +0.002 C 
ATOM     19  C   UNL     1      32.091 -13.338 -19.548  0.00  0.00    +0.003 C 
ATOM     20  C   UNL     1      31.281 -11.082 -18.503  0.00  0.00    +0.119 C 
ATOM     21  H   UNL     1      31.534  -9.156 -20.853  0.00  0.00    +0.174 HD
ENDBRANCH   7  14
BRANCH   1  25
ATOM     22  C   UNL     1      34.907 -19.478 -21.139  0.00  0.00    +0.048 C 
ATOM     23  C   UNL     1      34.695 -19.800 -22.480  0.00  0.00    +0.016 C 
ATOM     24  C   UNL     1      35.210 -18.166 -20.777  0.00  0.00    +0.016 C 
ATOM     25  C   UNL     1      35.088 -17.498 -23.095  0.00  0.00    +0.050 C 
ATOM     26  C   UNL     1      34.785 -18.810 -23.458  0.00  0.00    +0.016 C 
ATOM     27  C   UNL     1      35.300 -17.176 -21.754  0.00  0.00    +0.016 C 
BRANCH  22  29
ATOM     28  O   UNL     1      34.690 -22.653 -18.391  0.00  0.00    -0.350 OA
ATOM     29  N   UNL     1      34.817 -20.472 -20.158  0.00  0.00    -0.303 N 
ATOM     30  C   UNL     1      36.031 -21.227 -19.822  0.00  0.00    +0.123 C 
ATOM     31  C   UNL     1      33.556 -21.199 -19.968  0.00  0.00    +0.123 C 
ATOM     32  C   UNL     1      35.877 -21.863 -18.446  0.00  0.00    +0.164 C 
ATOM     33  C   UNL     1      33.535 -21.838 -18.584  0.00  0.00    +0.164 C 
ENDBRANCH  22  29
ENDBRANCH   1  25
TORSDOF 3
ENDMDL
MODEL 3
REMARK VINA RESULT:     -10.7      1.480      2.045
REMARK  Name = 59473233
REMARK  3 active torsions:
REMARK  status: ('A' for Active; 'I' for Inactive)
REMARK    1  A    between atoms: N_1  and  C_25
REMARK    2  A    between atoms: C_7  and  C_14
REMARK    3  A    between atoms: C_22  and  N_29
REMARK                            x       y       z     vdW  Elec       q    Type
REMARK                         _______ _______ _______ _____ _____    ______ ____
ROOT
ATOM      1  N   UNL     1      36.819 -22.530 -17.374  0.00  0.00    -0.286 N 
ATOM      2  N   UNL     1      35.817 -23.555 -13.961  0.00  0.00    -0.260 N 
ATOM      3  N   UNL     1      34.725 -22.976 -16.438  0.00  0.00    -0.387 NA
ATOM      4  N   UNL     1      37.891 -23.175 -14.687  0.00  0.00    -0.224 NA
ATOM      5  C   UNL     1      36.034 -22.896 -16.304  0.00  0.00    +0.216 C 
ATOM      6  C   UNL     1      36.619 -23.199 -15.013  0.00  0.00    +0.180 C 
ATOM      7  C   UNL     1      33.938 -23.348 -15.348  0.00  0.00    +0.131 C 
ATOM      8  C   UNL     1      34.449 -23.630 -14.129  0.00  0.00    +0.156 C 
ATOM      9  C   UNL     1      36.632 -23.774 -12.886  0.00  0.00    +0.088 C 
ATOM     10  C   UNL     1      37.905 -23.533 -13.359  0.00  0.00    +0.117 C 
ATOM     11  H   UNL     1      37.731 -22.900 -17.398  0.00  0.00    +0.155 HD
ENDROOT
BRANCH   7  14
ATOM     12  N   UNL     1      29.300 -24.931 -14.380  0.00  0.00    -0.236 N 
ATOM     13  N   UNL     1      28.088 -24.684 -14.904  0.00  0.00    -0.180 NA
ATOM     14  C   UNL     1      32.475 -23.407 -15.561  0.00  0.00    +0.028 C 
ATOM     15  C   UNL     1      30.322 -24.251 -14.985  0.00  0.00    +0.067 C 
ATOM     16  C   UNL     1      31.697 -24.233 -14.741  0.00  0.00    +0.018 C 
ATOM     17  C   UNL     1      29.719 -23.497 -15.985  0.00  0.00    +0.035 C 
ATOM     18  C   UNL     1      31.895 -22.642 -16.574  0.00  0.00    +0.002 C 
ATOM     19  C   UNL     1      30.513 -22.674 -16.801  0.00  0.00    +0.003 C 
ATOM     20  C   UNL     1      28.346 -23.812 -15.880  0.00  0.00    +0.119 C 
ATOM     21  H   UNL     1      29.440 -25.549 -13.627  0.00  0.00    +0.174 HD
ENDBRANCH   7  14
BRANCH   1  25
ATOM     22  C   UNL     1      35.730 -20.018 -20.534  0.00  0.00    +0.048 C 
ATOM     23  C   UNL     1      37.006 -19.926 -19.978  0.00  0.00    +0.016 C 
ATOM     24  C   UNL     1      34.817 -20.948 -20.035  0.00  0.00    +0.016 C 
ATOM     25  C   UNL     1      36.456 -21.693 -18.424  0.00  0.00    +0.050 C 
ATOM     26  C   UNL     1      37.369 -20.764 -18.922  0.00  0.00    +0.016 C 
ATOM     27  C   UNL     1      35.179 -21.785 -18.981  0.00  0.00    +0.016 C 
BRANCH  22  29
ATOM     28  O   UNL     1      34.900 -17.511 -23.805  0.00  0.00    -0.350 OA
ATOM     29  N   UNL     1      35.366 -19.178 -21.592  0.00  0.00    -0.303 N 
ATOM     30  C   UNL     1      35.393 -19.728 -22.954  0.00  0.00    +0.123 C 
ATOM     31  C   UNL     1      35.608 -17.734 -21.496  0.00  0.00    +0.123 C 
ATOM     32  C   UNL     1      34.512 -18.883 -23.867  0.00  0.00    +0.164 C 
ATOM     33  C   UNL     1      34.716 -16.996 -22.487  0.00  0.00    +0.164 C 
ENDBRANCH  22  29
ENDBRANCH   1  25
TORSDOF 3
ENDMDL
MODEL 4
REMARK VINA RESULT:      -9.8      2.530      7.085
REMARK  Name = 59473233
REMARK  3 active torsions:
REMARK  status: ('A' for Active; 'I' for Inactive)
REMARK    1  A    between atoms: N_1  and  C_25
REMARK    2  A    between atoms: C_7  and  C_14
REMARK    3  A    between atoms: C_22  and  N_29
REMARK                            x       y       z     vdW  Elec       q    Type
REMARK                         _______ _______ _______ _____ _____    ______ ____
ROOT
ATOM      1  N   UNL     1      33.940 -24.084 -12.836  0.00  0.00    -0.286 N 
ATOM      2  N   UNL     1      37.491 -24.824 -13.569  0.00  0.00    -0.260 N 
ATOM      3  N   UNL     1      35.393 -23.259 -14.468  0.00  0.00    -0.387 NA
ATOM      4  N   UNL     1      36.249 -25.715 -11.945  0.00  0.00    -0.224 NA
ATOM      5  C   UNL     1      35.178 -24.049 -13.435  0.00  0.00    +0.216 C 
ATOM      6  C   UNL     1      36.269 -24.872 -12.952  0.00  0.00    +0.180 C 
ATOM      7  C   UNL     1      36.652 -23.229 -15.068  0.00  0.00    +0.131 C 
ATOM      8  C   UNL     1      37.689 -23.989 -14.649  0.00  0.00    +0.156 C 
ATOM      9  C   UNL     1      38.311 -25.698 -12.910  0.00  0.00    +0.088 C 
ATOM     10  C   UNL     1      37.522 -26.234 -11.914  0.00  0.00    +0.117 C 
ATOM     11  H   UNL     1      33.921 -24.291 -11.874  0.00  0.00    +0.155 HD
ENDROOT
BRANCH   7  14
ATOM     12  N   UNL     1      35.533 -21.450 -19.600  0.00  0.00    -0.236 N 
ATOM     13  N   UNL     1      36.030 -20.479 -20.383  0.00  0.00    -0.180 NA
ATOM     14  C   UNL     1      36.825 -22.330 -16.230  0.00  0.00    +0.028 C 
ATOM     15  C   UNL     1      36.178 -21.588 -18.400  0.00  0.00    +0.067 C 
ATOM     16  C   UNL     1      35.971 -22.461 -17.330  0.00  0.00    +0.018 C 
ATOM     17  C   UNL     1      37.177 -20.622 -18.407  0.00  0.00    +0.035 C 
ATOM     18  C   UNL     1      37.838 -21.369 -16.213  0.00  0.00    +0.002 C 
ATOM     19  C   UNL     1      38.028 -20.503 -17.296  0.00  0.00    +0.003 C 
ATOM     20  C   UNL     1      37.030 -19.977 -19.655  0.00  0.00    +0.119 C 
ATOM     21  H   UNL     1      34.772 -22.015 -19.867  0.00  0.00    +0.174 HD
ENDBRANCH   7  14
BRANCH   1  25
ATOM     22  C   UNL     1      30.251 -23.407 -14.685  0.00  0.00    +0.048 C 
ATOM     23  C   UNL     1      31.231 -22.414 -14.699  0.00  0.00    +0.016 C 
ATOM     24  C   UNL     1      30.502 -24.626 -14.055  0.00  0.00    +0.016 C 
ATOM     25  C   UNL     1      32.711 -23.858 -13.450  0.00  0.00    +0.050 C 
ATOM     26  C   UNL     1      32.461 -22.639 -14.081  0.00  0.00    +0.016 C 
ATOM     27  C   UNL     1      31.731 -24.852 -13.437  0.00  0.00    +0.016 C 
BRANCH  22  29
ATOM     28  O   UNL     1      26.664 -22.518 -16.689  0.00  0.00    -0.350 OA
ATOM     29  N   UNL     1      29.017 -23.181 -15.305  0.00  0.00    -0.303 N 
ATOM     30  C   UNL     1      28.913 -23.423 -16.750  0.00  0.00    +0.123 C 
ATOM     31  C   UNL     1      28.110 -22.156 -14.775  0.00  0.00    +0.123 C 
ATOM     32  C   UNL     1      27.451 -23.622 -17.134  0.00  0.00    +0.164 C 
ATOM     33  C   UNL     1      26.691 -22.422 -15.266  0.00  0.00    +0.164 C 
ENDBRANCH  22  29
ENDBRANCH   1  25
TORSDOF 3
ENDMDL
MODEL 5
REMARK VINA RESULT:      -9.5      2.612      7.335
REMARK  Name = 59473233
REMARK  3 active torsions:
REMARK  status: ('A' for Active; 'I' for Inactive)
REMARK    1  A    between atoms: N_1  and  C_25
REMARK    2  A    between atoms: C_7  and  C_14
REMARK    3  A    between atoms: C_22  and  N_29
REMARK                            x       y       z     vdW  Elec       q    Type
REMARK                         _______ _______ _______ _____ _____    ______ ____
ROOT
ATOM      1  N   UNL     1      34.012 -23.404 -13.676  0.00  0.00    -0.286 N 
ATOM      2  N   UNL     1      37.492 -24.136 -14.703  0.00  0.00    -0.260 N 
ATOM      3  N   UNL     1      35.278 -22.679 -15.501  0.00  0.00    -0.387 NA
ATOM      4  N   UNL     1      36.436 -24.924 -12.903  0.00  0.00    -0.224 NA
ATOM      5  C   UNL     1      35.184 -23.393 -14.396  0.00  0.00    +0.216 C 
ATOM      6  C   UNL     1      36.337 -24.159 -13.965  0.00  0.00    +0.180 C 
ATOM      7  C   UNL     1      36.471 -22.673 -16.223  0.00  0.00    +0.131 C 
ATOM      8  C   UNL     1      37.563 -23.381 -15.855  0.00  0.00    +0.156 C 
ATOM      9  C   UNL     1      38.393 -24.944 -14.067  0.00  0.00    +0.088 C 
ATOM     10  C   UNL     1      37.719 -25.417 -12.961  0.00  0.00    +0.117 C 
ATOM     11  H   UNL     1      34.093 -23.538 -12.704  0.00  0.00    +0.155 HD
ENDROOT
BRANCH   7  14
ATOM     12  N   UNL     1      38.124 -18.970 -19.141  0.00  0.00    -0.236 N 
ATOM     13  N   UNL     1      37.829 -18.538 -20.378  0.00  0.00    -0.180 NA
ATOM     14  C   UNL     1      36.508 -21.861 -17.460  0.00  0.00    +0.028 C 
ATOM     15  C   UNL     1      37.393 -20.055 -18.736  0.00  0.00    +0.067 C 
ATOM     16  C   UNL     1      37.400 -20.787 -17.547  0.00  0.00    +0.018 C 
ATOM     17  C   UNL     1      36.554 -20.350 -19.804  0.00  0.00    +0.035 C 
ATOM     18  C   UNL     1      35.652 -22.178 -18.517  0.00  0.00    +0.002 C 
ATOM     19  C   UNL     1      35.662 -21.431 -19.701  0.00  0.00    +0.003 C 
ATOM     20  C   UNL     1      36.873 -19.379 -20.778  0.00  0.00    +0.119 C 
ATOM     21  H   UNL     1      38.806 -18.543 -18.575  0.00  0.00    +0.174 HD
ENDBRANCH   7  14
BRANCH   1  25
ATOM     22  C   UNL     1      30.144 -22.923 -15.190  0.00  0.00    +0.048 C 
ATOM     23  C   UNL     1      30.348 -23.015 -13.813  0.00  0.00    +0.016 C 
ATOM     24  C   UNL     1      31.231 -22.992 -16.061  0.00  0.00    +0.016 C 
ATOM     25  C   UNL     1      32.724 -23.246 -14.180  0.00  0.00    +0.050 C 
ATOM     26  C   UNL     1      31.639 -23.176 -13.308  0.00  0.00    +0.016 C 
ATOM     27  C   UNL     1      32.521 -23.154 -15.557  0.00  0.00    +0.016 C 
BRANCH  22  29
ATOM     28  O   UNL     1      26.188 -22.680 -16.590  0.00  0.00    -0.350 OA
ATOM     29  N   UNL     1      28.850 -22.761 -15.696  0.00  0.00    -0.303 N 
ATOM     30  C   UNL     1      27.751 -22.568 -14.740  0.00  0.00    +0.123 C 
ATOM     31  C   UNL     1      28.473 -23.404 -16.960  0.00  0.00    +0.123 C 
ATOM     32  C   UNL     1      26.566 -21.918 -15.444  0.00  0.00    +0.164 C 
ATOM     33  C   UNL     1      27.247 -22.711 -17.545  0.00  0.00    +0.164 C 
ENDBRANCH  22  29
ENDBRANCH   1  25
TORSDOF 3
ENDMDL
