MODEL 1
REMARK VINA RESULT:     -12.5      0.000      0.000
REMARK  Name = 11697676
REMARK  7 active torsions:
REMARK  status: ('A' for Active; 'I' for Inactive)
REMARK    1  A    between atoms: N_1  and  C_18
REMARK    2  A    between atoms: N_2  and  C_8
REMARK    3  A    between atoms: C_18  and  C_19
REMARK    4  A    between atoms: C_19  and  C_20
REMARK    5  A    between atoms: C_20  and  C_21
REMARK    6  A    between atoms: C_21  and  O_22
REMARK    7  A    between atoms: O_22  and  C_28
REMARK                            x       y       z     vdW  Elec       q    Type
REMARK                         _______ _______ _______ _____ _____    ______ ____
ROOT
ATOM      1  N   UNL     1      31.710  -9.089 -20.297  0.00  0.00    +0.389 N 
ATOM      2  N   UNL     1      31.969  -6.940 -22.161  0.00  0.00    -0.312 N 
ATOM      3  C   UNL     1      32.536  -7.920 -19.972  0.00  0.00    -0.055 C 
ATOM      4  C   UNL     1      31.773  -9.359 -21.739  0.00  0.00    -0.055 C 
ATOM      5  C   UNL     1      32.047  -6.677 -20.719  0.00  0.00    +0.068 C 
ATOM      6  C   UNL     1      31.259  -8.163 -22.545  0.00  0.00    +0.068 C 
ATOM      7  H   UNL     1      30.743  -8.891 -20.041  0.00  0.00    -0.080 HD
ENDROOT
BRANCH   2   8
ATOM      8  C   UNL     1      31.985  -5.844 -23.031  0.00  0.00    +0.048 C 
ATOM      9  C   UNL     1      33.008  -5.644 -24.000  0.00  0.00    +0.013 C 
ATOM     10  C   UNL     1      30.945  -4.893 -22.950  0.00  0.00    +0.015 C 
ATOM     11  C   UNL     1      32.975  -4.517 -24.855  0.00  0.00    +0.001 C 
ATOM     12  C   UNL     1      34.062  -6.564 -24.116  0.00  0.00    +0.001 C 
ATOM     13  C   UNL     1      30.912  -3.784 -23.793  0.00  0.00    +0.001 C 
ATOM     14  C   UNL     1      31.919  -3.597 -24.739  0.00  0.00    +0.000 C 
ATOM     15  C   UNL     1      33.997  -4.344 -25.802  0.00  0.00    +0.000 C 
ATOM     16  C   UNL     1      35.070  -6.376 -25.062  0.00  0.00    +0.000 C 
ATOM     17  C   UNL     1      35.038  -5.268 -25.903  0.00  0.00    +0.000 C 
ENDBRANCH   2   8
BRANCH   1  18
ATOM     18  C   UNL     1      32.153 -10.258 -19.537  0.00  0.00    -0.077 C 
BRANCH  18  19
ATOM     19  C   UNL     1      31.290 -11.471 -19.878  0.00  0.00    -0.019 C 
BRANCH  19  20
ATOM     20  C   UNL     1      32.151 -12.705 -20.143  0.00  0.00    +0.045 C 
BRANCH  20  21
ATOM     21  C   UNL     1      32.306 -12.973 -21.634  0.00  0.00    +0.208 C 
BRANCH  21  22
ATOM     22  O   UNL     1      33.680 -13.131 -21.955  0.00  0.00    -0.452 OA
BRANCH  22  28
ATOM     23  O   UNL     1      36.205 -19.417 -20.270  0.00  0.00    -0.275 OA
ATOM     24  N   UNL     1      35.325 -17.380 -20.865  0.00  0.00    -0.263 N 
ATOM     25  N   UNL     1      34.495 -15.238 -21.427  0.00  0.00    -0.357 NA
ATOM     26  C   UNL     1      34.880 -16.857 -23.180  0.00  0.00    +0.090 C 
ATOM     27  C   UNL     1      35.228 -18.266 -23.556  0.00  0.00    +0.022 C 
ATOM     28  C   UNL     1      34.079 -14.372 -22.378  0.00  0.00    +0.278 C 
ATOM     29  C   UNL     1      34.898 -16.462 -21.842  0.00  0.00    +0.170 C 
ATOM     30  C   UNL     1      36.258 -18.842 -22.597  0.00  0.00    +0.086 C 
ATOM     31  C   UNL     1      34.430 -15.938 -24.128  0.00  0.00    -0.012 C 
ATOM     32  C   UNL     1      34.030 -14.669 -23.728  0.00  0.00    +0.068 C 
ATOM     33  C   UNL     1      35.903 -18.604 -21.144  0.00  0.00    +0.228 C 
ATOM     34  H   UNL     1      35.203 -17.135 -19.919  0.00  0.00    +0.157 HD
ENDBRANCH  22  28
ENDBRANCH  21  22
ENDBRANCH  20  21
ENDBRANCH  19  20
ENDBRANCH  18  19
ENDBRANCH   1  18
TORSDOF 7
ENDMDL
MODEL 2
REMARK VINA RESULT:     -12.4      0.637      2.153
REMARK  Name = 11697676
REMARK  7 active torsions:
REMARK  status: ('A' for Active; 'I' for Inactive)
REMARK    1  A    between atoms: N_1  and  C_18
REMARK    2  A    between atoms: N_2  and  C_8
REMARK    3  A    between atoms: C_18  and  C_19
REMARK    4  A    between atoms: C_19  and  C_20
REMARK    5  A    between atoms: C_20  and  C_21
REMARK    6  A    between atoms: C_21  and  O_22
REMARK    7  A    between atoms: O_22  and  C_28
REMARK                            x       y       z     vdW  Elec       q    Type
REMARK                         _______ _______ _______ _____ _____    ______ ____
ROOT
ATOM      1  N   UNL     1      32.186  -9.498 -20.433  0.00  0.00    +0.389 N 
ATOM      2  N   UNL     1      32.884  -7.583 -22.434  0.00  0.00    -0.312 N 
ATOM      3  C   UNL     1      31.610  -9.589 -21.780  0.00  0.00    -0.055 C 
ATOM      4  C   UNL     1      32.396  -8.090 -20.073  0.00  0.00    -0.055 C 
ATOM      5  C   UNL     1      32.540  -8.957 -22.819  0.00  0.00    +0.068 C 
ATOM      6  C   UNL     1      33.352  -7.409 -21.056  0.00  0.00    +0.068 C 
ATOM      7  H   UNL     1      33.086  -9.978 -20.427  0.00  0.00    -0.080 HD
ENDROOT
BRANCH   2   8
ATOM      8  C   UNL     1      33.332  -6.713 -23.434  0.00  0.00    +0.048 C 
ATOM      9  C   UNL     1      32.638  -5.521 -23.786  0.00  0.00    +0.013 C 
ATOM     10  C   UNL     1      34.522  -7.023 -24.128  0.00  0.00    +0.015 C 
ATOM     11  C   UNL     1      33.135  -4.676 -24.806  0.00  0.00    +0.001 C 
ATOM     12  C   UNL     1      31.450  -5.173 -23.124  0.00  0.00    +0.001 C 
ATOM     13  C   UNL     1      35.012  -6.191 -25.131  0.00  0.00    +0.001 C 
ATOM     14  C   UNL     1      34.324  -5.025 -25.468  0.00  0.00    +0.000 C 
ATOM     15  C   UNL     1      32.430  -3.507 -25.134  0.00  0.00    +0.000 C 
ATOM     16  C   UNL     1      30.762  -4.007 -23.462  0.00  0.00    +0.000 C 
ATOM     17  C   UNL     1      31.251  -3.176 -24.466  0.00  0.00    +0.000 C 
ENDBRANCH   2   8
BRANCH   1  18
ATOM     18  C   UNL     1      31.314 -10.152 -19.457  0.00  0.00    -0.077 C 
BRANCH  18  19
ATOM     19  C   UNL     1      30.865 -11.516 -19.978  0.00  0.00    -0.019 C 
BRANCH  19  20
ATOM     20  C   UNL     1      31.999 -12.537 -19.904  0.00  0.00    +0.045 C 
BRANCH  20  21
ATOM     21  C   UNL     1      32.285 -13.159 -21.264  0.00  0.00    +0.208 C 
BRANCH  21  22
ATOM     22  O   UNL     1      33.685 -13.338 -21.427  0.00  0.00    -0.452 OA
BRANCH  22  28
ATOM     23  O   UNL     1      36.416 -19.669 -20.335  0.00  0.00    -0.275 OA
ATOM     24  N   UNL     1      35.467 -17.616 -20.736  0.00  0.00    -0.263 N 
ATOM     25  N   UNL     1      34.567 -15.458 -21.097  0.00  0.00    -0.357 NA
ATOM     26  C   UNL     1      34.930 -16.923 -22.985  0.00  0.00    +0.090 C 
ATOM     27  C   UNL     1      35.299 -18.287 -23.484  0.00  0.00    +0.022 C 
ATOM     28  C   UNL     1      34.098 -14.531 -21.961  0.00  0.00    +0.278 C 
ATOM     29  C   UNL     1      34.985 -16.634 -21.622  0.00  0.00    +0.170 C 
ATOM     30  C   UNL     1      36.375 -18.910 -22.609  0.00  0.00    +0.086 C 
ATOM     31  C   UNL     1      34.426 -15.943 -23.842  0.00  0.00    -0.012 C 
ATOM     32  C   UNL     1      34.010 -14.721 -23.329  0.00  0.00    +0.068 C 
ATOM     33  C   UNL     1      36.065 -18.797 -21.130  0.00  0.00    +0.228 C 
ATOM     34  H   UNL     1      35.373 -17.450 -19.770  0.00  0.00    +0.157 HD
ENDBRANCH  22  28
ENDBRANCH  21  22
ENDBRANCH  20  21
ENDBRANCH  19  20
ENDBRANCH  18  19
ENDBRANCH   1  18
TORSDOF 7
ENDMDL
MODEL 3
REMARK VINA RESULT:     -12.3      1.950      2.435
REMARK  Name = 11697676
REMARK  7 active torsions:
REMARK  status: ('A' for Active; 'I' for Inactive)
REMARK    1  A    between atoms: N_1  and  C_18
REMARK    2  A    between atoms: N_2  and  C_8
REMARK    3  A    between atoms: C_18  and  C_19
REMARK    4  A    between atoms: C_19  and  C_20
REMARK    5  A    between atoms: C_20  and  C_21
REMARK    6  A    between atoms: C_21  and  O_22
REMARK    7  A    between atoms: O_22  and  C_28
REMARK                            x       y       z     vdW  Elec       q    Type
REMARK                         _______ _______ _______ _____ _____    ______ ____
ROOT
ATOM      1  N   UNL     1      31.938  -8.389 -20.402  0.00  0.00    +0.389 N 
ATOM      2  N   UNL     1      32.038  -6.329 -22.378  0.00  0.00    -0.312 N 
ATOM      3  C   UNL     1      32.862  -7.258 -20.249  0.00  0.00    -0.055 C 
ATOM      4  C   UNL     1      31.779  -8.715 -21.825  0.00  0.00    -0.055 C 
ATOM      5  C   UNL     1      32.335  -6.017 -20.975  0.00  0.00    +0.068 C 
ATOM      6  C   UNL     1      31.218  -7.522 -22.603  0.00  0.00    +0.068 C 
ATOM      7  H   UNL     1      31.029  -8.126 -20.021  0.00  0.00    -0.080 HD
ENDROOT
BRANCH   2   8
ATOM      8  C   UNL     1      31.986  -5.269 -23.290  0.00  0.00    +0.048 C 
ATOM      9  C   UNL     1      32.952  -5.089 -24.319  0.00  0.00    +0.013 C 
ATOM     10  C   UNL     1      30.933  -4.334 -23.191  0.00  0.00    +0.015 C 
ATOM     11  C   UNL     1      32.852  -3.998 -25.215  0.00  0.00    +0.001 C 
ATOM     12  C   UNL     1      34.017  -5.994 -24.455  0.00  0.00    +0.001 C 
ATOM     13  C   UNL     1      30.833  -3.261 -24.074  0.00  0.00    +0.001 C 
ATOM     14  C   UNL     1      31.785  -3.094 -25.079  0.00  0.00    +0.000 C 
ATOM     15  C   UNL     1      33.819  -3.845 -26.221  0.00  0.00    +0.000 C 
ATOM     16  C   UNL     1      34.970  -5.826 -25.461  0.00  0.00    +0.000 C 
ATOM     17  C   UNL     1      34.871  -4.753 -26.342  0.00  0.00    +0.000 C 
ENDBRANCH   2   8
BRANCH   1  18
ATOM     18  C   UNL     1      32.424  -9.552 -19.660  0.00  0.00    -0.077 C 
BRANCH  18  19
ATOM     19  C   UNL     1      31.258 -10.280 -18.992  0.00  0.00    -0.019 C 
BRANCH  19  20
ATOM     20  C   UNL     1      30.648 -11.321 -19.928  0.00  0.00    +0.045 C 
BRANCH  20  21
ATOM     21  C   UNL     1      31.707 -11.984 -20.799  0.00  0.00    +0.208 C 
BRANCH  21  22
ATOM     22  O   UNL     1      32.182 -13.164 -20.166  0.00  0.00    -0.452 OA
BRANCH  22  28
ATOM     23  O   UNL     1      34.107 -15.271 -26.537  0.00  0.00    -0.275 OA
ATOM     24  N   UNL     1      33.543 -14.576 -24.422  0.00  0.00    -0.263 N 
ATOM     25  N   UNL     1      32.863 -13.872 -22.268  0.00  0.00    -0.357 NA
ATOM     26  C   UNL     1      34.468 -15.667 -22.476  0.00  0.00    +0.090 C 
ATOM     27  C   UNL     1      35.358 -16.480 -23.367  0.00  0.00    +0.022 C 
ATOM     28  C   UNL     1      32.951 -14.007 -20.926  0.00  0.00    +0.278 C 
ATOM     29  C   UNL     1      33.614 -14.709 -23.022  0.00  0.00    +0.170 C 
ATOM     30  C   UNL     1      34.701 -16.715 -24.718  0.00  0.00    +0.086 C 
ATOM     31  C   UNL     1      34.540 -15.764 -21.086  0.00  0.00    -0.012 C 
ATOM     32  C   UNL     1      33.764 -14.929 -20.293  0.00  0.00    +0.068 C 
ATOM     33  C   UNL     1      34.127 -15.449 -25.319  0.00  0.00    +0.228 C 
ATOM     34  H   UNL     1      33.043 -13.810 -24.786  0.00  0.00    +0.157 HD
ENDBRANCH  22  28
ENDBRANCH  21  22
ENDBRANCH  20  21
ENDBRANCH  19  20
ENDBRANCH  18  19
ENDBRANCH   1  18
TORSDOF 7
ENDMDL
MODEL 4
REMARK VINA RESULT:     -12.0      6.925     11.534
REMARK  Name = 11697676
REMARK  7 active torsions:
REMARK  status: ('A' for Active; 'I' for Inactive)
REMARK    1  A    between atoms: N_1  and  C_18
REMARK    2  A    between atoms: N_2  and  C_8
REMARK    3  A    between atoms: C_18  and  C_19
REMARK    4  A    between atoms: C_19  and  C_20
REMARK    5  A    between atoms: C_20  and  C_21
REMARK    6  A    between atoms: C_21  and  O_22
REMARK    7  A    between atoms: O_22  and  C_28
REMARK                            x       y       z     vdW  Elec       q    Type
REMARK                         _______ _______ _______ _____ _____    ______ ____
ROOT
ATOM      1  N   UNL     1      35.919 -20.968 -19.945  0.00  0.00    +0.389 N 
ATOM      2  N   UNL     1      35.333 -18.683 -21.556  0.00  0.00    -0.312 N 
ATOM      3  C   UNL     1      34.529 -20.541 -20.149  0.00  0.00    -0.055 C 
ATOM      4  C   UNL     1      36.804 -19.797 -19.924  0.00  0.00    -0.055 C 
ATOM      5  C   UNL     1      34.374 -19.792 -21.475  0.00  0.00    +0.068 C 
ATOM      6  C   UNL     1      36.724 -19.024 -21.243  0.00  0.00    +0.068 C 
ATOM      7  H   UNL     1      36.194 -21.575 -20.718  0.00  0.00    -0.080 HD
ENDROOT
BRANCH   2   8
ATOM      8  C   UNL     1      35.058 -17.640 -22.446  0.00  0.00    +0.048 C 
ATOM      9  C   UNL     1      34.630 -16.352 -22.016  0.00  0.00    +0.013 C 
ATOM     10  C   UNL     1      35.207 -17.866 -23.832  0.00  0.00    +0.015 C 
ATOM     11  C   UNL     1      34.365 -15.332 -22.959  0.00  0.00    +0.001 C 
ATOM     12  C   UNL     1      34.468 -16.082 -20.648  0.00  0.00    +0.001 C 
ATOM     13  C   UNL     1      34.947 -16.861 -24.760  0.00  0.00    +0.001 C 
ATOM     14  C   UNL     1      34.529 -15.603 -24.328  0.00  0.00    +0.000 C 
ATOM     15  C   UNL     1      33.944 -14.071 -22.507  0.00  0.00    +0.000 C 
ATOM     16  C   UNL     1      34.049 -14.823 -20.216  0.00  0.00    +0.000 C 
ATOM     17  C   UNL     1      33.787 -13.819 -21.144  0.00  0.00    +0.000 C 
ENDBRANCH   2   8
BRANCH   1  18
ATOM     18  C   UNL     1      36.045 -21.729 -18.702  0.00  0.00    -0.077 C 
BRANCH  18  19
ATOM     19  C   UNL     1      37.157 -21.145 -17.833  0.00  0.00    -0.019 C 
BRANCH  19  20
ATOM     20  C   UNL     1      37.497 -22.077 -16.672  0.00  0.00    +0.045 C 
BRANCH  20  21
ATOM     21  C   UNL     1      36.350 -22.177 -15.675  0.00  0.00    +0.208 C 
BRANCH  21  22
ATOM     22  O   UNL     1      35.722 -23.446 -15.788  0.00  0.00    -0.452 OA
BRANCH  22  28
ATOM     23  O   UNL     1      28.901 -22.460 -16.894  0.00  0.00    -0.275 OA
ATOM     24  N   UNL     1      31.131 -22.850 -16.505  0.00  0.00    -0.263 N 
ATOM     25  N   UNL     1      33.447 -23.155 -16.132  0.00  0.00    -0.357 NA
ATOM     26  C   UNL     1      31.878 -23.740 -14.389  0.00  0.00    +0.090 C 
ATOM     27  C   UNL     1      30.449 -23.924 -13.972  0.00  0.00    +0.022 C 
ATOM     28  C   UNL     1      34.443 -23.549 -15.308  0.00  0.00    +0.278 C 
ATOM     29  C   UNL     1      32.182 -23.246 -15.657  0.00  0.00    +0.170 C 
ATOM     30  C   UNL     1      29.558 -22.880 -14.626  0.00  0.00    +0.086 C 
ATOM     31  C   UNL     1      32.934 -24.150 -13.575  0.00  0.00    -0.012 C 
ATOM     32  C   UNL     1      34.242 -24.046 -14.033  0.00  0.00    +0.068 C 
ATOM     33  C   UNL     1      29.810 -22.743 -16.114  0.00  0.00    +0.228 C 
ATOM     34  H   UNL     1      31.351 -22.634 -17.440  0.00  0.00    +0.157 HD
ENDBRANCH  22  28
ENDBRANCH  21  22
ENDBRANCH  20  21
ENDBRANCH  19  20
ENDBRANCH  18  19
ENDBRANCH   1  18
TORSDOF 7
ENDMDL
MODEL 5
REMARK VINA RESULT:     -11.7      6.665     15.367
REMARK  Name = 11697676
REMARK  7 active torsions:
REMARK  status: ('A' for Active; 'I' for Inactive)
REMARK    1  A    between atoms: N_1  and  C_18
REMARK    2  A    between atoms: N_2  and  C_8
REMARK    3  A    between atoms: C_18  and  C_19
REMARK    4  A    between atoms: C_19  and  C_20
REMARK    5  A    between atoms: C_20  and  C_21
REMARK    6  A    between atoms: C_21  and  O_22
REMARK    7  A    between atoms: O_22  and  C_28
REMARK                            x       y       z     vdW  Elec       q    Type
REMARK                         _______ _______ _______ _____ _____    ______ ____
ROOT
ATOM      1  N   UNL     1      34.493 -22.299 -17.712  0.00  0.00    +0.389 N 
ATOM      2  N   UNL     1      35.380 -23.543 -15.299  0.00  0.00    -0.312 N 
ATOM      3  C   UNL     1      33.814 -23.497 -17.202  0.00  0.00    -0.055 C 
ATOM      4  C   UNL     1      35.924 -22.360 -17.390  0.00  0.00    -0.055 C 
ATOM      5  C   UNL     1      33.965 -23.607 -15.682  0.00  0.00    +0.068 C 
ATOM      6  C   UNL     1      36.144 -22.434 -15.876  0.00  0.00    +0.068 C 
ATOM      7  H   UNL     1      34.089 -21.476 -17.265  0.00  0.00    -0.080 HD
ENDROOT
BRANCH   2   8
ATOM      8  C   UNL     1      35.748 -24.065 -14.053  0.00  0.00    +0.048 C 
ATOM      9  C   UNL     1      37.035 -24.616 -13.799  0.00  0.00    +0.013 C 
ATOM     10  C   UNL     1      34.808 -24.047 -13.000  0.00  0.00    +0.015 C 
ATOM     11  C   UNL     1      37.355 -25.131 -12.520  0.00  0.00    +0.001 C 
ATOM     12  C   UNL     1      38.002 -24.655 -14.816  0.00  0.00    +0.001 C 
ATOM     13  C   UNL     1      35.123 -24.553 -11.742  0.00  0.00    +0.001 C 
ATOM     14  C   UNL     1      36.387 -25.091 -11.502  0.00  0.00    +0.000 C 
ATOM     15  C   UNL     1      38.632 -25.669 -12.296  0.00  0.00    +0.000 C 
ATOM     16  C   UNL     1      39.266 -25.193 -14.577  0.00  0.00    +0.000 C 
ATOM     17  C   UNL     1      39.581 -25.700 -13.319  0.00  0.00    +0.000 C 
ENDBRANCH   2   8
BRANCH   1  18
ATOM     18  C   UNL     1      34.297 -22.175 -19.156  0.00  0.00    -0.077 C 
BRANCH  18  19
ATOM     19  C   UNL     1      33.249 -21.105 -19.459  0.00  0.00    -0.019 C 
BRANCH  19  20
ATOM     20  C   UNL     1      33.744 -20.135 -20.531  0.00  0.00    +0.045 C 
BRANCH  20  21
ATOM     21  C   UNL     1      35.263 -20.142 -20.638  0.00  0.00    +0.208 C 
BRANCH  21  22
ATOM     22  O   UNL     1      35.749 -18.808 -20.691  0.00  0.00    -0.452 OA
BRANCH  22  28
ATOM     23  O   UNL     1      33.971 -12.560 -23.245  0.00  0.00    -0.275 OA
ATOM     24  N   UNL     1      34.601 -14.624 -22.459  0.00  0.00    -0.263 N 
ATOM     25  N   UNL     1      35.179 -16.741 -21.577  0.00  0.00    -0.357 NA
ATOM     26  C   UNL     1      34.673 -16.536 -23.932  0.00  0.00    +0.090 C 
ATOM     27  C   UNL     1      34.382 -15.638 -25.097  0.00  0.00    +0.022 C 
ATOM     28  C   UNL     1      35.389 -18.061 -21.782  0.00  0.00    +0.278 C 
ATOM     29  C   UNL     1      34.814 -16.002 -22.651  0.00  0.00    +0.170 C 
ATOM     30  C   UNL     1      33.545 -14.445 -24.663  0.00  0.00    +0.086 C 
ATOM     31  C   UNL     1      34.913 -17.900 -24.103  0.00  0.00    -0.012 C 
ATOM     32  C   UNL     1      35.268 -18.683 -23.012  0.00  0.00    +0.068 C 
ATOM     33  C   UNL     1      34.083 -13.774 -23.417  0.00  0.00    +0.228 C 
ATOM     34  H   UNL     1      34.837 -14.240 -21.584  0.00  0.00    +0.157 HD
ENDBRANCH  22  28
ENDBRANCH  21  22
ENDBRANCH  20  21
ENDBRANCH  19  20
ENDBRANCH  18  19
ENDBRANCH   1  18
TORSDOF 7
ENDMDL
MODEL 6
REMARK VINA RESULT:     -11.6      3.780      7.054
REMARK  Name = 11697676
REMARK  7 active torsions:
REMARK  status: ('A' for Active; 'I' for Inactive)
REMARK    1  A    between atoms: N_1  and  C_18
REMARK    2  A    between atoms: N_2  and  C_8
REMARK    3  A    between atoms: C_18  and  C_19
REMARK    4  A    between atoms: C_19  and  C_20
REMARK    5  A    between atoms: C_20  and  C_21
REMARK    6  A    between atoms: C_21  and  O_22
REMARK    7  A    between atoms: O_22  and  C_28
REMARK                            x       y       z     vdW  Elec       q    Type
REMARK                         _______ _______ _______ _____ _____    ______ ____
ROOT
ATOM      1  N   UNL     1      34.223 -15.969 -23.633  0.00  0.00    +0.389 N 
ATOM      2  N   UNL     1      33.395 -13.330 -22.922  0.00  0.00    -0.312 N 
ATOM      3  C   UNL     1      34.775 -15.314 -22.440  0.00  0.00    -0.055 C 
ATOM      4  C   UNL     1      33.956 -14.969 -24.673  0.00  0.00    -0.055 C 
ATOM      5  C   UNL     1      33.794 -14.281 -21.879  0.00  0.00    +0.068 C 
ATOM      6  C   UNL     1      32.949 -13.924 -24.186  0.00  0.00    +0.068 C 
ATOM      7  H   UNL     1      33.347 -16.427 -23.382  0.00  0.00    -0.080 HD
ENDROOT
BRANCH   2   8
ATOM      8  C   UNL     1      32.886 -12.089 -22.521  0.00  0.00    +0.048 C 
ATOM      9  C   UNL     1      33.440 -10.853 -22.956  0.00  0.00    +0.013 C 
ATOM     10  C   UNL     1      31.777 -12.055 -21.648  0.00  0.00    +0.015 C 
ATOM     11  C   UNL     1      32.887  -9.626 -22.519  0.00  0.00    +0.001 C 
ATOM     12  C   UNL     1      34.544 -10.838 -23.824  0.00  0.00    +0.001 C 
ATOM     13  C   UNL     1      31.232 -10.848 -21.219  0.00  0.00    +0.001 C 
ATOM     14  C   UNL     1      31.782  -9.641 -21.651  0.00  0.00    +0.000 C 
ATOM     15  C   UNL     1      33.453  -8.420 -22.963  0.00  0.00    +0.000 C 
ATOM     16  C   UNL     1      35.094  -9.630 -24.255  0.00  0.00    +0.000 C 
ATOM     17  C   UNL     1      34.549  -8.424 -23.825  0.00  0.00    +0.000 C 
ENDBRANCH   2   8
BRANCH   1  18
ATOM     18  C   UNL     1      35.145 -16.991 -24.128  0.00  0.00    -0.077 C 
BRANCH  18  19
ATOM     19  C   UNL     1      34.779 -18.359 -23.554  0.00  0.00    -0.019 C 
BRANCH  19  20
ATOM     20  C   UNL     1      35.711 -18.743 -22.406  0.00  0.00    +0.045 C 
BRANCH  20  21
ATOM     21  C   UNL     1      34.955 -18.893 -21.093  0.00  0.00    +0.208 C 
BRANCH  21  22
ATOM     22  O   UNL     1      34.241 -20.121 -21.085  0.00  0.00    -0.452 OA
BRANCH  22  28
ATOM     23  O   UNL     1      31.047 -23.535 -15.901  0.00  0.00    -0.275 OA
ATOM     24  N   UNL     1      32.139 -22.469 -17.618  0.00  0.00    -0.263 N 
ATOM     25  N   UNL     1      33.211 -21.286 -19.364  0.00  0.00    -0.357 NA
ATOM     26  C   UNL     1      34.551 -22.450 -17.723  0.00  0.00    +0.090 C 
ATOM     27  C   UNL     1      34.600 -23.389 -16.555  0.00  0.00    +0.022 C 
ATOM     28  C   UNL     1      34.359 -20.898 -19.962  0.00  0.00    +0.278 C 
ATOM     29  C   UNL     1      33.324 -22.047 -18.249  0.00  0.00    +0.170 C 
ATOM     30  C   UNL     1      33.403 -23.177 -15.642  0.00  0.00    +0.086 C 
ATOM     31  C   UNL     1      35.712 -22.040 -18.380  0.00  0.00    -0.012 C 
ATOM     32  C   UNL     1      35.621 -21.242 -19.513  0.00  0.00    +0.068 C 
ATOM     33  C   UNL     1      32.093 -23.116 -16.398  0.00  0.00    +0.228 C 
ATOM     34  H   UNL     1      31.286 -22.292 -18.076  0.00  0.00    +0.157 HD
ENDBRANCH  22  28
ENDBRANCH  21  22
ENDBRANCH  20  21
ENDBRANCH  19  20
ENDBRANCH  18  19
ENDBRANCH   1  18
TORSDOF 7
ENDMDL
MODEL 7
REMARK VINA RESULT:     -11.6      6.100     14.383
REMARK  Name = 11697676
REMARK  7 active torsions:
REMARK  status: ('A' for Active; 'I' for Inactive)
REMARK    1  A    between atoms: N_1  and  C_18
REMARK    2  A    between atoms: N_2  and  C_8
REMARK    3  A    between atoms: C_18  and  C_19
REMARK    4  A    between atoms: C_19  and  C_20
REMARK    5  A    between atoms: C_20  and  C_21
REMARK    6  A    between atoms: C_21  and  O_22
REMARK    7  A    between atoms: O_22  and  C_28
REMARK                            x       y       z     vdW  Elec       q    Type
REMARK                         _______ _______ _______ _____ _____    ______ ____
ROOT
ATOM      1  N   UNL     1      35.533 -22.278 -18.810  0.00  0.00    +0.389 N 
ATOM      2  N   UNL     1      34.036 -23.056 -16.504  0.00  0.00    -0.312 N 
ATOM      3  C   UNL     1      35.999 -21.915 -17.465  0.00  0.00    -0.055 C 
ATOM      4  C   UNL     1      34.065 -22.287 -18.844  0.00  0.00    -0.055 C 
ATOM      5  C   UNL     1      35.495 -22.916 -16.421  0.00  0.00    +0.068 C 
ATOM      6  C   UNL     1      33.497 -23.299 -17.845  0.00  0.00    +0.068 C 
ATOM      7  H   UNL     1      35.873 -23.213 -19.035  0.00  0.00    -0.080 HD
ENDROOT
BRANCH   2   8
ATOM      8  C   UNL     1      33.359 -23.550 -15.384  0.00  0.00    +0.048 C 
ATOM      9  C   UNL     1      31.944 -23.481 -15.246  0.00  0.00    +0.013 C 
ATOM     10  C   UNL     1      34.104 -24.145 -14.342  0.00  0.00    +0.015 C 
ATOM     11  C   UNL     1      31.310 -23.997 -14.092  0.00  0.00    +0.001 C 
ATOM     12  C   UNL     1      31.163 -22.898 -16.257  0.00  0.00    +0.001 C 
ATOM     13  C   UNL     1      33.479 -24.653 -13.206  0.00  0.00    +0.001 C 
ATOM     14  C   UNL     1      32.092 -24.581 -13.081  0.00  0.00    +0.000 C 
ATOM     15  C   UNL     1      29.912 -23.915 -13.982  0.00  0.00    +0.000 C 
ATOM     16  C   UNL     1      29.775 -22.826 -16.131  0.00  0.00    +0.000 C 
ATOM     17  C   UNL     1      29.151 -23.333 -14.996  0.00  0.00    +0.000 C 
ENDBRANCH   2   8
BRANCH   1  18
ATOM     18  C   UNL     1      36.064 -21.348 -19.805  0.00  0.00    -0.077 C 
BRANCH  18  19
ATOM     19  C   UNL     1      34.959 -20.419 -20.306  0.00  0.00    -0.019 C 
BRANCH  19  20
ATOM     20  C   UNL     1      35.364 -19.732 -21.609  0.00  0.00    +0.045 C 
BRANCH  20  21
ATOM     21  C   UNL     1      36.280 -18.541 -21.356  0.00  0.00    +0.208 C 
BRANCH  21  22
ATOM     22  O   UNL     1      35.587 -17.551 -20.609  0.00  0.00    -0.452 OA
BRANCH  22  28
ATOM     23  O   UNL     1      33.840 -14.987 -26.863  0.00  0.00    -0.275 OA
ATOM     24  N   UNL     1      34.348 -15.821 -24.784  0.00  0.00    -0.263 N 
ATOM     25  N   UNL     1      34.969 -16.685 -22.671  0.00  0.00    -0.357 NA
ATOM     26  C   UNL     1      33.688 -14.638 -22.785  0.00  0.00    +0.090 C 
ATOM     27  C   UNL     1      32.922 -13.662 -23.627  0.00  0.00    +0.022 C 
ATOM     28  C   UNL     1      34.950 -16.570 -21.324  0.00  0.00    +0.278 C 
ATOM     29  C   UNL     1      34.348 -15.713 -23.380  0.00  0.00    +0.170 C 
ATOM     30  C   UNL     1      33.564 -13.509 -24.996  0.00  0.00    +0.086 C 
ATOM     31  C   UNL     1      33.680 -14.565 -21.392  0.00  0.00    -0.012 C 
ATOM     32  C   UNL     1      34.328 -15.539 -20.643  0.00  0.00    +0.068 C 
ATOM     33  C   UNL     1      33.892 -14.839 -25.642  0.00  0.00    +0.228 C 
ATOM     34  H   UNL     1      34.697 -16.652 -25.181  0.00  0.00    +0.157 HD
ENDBRANCH  22  28
ENDBRANCH  21  22
ENDBRANCH  20  21
ENDBRANCH  19  20
ENDBRANCH  18  19
ENDBRANCH   1  18
TORSDOF 7
ENDMDL
MODEL 8
REMARK VINA RESULT:     -11.6      6.626     11.531
REMARK  Name = 11697676
REMARK  7 active torsions:
REMARK  status: ('A' for Active; 'I' for Inactive)
REMARK    1  A    between atoms: N_1  and  C_18
REMARK    2  A    between atoms: N_2  and  C_8
REMARK    3  A    between atoms: C_18  and  C_19
REMARK    4  A    between atoms: C_19  and  C_20
REMARK    5  A    between atoms: C_20  and  C_21
REMARK    6  A    between atoms: C_21  and  O_22
REMARK    7  A    between atoms: O_22  and  C_28
REMARK                            x       y       z     vdW  Elec       q    Type
REMARK                         _______ _______ _______ _____ _____    ______ ____
ROOT
ATOM      1  N   UNL     1      36.187 -20.470 -20.528  0.00  0.00    +0.389 N 
ATOM      2  N   UNL     1      35.324 -18.172 -21.987  0.00  0.00    -0.312 N 
ATOM      3  C   UNL     1      34.755 -20.188 -20.689  0.00  0.00    -0.055 C 
ATOM      4  C   UNL     1      36.938 -19.211 -20.444  0.00  0.00    -0.055 C 
ATOM      5  C   UNL     1      34.495 -19.383 -21.964  0.00  0.00    +0.068 C 
ATOM      6  C   UNL     1      36.749 -18.373 -21.711  0.00  0.00    +0.068 C 
ATOM      7  H   UNL     1      36.513 -20.995 -21.340  0.00  0.00    -0.080 HD
ENDROOT
BRANCH   2   8
ATOM      8  C   UNL     1      34.919 -17.113 -22.808  0.00  0.00    +0.048 C 
ATOM      9  C   UNL     1      34.343 -15.917 -22.295  0.00  0.00    +0.013 C 
ATOM     10  C   UNL     1      35.084 -17.230 -24.205  0.00  0.00    +0.015 C 
ATOM     11  C   UNL     1      33.950 -14.877 -23.170  0.00  0.00    +0.001 C 
ATOM     12  C   UNL     1      34.159 -15.757 -20.912  0.00  0.00    +0.001 C 
ATOM     13  C   UNL     1      34.699 -16.206 -25.067  0.00  0.00    +0.001 C 
ATOM     14  C   UNL     1      34.136 -15.037 -24.554  0.00  0.00    +0.000 C 
ATOM     15  C   UNL     1      33.385 -13.708 -22.637  0.00  0.00    +0.000 C 
ATOM     16  C   UNL     1      33.595 -14.588 -20.400  0.00  0.00    +0.000 C 
ATOM     17  C   UNL     1      33.208 -13.566 -21.261  0.00  0.00    +0.000 C 
ENDBRANCH   2   8
BRANCH   1  18
ATOM     18  C   UNL     1      36.419 -21.286 -19.336  0.00  0.00    -0.077 C 
BRANCH  18  19
ATOM     19  C   UNL     1      35.369 -22.391 -19.238  0.00  0.00    -0.019 C 
BRANCH  19  20
ATOM     20  C   UNL     1      34.379 -22.114 -18.108  0.00  0.00    +0.045 C 
BRANCH  20  21
ATOM     21  C   UNL     1      34.314 -23.271 -17.120  0.00  0.00    +0.208 C 
BRANCH  21  22
ATOM     22  O   UNL     1      34.475 -22.784 -15.795  0.00  0.00    -0.452 OA
BRANCH  22  28
ATOM     23  O   UNL     1      40.967 -25.120 -14.734  0.00  0.00    -0.275 OA
ATOM     24  N   UNL     1      38.829 -24.328 -15.016  0.00  0.00    -0.263 N 
ATOM     25  N   UNL     1      36.627 -23.553 -15.400  0.00  0.00    -0.357 NA
ATOM     26  C   UNL     1      37.106 -24.822 -13.399  0.00  0.00    +0.090 C 
ATOM     27  C   UNL     1      38.133 -25.462 -12.514  0.00  0.00    +0.022 C 
ATOM     28  C   UNL     1      35.343 -23.468 -14.985  0.00  0.00    +0.278 C 
ATOM     29  C   UNL     1      37.485 -24.237 -14.606  0.00  0.00    +0.170 C 
ATOM     30  C   UNL     1      39.259 -26.063 -13.340  0.00  0.00    +0.086 C 
ATOM     31  C   UNL     1      35.774 -24.698 -13.001  0.00  0.00    -0.012 C 
ATOM     32  C   UNL     1      34.871 -24.019 -13.808  0.00  0.00    +0.068 C 
ATOM     33  C   UNL     1      39.783 -25.112 -14.397  0.00  0.00    +0.228 C 
ATOM     34  H   UNL     1      39.108 -23.796 -15.797  0.00  0.00    +0.157 HD
ENDBRANCH  22  28
ENDBRANCH  21  22
ENDBRANCH  20  21
ENDBRANCH  19  20
ENDBRANCH  18  19
ENDBRANCH   1  18
TORSDOF 7
ENDMDL
MODEL 9
REMARK VINA RESULT:     -11.6      6.562     11.422
REMARK  Name = 11697676
REMARK  7 active torsions:
REMARK  status: ('A' for Active; 'I' for Inactive)
REMARK    1  A    between atoms: N_1  and  C_18
REMARK    2  A    between atoms: N_2  and  C_8
REMARK    3  A    between atoms: C_18  and  C_19
REMARK    4  A    between atoms: C_19  and  C_20
REMARK    5  A    between atoms: C_20  and  C_21
REMARK    6  A    between atoms: C_21  and  O_22
REMARK    7  A    between atoms: O_22  and  C_28
REMARK                            x       y       z     vdW  Elec       q    Type
REMARK                         _______ _______ _______ _____ _____    ______ ____
ROOT
ATOM      1  N   UNL     1      36.181 -20.420 -20.666  0.00  0.00    +0.389 N 
ATOM      2  N   UNL     1      35.312 -18.104 -22.094  0.00  0.00    -0.312 N 
ATOM      3  C   UNL     1      34.749 -20.177 -20.886  0.00  0.00    -0.055 C 
ATOM      4  C   UNL     1      36.886 -19.141 -20.509  0.00  0.00    -0.055 C 
ATOM      5  C   UNL     1      34.522 -19.340 -22.147  0.00  0.00    +0.068 C 
ATOM      6  C   UNL     1      36.729 -18.270 -21.758  0.00  0.00    +0.068 C 
ATOM      7  H   UNL     1      36.560 -20.908 -21.477  0.00  0.00    -0.080 HD
ENDROOT
BRANCH   2   8
ATOM      8  C   UNL     1      34.911 -17.033 -22.901  0.00  0.00    +0.048 C 
ATOM      9  C   UNL     1      34.361 -15.833 -22.371  0.00  0.00    +0.013 C 
ATOM     10  C   UNL     1      35.055 -17.141 -24.301  0.00  0.00    +0.015 C 
ATOM     11  C   UNL     1      33.971 -14.780 -23.232  0.00  0.00    +0.001 C 
ATOM     12  C   UNL     1      34.198 -15.681 -20.984  0.00  0.00    +0.001 C 
ATOM     13  C   UNL     1      34.673 -16.104 -25.149  0.00  0.00    +0.001 C 
ATOM     14  C   UNL     1      34.135 -14.932 -24.619  0.00  0.00    +0.000 C 
ATOM     15  C   UNL     1      33.431 -13.607 -22.682  0.00  0.00    +0.000 C 
ATOM     16  C   UNL     1      33.660 -14.508 -20.455  0.00  0.00    +0.000 C 
ATOM     17  C   UNL     1      33.276 -13.473 -21.302  0.00  0.00    +0.000 C 
ENDBRANCH   2   8
BRANCH   1  18
ATOM     18  C   UNL     1      36.383 -21.265 -19.489  0.00  0.00    -0.077 C 
BRANCH  18  19
ATOM     19  C   UNL     1      35.303 -22.343 -19.419  0.00  0.00    -0.019 C 
BRANCH  19  20
ATOM     20  C   UNL     1      34.239 -21.993 -18.381  0.00  0.00    +0.045 C 
BRANCH  20  21
ATOM     21  C   UNL     1      33.843 -23.206 -17.549  0.00  0.00    +0.208 C 
BRANCH  21  22
ATOM     22  O   UNL     1      33.973 -22.905 -16.167  0.00  0.00    -0.452 OA
BRANCH  22  28
ATOM     23  O   UNL     1      37.030 -26.850 -11.286  0.00  0.00    -0.275 OA
ATOM     24  N   UNL     1      36.073 -25.573 -12.939  0.00  0.00    -0.263 N 
ATOM     25  N   UNL     1      35.024 -24.222 -14.571  0.00  0.00    -0.357 NA
ATOM     26  C   UNL     1      37.424 -24.114 -14.309  0.00  0.00    +0.090 C 
ATOM     27  C   UNL     1      38.660 -24.672 -13.668  0.00  0.00    +0.022 C 
ATOM     28  C   UNL     1      35.134 -23.300 -15.554  0.00  0.00    +0.278 C 
ATOM     29  C   UNL     1      36.167 -24.607 -13.958  0.00  0.00    +0.170 C 
ATOM     30  C   UNL     1      38.376 -25.111 -12.240  0.00  0.00    +0.086 C 
ATOM     31  C   UNL     1      37.495 -23.175 -15.338  0.00  0.00    -0.012 C 
ATOM     32  C   UNL     1      36.333 -22.749 -15.968  0.00  0.00    +0.068 C 
ATOM     33  C   UNL     1      37.123 -25.953 -12.124  0.00  0.00    +0.228 C 
ATOM     34  H   UNL     1      35.202 -26.009 -12.797  0.00  0.00    +0.157 HD
ENDBRANCH  22  28
ENDBRANCH  21  22
ENDBRANCH  20  21
ENDBRANCH  19  20
ENDBRANCH  18  19
ENDBRANCH   1  18
TORSDOF 7
ENDMDL
