MODEL 1
REMARK VINA RESULT:     -11.3      0.000      0.000
REMARK  Name = 56842109
REMARK  7 active torsions:
REMARK  status: ('A' for Active; 'I' for Inactive)
REMARK    1  A    between atoms: C_1  and  C_24
REMARK    2  A    between atoms: C_3  and  C_9
REMARK    3  A    between atoms: C_5  and  O_22
REMARK    4  A    between atoms: N_8  and  C_11
REMARK    5  A    between atoms: C_11  and  C_12
REMARK    6  A    between atoms: C_15  and  C_21
REMARK    7  A    between atoms: C_24  and  C_29
REMARK                            x       y       z     vdW  Elec       q    Type
REMARK                         _______ _______ _______ _____ _____    ______ ____
ROOT
ATOM      1  C   UNL     1      35.325 -17.058 -21.544  0.00  0.00    -0.018 C 
ATOM      2  C   UNL     1      34.424 -16.353 -20.746  0.00  0.00    +0.003 C 
ATOM      3  C   UNL     1      33.671 -15.314 -21.295  0.00  0.00    +0.087 C 
ATOM      4  C   UNL     1      35.473 -16.725 -22.890  0.00  0.00    -0.001 C 
ATOM      5  C   UNL     1      33.819 -14.981 -22.641  0.00  0.00    +0.143 C 
ATOM      6  C   UNL     1      34.720 -15.686 -23.439  0.00  0.00    +0.037 C 
ENDROOT
BRANCH   3   9
ATOM      7  O   UNL     1      32.024 -15.204 -19.630  0.00  0.00    -0.270 OA
ATOM      8  N   UNL     1      32.700 -13.199 -20.579  0.00  0.00    -0.297 N 
ATOM      9  C   UNL     1      32.734 -14.592 -20.445  0.00  0.00    +0.249 C 
ATOM     10  H   UNL     1      33.291 -12.781 -21.246  0.00  0.00    +0.150 HD
BRANCH   8  11
ATOM     11  C   UNL     1      31.842 -12.344 -19.792  0.00  0.00    +0.117 C 
BRANCH  11  12
ATOM     12  C   UNL     1      31.889 -10.918 -20.259  0.00  0.00    -0.003 C 
ATOM     13  C   UNL     1      31.786 -10.626 -21.619  0.00  0.00    -0.003 C 
ATOM     14  C   UNL     1      32.035  -9.885 -19.333  0.00  0.00    -0.003 C 
ATOM     15  C   UNL     1      31.975  -8.269 -21.129  0.00  0.00    +0.071 C 
ATOM     16  C   UNL     1      31.829  -9.302 -22.055  0.00  0.00    +0.004 C 
ATOM     17  C   UNL     1      32.078  -8.561 -19.768  0.00  0.00    +0.004 C 
BRANCH  15  21
ATOM     18  F   UNL     1      33.169  -6.555 -22.263  0.00  0.00    -0.166 F 
ATOM     19  F   UNL     1      31.003  -6.525 -22.447  0.00  0.00    -0.166 F 
ATOM     20  F   UNL     1      31.938  -5.941 -20.579  0.00  0.00    -0.166 F 
ATOM     21  C   UNL     1      32.018  -6.853 -21.593  0.00  0.00    +0.419 C 
ENDBRANCH  15  21
ENDBRANCH  11  12
ENDBRANCH   8  11
ENDBRANCH   3   9
BRANCH   5  22
ATOM     22  O   UNL     1      33.090 -13.972 -23.196  0.00  0.00    -0.471 OA
ATOM     23  C   UNL     1      33.803 -13.010 -23.972  0.00  0.00    +0.252 C 
ENDBRANCH   5  22
BRANCH   1  24
ATOM     24  C   UNL     1      36.138 -18.181 -20.950  0.00  0.00    +0.080 C 
BRANCH  24  29
ATOM     25  O   UNL     1      34.126 -19.466 -21.315  0.00  0.00    -0.428 OA
ATOM     26  O   UNL     1      36.937 -20.913 -19.834  0.00  0.00    -0.271 OA
ATOM     27  O   UNL     1      32.405 -20.471 -20.195  0.00  0.00    -0.226 OA
ATOM     28  N   UNL     1      34.618 -20.963 -19.750  0.00  0.00    -0.218 N 
ATOM     29  C   UNL     1      35.561 -19.540 -21.287  0.00  0.00    +0.250 C 
ATOM     30  C   UNL     1      35.833 -20.553 -20.210  0.00  0.00    +0.271 C 
ATOM     31  C   UNL     1      33.603 -20.326 -20.389  0.00  0.00    +0.408 C 
ATOM     32  H   UNL     1      34.490 -21.636 -19.043  0.00  0.00    +0.161 HD
ENDBRANCH  24  29
ENDBRANCH   1  24
TORSDOF 7
ENDMDL
MODEL 2
REMARK VINA RESULT:     -11.2      7.975     11.498
REMARK  Name = 56842109
REMARK  7 active torsions:
REMARK  status: ('A' for Active; 'I' for Inactive)
REMARK    1  A    between atoms: C_1  and  C_24
REMARK    2  A    between atoms: C_3  and  C_9
REMARK    3  A    between atoms: C_5  and  O_22
REMARK    4  A    between atoms: N_8  and  C_11
REMARK    5  A    between atoms: C_11  and  C_12
REMARK    6  A    between atoms: C_15  and  C_21
REMARK    7  A    between atoms: C_24  and  C_29
REMARK                            x       y       z     vdW  Elec       q    Type
REMARK                         _______ _______ _______ _____ _____    ______ ____
ROOT
ATOM      1  C   UNL     1      35.990 -23.915 -13.804  0.00  0.00    -0.018 C 
ATOM      2  C   UNL     1      35.240 -23.564 -14.927  0.00  0.00    +0.003 C 
ATOM      3  C   UNL     1      33.846 -23.554 -14.859  0.00  0.00    +0.087 C 
ATOM      4  C   UNL     1      35.346 -24.255 -12.615  0.00  0.00    -0.001 C 
ATOM      5  C   UNL     1      33.203 -23.893 -13.670  0.00  0.00    +0.143 C 
ATOM      6  C   UNL     1      33.953 -24.244 -12.547  0.00  0.00    +0.037 C 
ENDROOT
BRANCH   3   9
ATOM      7  O   UNL     1      31.868 -22.938 -15.956  0.00  0.00    -0.270 OA
ATOM      8  N   UNL     1      33.785 -23.098 -17.250  0.00  0.00    -0.297 N 
ATOM      9  C   UNL     1      33.082 -23.183 -16.043  0.00  0.00    +0.249 C 
ATOM     10  H   UNL     1      34.747 -23.308 -17.245  0.00  0.00    +0.150 HD
BRANCH   8  11
ATOM     11  C   UNL     1      33.173 -22.721 -18.504  0.00  0.00    +0.117 C 
BRANCH  11  12
ATOM     12  C   UNL     1      34.002 -21.721 -19.255  0.00  0.00    -0.003 C 
ATOM     13  C   UNL     1      33.380 -20.732 -20.017  0.00  0.00    -0.003 C 
ATOM     14  C   UNL     1      35.394 -21.778 -19.191  0.00  0.00    -0.003 C 
ATOM     15  C   UNL     1      35.540 -19.859 -20.651  0.00  0.00    +0.071 C 
ATOM     16  C   UNL     1      34.148 -19.801 -20.716  0.00  0.00    +0.004 C 
ATOM     17  C   UNL     1      36.163 -20.848 -19.890  0.00  0.00    +0.004 C 
BRANCH  15  21
ATOM     18  F   UNL     1      37.675 -18.878 -21.018  0.00  0.00    -0.166 F 
ATOM     19  F   UNL     1      36.370 -19.059 -22.748  0.00  0.00    -0.166 F 
ATOM     20  F   UNL     1      35.948 -17.573 -21.226  0.00  0.00    -0.166 F 
ATOM     21  C   UNL     1      36.363 -18.863 -21.396  0.00  0.00    +0.419 C 
ENDBRANCH  15  21
ENDBRANCH  11  12
ENDBRANCH   8  11
ENDBRANCH   3   9
BRANCH   5  22
ATOM     22  O   UNL     1      31.842 -23.886 -13.584  0.00  0.00    -0.471 OA
ATOM     23  C   UNL     1      31.205 -25.132 -13.309  0.00  0.00    +0.252 C 
ENDBRANCH   5  22
BRANCH   1  24
ATOM     24  C   UNL     1      37.496 -23.926 -13.877  0.00  0.00    +0.080 C 
BRANCH  24  29
ATOM     25  O   UNL     1      39.519 -25.018 -13.138  0.00  0.00    -0.428 OA
ATOM     26  O   UNL     1      36.826 -26.868 -14.369  0.00  0.00    -0.271 OA
ATOM     27  O   UNL     1      41.321 -26.189 -13.919  0.00  0.00    -0.226 OA
ATOM     28  N   UNL     1      39.147 -26.850 -14.337  0.00  0.00    -0.218 N 
ATOM     29  C   UNL     1      38.090 -25.149 -13.211  0.00  0.00    +0.250 C 
ATOM     30  C   UNL     1      37.899 -26.390 -14.037  0.00  0.00    +0.271 C 
ATOM     31  C   UNL     1      40.111 -26.047 -13.817  0.00  0.00    +0.408 C 
ATOM     32  H   UNL     1      39.328 -27.662 -14.864  0.00  0.00    +0.161 HD
ENDBRANCH  24  29
ENDBRANCH   1  24
TORSDOF 7
ENDMDL
MODEL 3
REMARK VINA RESULT:     -11.0      1.132      2.119
REMARK  Name = 56842109
REMARK  7 active torsions:
REMARK  status: ('A' for Active; 'I' for Inactive)
REMARK    1  A    between atoms: C_1  and  C_24
REMARK    2  A    between atoms: C_3  and  C_9
REMARK    3  A    between atoms: C_5  and  O_22
REMARK    4  A    between atoms: N_8  and  C_11
REMARK    5  A    between atoms: C_11  and  C_12
REMARK    6  A    between atoms: C_15  and  C_21
REMARK    7  A    between atoms: C_24  and  C_29
REMARK                            x       y       z     vdW  Elec       q    Type
REMARK                         _______ _______ _______ _____ _____    ______ ____
ROOT
ATOM      1  C   UNL     1      35.049 -17.727 -22.543  0.00  0.00    -0.018 C 
ATOM      2  C   UNL     1      34.674 -16.799 -21.572  0.00  0.00    +0.003 C 
ATOM      3  C   UNL     1      34.298 -15.509 -21.948  0.00  0.00    +0.087 C 
ATOM      4  C   UNL     1      35.047 -17.365 -23.890  0.00  0.00    -0.001 C 
ATOM      5  C   UNL     1      34.296 -15.147 -23.294  0.00  0.00    +0.143 C 
ATOM      6  C   UNL     1      34.671 -16.076 -24.266  0.00  0.00    +0.037 C 
ENDROOT
BRANCH   3   9
ATOM      7  O   UNL     1      34.772 -13.980 -20.235  0.00  0.00    -0.270 OA
ATOM      8  N   UNL     1      32.539 -14.315 -20.761  0.00  0.00    -0.297 N 
ATOM      9  C   UNL     1      33.909 -14.556 -20.917  0.00  0.00    +0.249 C 
ATOM     10  H   UNL     1      31.911 -14.808 -21.337  0.00  0.00    +0.150 HD
BRANCH   8  11
ATOM     11  C   UNL     1      31.998 -13.382 -19.799  0.00  0.00    +0.117 C 
BRANCH  11  12
ATOM     12  C   UNL     1      31.953 -11.983 -20.338  0.00  0.00    -0.003 C 
ATOM     13  C   UNL     1      31.806 -10.904 -19.466  0.00  0.00    -0.003 C 
ATOM     14  C   UNL     1      32.057 -11.759 -21.711  0.00  0.00    -0.003 C 
ATOM     15  C   UNL     1      31.868  -9.380 -21.338  0.00  0.00    +0.071 C 
ATOM     16  C   UNL     1      31.764  -9.602 -19.965  0.00  0.00    +0.004 C 
ATOM     17  C   UNL     1      32.014 -10.458 -22.211  0.00  0.00    +0.004 C 
BRANCH  15  21
ATOM     18  F   UNL     1      30.795  -7.792 -22.745  0.00  0.00    -0.166 F 
ATOM     19  F   UNL     1      31.674  -7.034 -20.906  0.00  0.00    -0.166 F 
ATOM     20  F   UNL     1      32.955  -7.628 -22.552  0.00  0.00    -0.166 F 
ATOM     21  C   UNL     1      31.826  -7.988 -21.873  0.00  0.00    +0.419 C 
ENDBRANCH  15  21
ENDBRANCH  11  12
ENDBRANCH   8  11
ENDBRANCH   3   9
BRANCH   5  22
ATOM     22  O   UNL     1      33.929 -13.893 -23.682  0.00  0.00    -0.471 OA
ATOM     23  C   UNL     1      33.424 -13.747 -25.007  0.00  0.00    +0.252 C 
ENDBRANCH   5  22
BRANCH   1  24
ATOM     24  C   UNL     1      35.454 -19.122 -22.136  0.00  0.00    +0.080 C 
BRANCH  24  29
ATOM     25  O   UNL     1      36.472 -19.939 -20.104  0.00  0.00    -0.428 OA
ATOM     26  O   UNL     1      33.047 -20.313 -20.675  0.00  0.00    -0.271 OA
ATOM     27  O   UNL     1      37.004 -21.874 -19.010  0.00  0.00    -0.226 OA
ATOM     28  N   UNL     1      34.851 -21.404 -19.704  0.00  0.00    -0.218 N 
ATOM     29  C   UNL     1      35.277 -19.355 -20.651  0.00  0.00    +0.250 C 
ATOM     30  C   UNL     1      34.225 -20.388 -20.362  0.00  0.00    +0.271 C 
ATOM     31  C   UNL     1      36.177 -21.154 -19.550  0.00  0.00    +0.408 C 
ATOM     32  H   UNL     1      34.400 -22.218 -19.381  0.00  0.00    +0.161 HD
ENDBRANCH  24  29
ENDBRANCH   1  24
TORSDOF 7
ENDMDL
MODEL 4
REMARK VINA RESULT:     -10.8      3.425      5.613
REMARK  Name = 56842109
REMARK  7 active torsions:
REMARK  status: ('A' for Active; 'I' for Inactive)
REMARK    1  A    between atoms: C_1  and  C_24
REMARK    2  A    between atoms: C_3  and  C_9
REMARK    3  A    between atoms: C_5  and  O_22
REMARK    4  A    between atoms: N_8  and  C_11
REMARK    5  A    between atoms: C_11  and  C_12
REMARK    6  A    between atoms: C_15  and  C_21
REMARK    7  A    between atoms: C_24  and  C_29
REMARK                            x       y       z     vdW  Elec       q    Type
REMARK                         _______ _______ _______ _____ _____    ______ ____
ROOT
ATOM      1  C   UNL     1      33.324 -12.898 -22.666  0.00  0.00    -0.018 C 
ATOM      2  C   UNL     1      33.103 -11.529 -22.814  0.00  0.00    +0.003 C 
ATOM      3  C   UNL     1      32.281 -10.853 -21.912  0.00  0.00    +0.087 C 
ATOM      4  C   UNL     1      32.723 -13.591 -21.616  0.00  0.00    -0.001 C 
ATOM      5  C   UNL     1      31.680 -11.546 -20.862  0.00  0.00    +0.143 C 
ATOM      6  C   UNL     1      31.900 -12.916 -20.714  0.00  0.00    +0.037 C 
ENDROOT
BRANCH   3   9
ATOM      7  O   UNL     1      31.204  -9.008 -22.878  0.00  0.00    -0.270 OA
ATOM      8  N   UNL     1      32.850  -8.565 -21.305  0.00  0.00    -0.297 N 
ATOM      9  C   UNL     1      32.066  -9.423 -22.084  0.00  0.00    +0.249 C 
ATOM     10  H   UNL     1      33.514  -8.964 -20.698  0.00  0.00    +0.150 HD
BRANCH   8  11
ATOM     11  C   UNL     1      32.738  -7.125 -21.346  0.00  0.00    +0.117 C 
BRANCH  11  12
ATOM     12  C   UNL     1      33.241  -6.559 -22.641  0.00  0.00    -0.003 C 
ATOM     13  C   UNL     1      32.446  -5.672 -23.370  0.00  0.00    -0.003 C 
ATOM     14  C   UNL     1      34.501  -6.917 -23.119  0.00  0.00    -0.003 C 
ATOM     15  C   UNL     1      34.173  -5.504 -25.050  0.00  0.00    +0.071 C 
ATOM     16  C   UNL     1      32.912  -5.145 -24.574  0.00  0.00    +0.004 C 
ATOM     17  C   UNL     1      34.967  -6.391 -24.322  0.00  0.00    +0.004 C 
BRANCH  15  21
ATOM     18  F   UNL     1      35.868  -5.475 -26.717  0.00  0.00    -0.166 F 
ATOM     19  F   UNL     1      33.827  -5.143 -27.390  0.00  0.00    -0.166 F 
ATOM     20  F   UNL     1      34.873  -3.587 -26.299  0.00  0.00    -0.166 F 
ATOM     21  C   UNL     1      34.673  -4.938 -26.336  0.00  0.00    +0.419 C 
ENDBRANCH  15  21
ENDBRANCH  11  12
ENDBRANCH   8  11
ENDBRANCH   3   9
BRANCH   5  22
ATOM     22  O   UNL     1      30.876 -10.903 -19.969  0.00  0.00    -0.471 OA
ATOM     23  C   UNL     1      31.369 -10.765 -18.638  0.00  0.00    +0.252 C 
ENDBRANCH   5  22
BRANCH   1  24
ATOM     24  C   UNL     1      34.214 -13.628 -23.641  0.00  0.00    +0.080 C 
BRANCH  24  29
ATOM     25  O   UNL     1      34.374 -15.892 -22.815  0.00  0.00    -0.428 OA
ATOM     26  O   UNL     1      34.100 -15.242 -26.235  0.00  0.00    -0.271 OA
ATOM     27  O   UNL     1      35.781 -17.693 -22.766  0.00  0.00    -0.226 OA
ATOM     28  N   UNL     1      35.118 -16.703 -24.745  0.00  0.00    -0.218 N 
ATOM     29  C   UNL     1      33.786 -15.067 -23.835  0.00  0.00    +0.250 C 
ATOM     30  C   UNL     1      34.329 -15.652 -25.108  0.00  0.00    +0.271 C 
ATOM     31  C   UNL     1      35.157 -16.851 -23.396  0.00  0.00    +0.408 C 
ATOM     32  H   UNL     1      35.599 -17.282 -25.380  0.00  0.00    +0.161 HD
ENDBRANCH  24  29
ENDBRANCH   1  24
TORSDOF 7
ENDMDL
MODEL 5
REMARK VINA RESULT:     -10.8      4.989      8.460
REMARK  Name = 56842109
REMARK  7 active torsions:
REMARK  status: ('A' for Active; 'I' for Inactive)
REMARK    1  A    between atoms: C_1  and  C_24
REMARK    2  A    between atoms: C_3  and  C_9
REMARK    3  A    between atoms: C_5  and  O_22
REMARK    4  A    between atoms: N_8  and  C_11
REMARK    5  A    between atoms: C_11  and  C_12
REMARK    6  A    between atoms: C_15  and  C_21
REMARK    7  A    between atoms: C_24  and  C_29
REMARK                            x       y       z     vdW  Elec       q    Type
REMARK                         _______ _______ _______ _____ _____    ______ ____
ROOT
ATOM      1  C   UNL     1      34.670 -23.044 -16.226  0.00  0.00    -0.018 C 
ATOM      2  C   UNL     1      35.572 -22.496 -17.139  0.00  0.00    +0.003 C 
ATOM      3  C   UNL     1      35.115 -22.016 -18.367  0.00  0.00    +0.087 C 
ATOM      4  C   UNL     1      33.314 -23.110 -16.540  0.00  0.00    -0.001 C 
ATOM      5  C   UNL     1      33.758 -22.082 -18.681  0.00  0.00    +0.143 C 
ATOM      6  C   UNL     1      32.857 -22.630 -17.768  0.00  0.00    +0.037 C 
ENDROOT
BRANCH   3   9
ATOM      7  O   UNL     1      37.213 -21.928 -19.410  0.00  0.00    -0.270 OA
ATOM      8  N   UNL     1      35.636 -20.364 -20.078  0.00  0.00    -0.297 N 
ATOM      9  C   UNL     1      36.073 -21.446 -19.305  0.00  0.00    +0.249 C 
ATOM     10  H   UNL     1      34.719 -20.033 -19.941  0.00  0.00    +0.150 HD
BRANCH   8  11
ATOM     11  C   UNL     1      36.460 -19.707 -21.067  0.00  0.00    +0.117 C 
BRANCH  11  12
ATOM     12  C   UNL     1      35.807 -18.472 -21.612  0.00  0.00    -0.003 C 
ATOM     13  C   UNL     1      35.356 -17.479 -20.741  0.00  0.00    -0.003 C 
ATOM     14  C   UNL     1      35.649 -18.314 -22.989  0.00  0.00    -0.003 C 
ATOM     15  C   UNL     1      34.592 -16.173 -22.623  0.00  0.00    +0.071 C 
ATOM     16  C   UNL     1      34.749 -16.330 -21.246  0.00  0.00    +0.004 C 
ATOM     17  C   UNL     1      35.041 -17.166 -23.494  0.00  0.00    +0.004 C 
BRANCH  15  21
ATOM     18  F   UNL     1      34.825 -13.911 -23.318  0.00  0.00    -0.166 F 
ATOM     19  F   UNL     1      33.371 -15.121 -24.392  0.00  0.00    -0.166 F 
ATOM     20  F   UNL     1      32.944 -14.457 -22.371  0.00  0.00    -0.166 F 
ATOM     21  C   UNL     1      33.944 -14.943 -23.164  0.00  0.00    +0.419 C 
ENDBRANCH  15  21
ENDBRANCH  11  12
ENDBRANCH   8  11
ENDBRANCH   3   9
BRANCH   5  22
ATOM     22  O   UNL     1      33.293 -21.615 -19.874  0.00  0.00    -0.471 OA
ATOM     23  C   UNL     1      32.601 -20.368 -19.855  0.00  0.00    +0.252 C 
ENDBRANCH   5  22
BRANCH   1  24
ATOM     24  C   UNL     1      35.165 -23.562 -14.898  0.00  0.00    +0.080 C 
BRANCH  24  29
ATOM     25  O   UNL     1      36.523 -25.557 -14.991  0.00  0.00    -0.428 OA
ATOM     26  O   UNL     1      37.665 -22.679 -13.376  0.00  0.00    -0.271 OA
ATOM     27  O   UNL     1      37.358 -27.228 -13.672  0.00  0.00    -0.226 OA
ATOM     28  N   UNL     1      37.736 -24.995 -13.217  0.00  0.00    -0.218 N 
ATOM     29  C   UNL     1      36.569 -24.120 -14.992  0.00  0.00    +0.250 C 
ATOM     30  C   UNL     1      37.388 -23.800 -13.774  0.00  0.00    +0.271 C 
ATOM     31  C   UNL     1      37.228 -26.038 -13.922  0.00  0.00    +0.408 C 
ATOM     32  H   UNL     1      38.287 -25.089 -12.407  0.00  0.00    +0.161 HD
ENDBRANCH  24  29
ENDBRANCH   1  24
TORSDOF 7
ENDMDL
MODEL 6
REMARK VINA RESULT:     -10.7      7.787     11.251
REMARK  Name = 56842109
REMARK  7 active torsions:
REMARK  status: ('A' for Active; 'I' for Inactive)
REMARK    1  A    between atoms: C_1  and  C_24
REMARK    2  A    between atoms: C_3  and  C_9
REMARK    3  A    between atoms: C_5  and  O_22
REMARK    4  A    between atoms: N_8  and  C_11
REMARK    5  A    between atoms: C_11  and  C_12
REMARK    6  A    between atoms: C_15  and  C_21
REMARK    7  A    between atoms: C_24  and  C_29
REMARK                            x       y       z     vdW  Elec       q    Type
REMARK                         _______ _______ _______ _____ _____    ______ ____
ROOT
ATOM      1  C   UNL     1      32.216 -23.298 -14.454  0.00  0.00    -0.018 C 
ATOM      2  C   UNL     1      33.370 -22.777 -15.038  0.00  0.00    +0.003 C 
ATOM      3  C   UNL     1      34.598 -23.408 -14.840  0.00  0.00    +0.087 C 
ATOM      4  C   UNL     1      32.290 -24.450 -13.672  0.00  0.00    -0.001 C 
ATOM      5  C   UNL     1      34.673 -24.560 -14.058  0.00  0.00    +0.143 C 
ATOM      6  C   UNL     1      33.518 -25.081 -13.473  0.00  0.00    +0.037 C 
ENDROOT
BRANCH   3   9
ATOM      7  O   UNL     1      36.791 -22.580 -14.774  0.00  0.00    -0.270 OA
ATOM      8  N   UNL     1      35.754 -22.655 -16.846  0.00  0.00    -0.297 N 
ATOM      9  C   UNL     1      35.791 -22.848 -15.461  0.00  0.00    +0.249 C 
ATOM     10  H   UNL     1      34.927 -22.889 -17.327  0.00  0.00    +0.150 HD
BRANCH   8  11
ATOM     11  C   UNL     1      36.864 -22.131 -17.608  0.00  0.00    +0.117 C 
BRANCH  11  12
ATOM     12  C   UNL     1      36.404 -21.326 -18.789  0.00  0.00    -0.003 C 
ATOM     13  C   UNL     1      35.092 -21.445 -19.246  0.00  0.00    -0.003 C 
ATOM     14  C   UNL     1      37.289 -20.459 -19.430  0.00  0.00    -0.003 C 
ATOM     15  C   UNL     1      35.548 -19.831 -20.983  0.00  0.00    +0.071 C 
ATOM     16  C   UNL     1      34.663 -20.698 -20.343  0.00  0.00    +0.004 C 
ATOM     17  C   UNL     1      36.862 -19.712 -20.527  0.00  0.00    +0.004 C 
BRANCH  15  21
ATOM     18  F   UNL     1      33.992 -19.566 -22.761  0.00  0.00    -0.166 F 
ATOM     19  F   UNL     1      34.742 -17.746 -21.837  0.00  0.00    -0.166 F 
ATOM     20  F   UNL     1      36.031 -18.909 -23.137  0.00  0.00    -0.166 F 
ATOM     21  C   UNL     1      35.090 -19.029 -22.154  0.00  0.00    +0.419 C 
ENDBRANCH  15  21
ENDBRANCH  11  12
ENDBRANCH   8  11
ENDBRANCH   3   9
BRANCH   5  22
ATOM     22  O   UNL     1      35.863 -25.192 -13.855  0.00  0.00    -0.471 OA
ATOM     23  C   UNL     1      36.381 -25.185 -12.526  0.00  0.00    +0.252 C 
ENDBRANCH   5  22
BRANCH   1  24
ATOM     24  C   UNL     1      30.887 -22.616 -14.669  0.00  0.00    +0.080 C 
BRANCH  24  29
ATOM     25  O   UNL     1      29.428 -22.215 -16.551  0.00  0.00    -0.428 OA
ATOM     26  O   UNL     1      29.102 -25.097 -14.608  0.00  0.00    -0.271 OA
ATOM     27  O   UNL     1      27.258 -21.722 -17.072  0.00  0.00    -0.226 OA
ATOM     28  N   UNL     1      27.830 -23.557 -15.791  0.00  0.00    -0.218 N 
ATOM     29  C   UNL     1      30.106 -23.241 -15.806  0.00  0.00    +0.250 C 
ATOM     30  C   UNL     1      28.982 -24.106 -15.310  0.00  0.00    +0.271 C 
ATOM     31  C   UNL     1      28.080 -22.439 -16.519  0.00  0.00    +0.408 C 
ATOM     32  H   UNL     1      26.931 -23.924 -15.630  0.00  0.00    +0.161 HD
ENDBRANCH  24  29
ENDBRANCH   1  24
TORSDOF 7
ENDMDL
MODEL 7
REMARK VINA RESULT:     -10.7      7.652     11.132
REMARK  Name = 56842109
REMARK  7 active torsions:
REMARK  status: ('A' for Active; 'I' for Inactive)
REMARK    1  A    between atoms: C_1  and  C_24
REMARK    2  A    between atoms: C_3  and  C_9
REMARK    3  A    between atoms: C_5  and  O_22
REMARK    4  A    between atoms: N_8  and  C_11
REMARK    5  A    between atoms: C_11  and  C_12
REMARK    6  A    between atoms: C_15  and  C_21
REMARK    7  A    between atoms: C_24  and  C_29
REMARK                            x       y       z     vdW  Elec       q    Type
REMARK                         _______ _______ _______ _____ _____    ______ ____
ROOT
ATOM      1  C   UNL     1      37.628 -25.088 -13.953  0.00  0.00    -0.018 C 
ATOM      2  C   UNL     1      36.421 -24.602 -14.456  0.00  0.00    +0.003 C 
ATOM      3  C   UNL     1      36.424 -23.626 -15.453  0.00  0.00    +0.087 C 
ATOM      4  C   UNL     1      38.836 -24.599 -14.447  0.00  0.00    -0.001 C 
ATOM      5  C   UNL     1      37.632 -23.137 -15.947  0.00  0.00    +0.143 C 
ATOM      6  C   UNL     1      38.839 -23.623 -15.444  0.00  0.00    +0.037 C 
ENDROOT
BRANCH   3   9
ATOM      7  O   UNL     1      34.258 -22.771 -15.184  0.00  0.00    -0.270 OA
ATOM      8  N   UNL     1      35.010 -23.073 -17.357  0.00  0.00    -0.297 N 
ATOM      9  C   UNL     1      35.152 -23.134 -15.966  0.00  0.00    +0.249 C 
ATOM     10  H   UNL     1      35.761 -23.379 -17.916  0.00  0.00    +0.150 HD
BRANCH   8  11
ATOM     11  C   UNL     1      33.820 -22.587 -18.016  0.00  0.00    +0.117 C 
BRANCH  11  12
ATOM     12  C   UNL     1      34.142 -21.610 -19.108  0.00  0.00    -0.003 C 
ATOM     13  C   UNL     1      35.469 -21.383 -19.472  0.00  0.00    -0.003 C 
ATOM     14  C   UNL     1      33.114 -20.928 -19.761  0.00  0.00    -0.003 C 
ATOM     15  C   UNL     1      34.742 -19.794 -21.139  0.00  0.00    +0.071 C 
ATOM     16  C   UNL     1      35.770 -20.475 -20.487  0.00  0.00    +0.004 C 
ATOM     17  C   UNL     1      33.414 -20.020 -20.775  0.00  0.00    +0.004 C 
BRANCH  15  21
ATOM     18  F   UNL     1      36.385 -18.836 -22.567  0.00  0.00    -0.166 F 
ATOM     19  F   UNL     1      34.384 -19.063 -23.389  0.00  0.00    -0.166 F 
ATOM     20  F   UNL     1      34.777 -17.529 -21.907  0.00  0.00    -0.166 F 
ATOM     21  C   UNL     1      35.063 -18.825 -22.227  0.00  0.00    +0.419 C 
ENDBRANCH  15  21
ENDBRANCH  11  12
ENDBRANCH   8  11
ENDBRANCH   3   9
BRANCH   5  22
ATOM     22  O   UNL     1      37.656 -22.186 -16.924  0.00  0.00    -0.471 OA
ATOM     23  C   UNL     1      37.815 -20.832 -16.504  0.00  0.00    +0.252 C 
ENDBRANCH   5  22
BRANCH   1  24
ATOM     24  C   UNL     1      37.624 -26.144 -12.875  0.00  0.00    +0.080 C 
BRANCH  24  29
ATOM     25  O   UNL     1      35.823 -25.392 -11.453  0.00  0.00    -0.428 OA
ATOM     26  O   UNL     1      38.963 -23.870 -11.331  0.00  0.00    -0.271 OA
ATOM     27  O   UNL     1      34.406 -23.628 -11.125  0.00  0.00    -0.226 OA
ATOM     28  N   UNL     1      36.702 -23.375 -11.151  0.00  0.00    -0.218 N 
ATOM     29  C   UNL     1      37.247 -25.575 -11.523  0.00  0.00    +0.250 C 
ATOM     30  C   UNL     1      37.784 -24.186 -11.325  0.00  0.00    +0.271 C 
ATOM     31  C   UNL     1      35.540 -24.073 -11.230  0.00  0.00    +0.408 C 
ATOM     32  H   UNL     1      36.756 -22.405 -10.989  0.00  0.00    +0.161 HD
ENDBRANCH  24  29
ENDBRANCH   1  24
TORSDOF 7
ENDMDL
MODEL 8
REMARK VINA RESULT:     -10.7      1.980      2.599
REMARK  Name = 56842109
REMARK  7 active torsions:
REMARK  status: ('A' for Active; 'I' for Inactive)
REMARK    1  A    between atoms: C_1  and  C_24
REMARK    2  A    between atoms: C_3  and  C_9
REMARK    3  A    between atoms: C_5  and  O_22
REMARK    4  A    between atoms: N_8  and  C_11
REMARK    5  A    between atoms: C_11  and  C_12
REMARK    6  A    between atoms: C_15  and  C_21
REMARK    7  A    between atoms: C_24  and  C_29
REMARK                            x       y       z     vdW  Elec       q    Type
REMARK                         _______ _______ _______ _____ _____    ______ ____
ROOT
ATOM      1  C   UNL     1      34.712 -16.098 -21.760  0.00  0.00    -0.018 C 
ATOM      2  C   UNL     1      33.907 -15.052 -21.307  0.00  0.00    +0.003 C 
ATOM      3  C   UNL     1      33.368 -14.142 -22.217  0.00  0.00    +0.087 C 
ATOM      4  C   UNL     1      34.976 -16.233 -23.123  0.00  0.00    -0.001 C 
ATOM      5  C   UNL     1      33.632 -14.278 -23.579  0.00  0.00    +0.143 C 
ATOM      6  C   UNL     1      34.437 -15.324 -24.033  0.00  0.00    +0.037 C 
ENDROOT
BRANCH   3   9
ATOM      7  O   UNL     1      31.667 -13.277 -20.855  0.00  0.00    -0.270 OA
ATOM      8  N   UNL     1      32.760 -11.785 -22.254  0.00  0.00    -0.297 N 
ATOM      9  C   UNL     1      32.529 -13.059 -21.723  0.00  0.00    +0.249 C 
ATOM     10  H   UNL     1      33.459 -11.686 -22.940  0.00  0.00    +0.150 HD
BRANCH   8  11
ATOM     11  C   UNL     1      32.026 -10.608 -21.848  0.00  0.00    +0.117 C 
BRANCH  11  12
ATOM     12  C   UNL     1      32.501  -9.376 -22.563  0.00  0.00    -0.003 C 
ATOM     13  C   UNL     1      33.819  -9.297 -23.014  0.00  0.00    -0.003 C 
ATOM     14  C   UNL     1      31.626  -8.311 -22.775  0.00  0.00    -0.003 C 
ATOM     15  C   UNL     1      33.386  -7.089 -23.891  0.00  0.00    +0.071 C 
ATOM     16  C   UNL     1      34.262  -8.153 -23.678  0.00  0.00    +0.004 C 
ATOM     17  C   UNL     1      32.069  -7.167 -23.439  0.00  0.00    +0.004 C 
BRANCH  15  21
ATOM     18  F   UNL     1      33.267  -4.727 -24.140  0.00  0.00    -0.166 F 
ATOM     19  F   UNL     1      35.203  -5.652 -24.491  0.00  0.00    -0.166 F 
ATOM     20  F   UNL     1      33.613  -5.887 -25.947  0.00  0.00    -0.166 F 
ATOM     21  C   UNL     1      33.858  -5.867 -24.603  0.00  0.00    +0.419 C 
ENDBRANCH  15  21
ENDBRANCH  11  12
ENDBRANCH   8  11
ENDBRANCH   3   9
BRANCH   5  22
ATOM     22  O   UNL     1      33.112 -13.401 -24.484  0.00  0.00    -0.471 OA
ATOM     23  C   UNL     1      33.144 -13.792 -25.856  0.00  0.00    +0.252 C 
ENDBRANCH   5  22
BRANCH   1  24
ATOM     24  C   UNL     1      35.294 -17.082 -20.776  0.00  0.00    +0.080 C 
BRANCH  24  29
ATOM     25  O   UNL     1      34.425 -19.334 -20.845  0.00  0.00    -0.428 OA
ATOM     26  O   UNL     1      37.846 -18.718 -21.173  0.00  0.00    -0.271 OA
ATOM     27  O   UNL     1      34.385 -21.285 -19.654  0.00  0.00    -0.226 OA
ATOM     28  N   UNL     1      36.361 -20.260 -20.274  0.00  0.00    -0.218 N 
ATOM     29  C   UNL     1      35.441 -18.465 -21.374  0.00  0.00    +0.250 C 
ATOM     30  C   UNL     1      36.719 -19.131 -20.950  0.00  0.00    +0.271 C 
ATOM     31  C   UNL     1      35.011 -20.387 -20.200  0.00  0.00    +0.408 C 
ATOM     32  H   UNL     1      37.000 -20.901 -19.887  0.00  0.00    +0.161 HD
ENDBRANCH  24  29
ENDBRANCH   1  24
TORSDOF 7
ENDMDL
MODEL 9
REMARK VINA RESULT:     -10.6      6.113     10.219
REMARK  Name = 56842109
REMARK  7 active torsions:
REMARK  status: ('A' for Active; 'I' for Inactive)
REMARK    1  A    between atoms: C_1  and  C_24
REMARK    2  A    between atoms: C_3  and  C_9
REMARK    3  A    between atoms: C_5  and  O_22
REMARK    4  A    between atoms: N_8  and  C_11
REMARK    5  A    between atoms: C_11  and  C_12
REMARK    6  A    between atoms: C_15  and  C_21
REMARK    7  A    between atoms: C_24  and  C_29
REMARK                            x       y       z     vdW  Elec       q    Type
REMARK                         _______ _______ _______ _____ _____    ______ ____
ROOT
ATOM      1  C   UNL     1      34.867 -15.937 -22.279  0.00  0.00    -0.018 C 
ATOM      2  C   UNL     1      35.456 -16.833 -21.387  0.00  0.00    +0.003 C 
ATOM      3  C   UNL     1      35.723 -18.142 -21.789  0.00  0.00    +0.087 C 
ATOM      4  C   UNL     1      34.546 -16.349 -23.571  0.00  0.00    -0.001 C 
ATOM      5  C   UNL     1      35.402 -18.555 -23.081  0.00  0.00    +0.143 C 
ATOM      6  C   UNL     1      34.812 -17.658 -23.973  0.00  0.00    +0.037 C 
ENDROOT
BRANCH   3   9
ATOM      7  O   UNL     1      37.389 -18.748 -20.254  0.00  0.00    -0.270 OA
ATOM      8  N   UNL     1      35.687 -20.280 -20.623  0.00  0.00    -0.297 N 
ATOM      9  C   UNL     1      36.340 -19.062 -20.842  0.00  0.00    +0.249 C 
ATOM     10  H   UNL     1      34.860 -20.462 -21.125  0.00  0.00    +0.150 HD
BRANCH   8  11
ATOM     11  C   UNL     1      36.162 -21.284 -19.698  0.00  0.00    +0.117 C 
BRANCH  11  12
ATOM     12  C   UNL     1      35.074 -21.764 -18.782  0.00  0.00    -0.003 C 
ATOM     13  C   UNL     1      33.736 -21.579 -19.132  0.00  0.00    -0.003 C 
ATOM     14  C   UNL     1      35.400 -22.395 -17.582  0.00  0.00    -0.003 C 
ATOM     15  C   UNL     1      33.051 -22.655 -17.082  0.00  0.00    +0.071 C 
ATOM     16  C   UNL     1      32.724 -22.024 -18.282  0.00  0.00    +0.004 C 
ATOM     17  C   UNL     1      34.389 -22.840 -16.731  0.00  0.00    +0.004 C 
BRANCH  15  21
ATOM     18  F   UNL     1      32.154 -22.735 -14.881  0.00  0.00    -0.166 F 
ATOM     19  F   UNL     1      30.725 -22.689 -16.520  0.00  0.00    -0.166 F 
ATOM     20  F   UNL     1      31.859 -24.495 -16.124  0.00  0.00    -0.166 F 
ATOM     21  C   UNL     1      31.970 -23.135 -16.173  0.00  0.00    +0.419 C 
ENDBRANCH  15  21
ENDBRANCH  11  12
ENDBRANCH   8  11
ENDBRANCH   3   9
BRANCH   5  22
ATOM     22  O   UNL     1      35.657 -19.829 -23.493  0.00  0.00    -0.471 OA
ATOM     23  C   UNL     1      34.901 -20.315 -24.600  0.00  0.00    +0.252 C 
ENDBRANCH   5  22
BRANCH   1  24
ATOM     24  C   UNL     1      34.580 -14.521 -21.845  0.00  0.00    +0.080 C 
BRANCH  24  29
ATOM     25  O   UNL     1      32.953 -12.838 -22.438  0.00  0.00    -0.428 OA
ATOM     26  O   UNL     1      32.354 -15.073 -19.823  0.00  0.00    -0.271 OA
ATOM     27  O   UNL     1      31.997 -10.909 -21.667  0.00  0.00    -0.226 OA
ATOM     28  N   UNL     1      31.971 -12.870 -20.445  0.00  0.00    -0.218 N 
ATOM     29  C   UNL     1      33.108 -14.181 -21.950  0.00  0.00    +0.250 C 
ATOM     30  C   UNL     1      32.440 -14.140 -20.605  0.00  0.00    +0.271 C 
ATOM     31  C   UNL     1      32.273 -12.091 -21.516  0.00  0.00    +0.408 C 
ATOM     32  H   UNL     1      31.477 -12.556 -19.653  0.00  0.00    +0.161 HD
ENDBRANCH  24  29
ENDBRANCH   1  24
TORSDOF 7
ENDMDL
