MODEL 1
REMARK VINA RESULT:     -11.6      0.000      0.000
REMARK  Name = 10224181
REMARK  7 active torsions:
REMARK  status: ('A' for Active; 'I' for Inactive)
REMARK    1  A    between atoms: N_3  and  C_23
REMARK    2  A    between atoms: C_12  and  C_14
REMARK    3  A    between atoms: C_15  and  C_16
REMARK    4  A    between atoms: C_16  and  C_17
REMARK    5  A    between atoms: C_23  and  C_24
REMARK    6  A    between atoms: C_29  and  C_31
REMARK    7  A    between atoms: C_31  and  O_32
REMARK                            x       y       z     vdW  Elec       q    Type
REMARK                         _______ _______ _______ _____ _____    ______ ____
ROOT
ATOM      1  O   UNL     1      35.375 -16.628 -19.899  0.00  0.00    -0.267 OA
ATOM      2  O   UNL     1      36.108 -18.895 -23.890  0.00  0.00    -0.246 OA
ATOM      3  N   UNL     1      35.759 -17.787 -21.888  0.00  0.00    -0.244 N 
ATOM      4  N   UNL     1      34.826 -16.965 -23.926  0.00  0.00    -0.279 N 
ATOM      5  C   UNL     1      34.240 -15.872 -23.222  0.00  0.00    +0.069 A 
ATOM      6  C   UNL     1      34.425 -15.752 -21.844  0.00  0.00    +0.073 A 
ATOM      7  C   UNL     1      35.224 -16.750 -21.113  0.00  0.00    +0.266 A 
ATOM      8  C   UNL     1      35.598 -17.946 -23.283  0.00  0.00    +0.334 A 
ATOM      9  C   UNL     1      33.857 -14.683 -21.132  0.00  0.00    +0.014 C 
ATOM     10  C   UNL     1      33.469 -14.893 -23.874  0.00  0.00    +0.018 C 
ATOM     11  C   UNL     1      34.616 -17.067 -25.370  0.00  0.00    +0.135 C 
ATOM     12  C   UNL     1      33.097 -13.724 -21.796  0.00  0.00    +0.042 C 
ATOM     13  C   UNL     1      32.904 -13.829 -23.167  0.00  0.00    +0.010 C 
ENDROOT
BRANCH  12  14
ATOM     14  C   UNL     1      32.520 -12.638 -21.070  0.00  0.00    -0.064 C 
ATOM     15  C   UNL     1      32.033 -11.719 -20.462  0.00  0.00    -0.082 C 
BRANCH  15  16
ATOM     16  C   UNL     1      31.441 -10.598 -19.723  0.00  0.00    +0.103 C 
BRANCH  16  17
ATOM     17  C   UNL     1      31.789  -9.268 -20.342  0.00  0.00    -0.009 C 
ATOM     18  C   UNL     1      32.244  -8.237 -19.534  0.00  0.00    -0.003 C 
ATOM     19  C   UNL     1      31.650  -9.097 -21.712  0.00  0.00    -0.003 C 
ATOM     20  C   UNL     1      32.567  -7.008 -20.107  0.00  0.00    -0.000 C 
ATOM     21  C   UNL     1      31.973  -7.867 -22.285  0.00  0.00    -0.000 C 
ATOM     22  C   UNL     1      32.431  -6.823 -21.483  0.00  0.00    -0.000 C 
ENDBRANCH  16  17
ENDBRANCH  15  16
ENDBRANCH  12  14
BRANCH   3  23
ATOM     23  C   UNL     1      36.558 -18.793 -21.192  0.00  0.00    +0.140 C 
BRANCH  23  24
ATOM     24  C   UNL     1      35.695 -19.807 -20.490  0.00  0.00    +0.001 C 
ATOM     25  C   UNL     1      36.288 -20.760 -19.673  0.00  0.00    -0.002 C 
ATOM     26  C   UNL     1      34.319 -19.774 -20.669  0.00  0.00    -0.002 C 
ATOM     27  C   UNL     1      35.488 -21.699 -19.022  0.00  0.00    +0.006 C 
ATOM     28  C   UNL     1      33.519 -20.714 -20.018  0.00  0.00    +0.006 C 
ATOM     29  C   UNL     1      34.104 -21.677 -19.195  0.00  0.00    +0.075 C 
BRANCH  29  31
ATOM     30  O   UNL     1      32.244 -22.402 -17.877  0.00  0.00    -0.245 OA
ATOM     31  C   UNL     1      33.270 -22.656 -18.516  0.00  0.00    +0.338 C 
BRANCH  31  32
ATOM     32  O   UNL     1      33.741 -23.926 -18.653  0.00  0.00    -0.477 OA
ATOM     33  H   UNL     1      33.440 -24.601 -18.078  0.00  0.00    +0.295 HD
ENDBRANCH  31  32
ENDBRANCH  29  31
ENDBRANCH  23  24
ENDBRANCH   3  23
TORSDOF 7
ENDMDL
MODEL 2
REMARK VINA RESULT:     -11.6      5.318      9.301
REMARK  Name = 10224181
REMARK  7 active torsions:
REMARK  status: ('A' for Active; 'I' for Inactive)
REMARK    1  A    between atoms: N_3  and  C_23
REMARK    2  A    between atoms: C_12  and  C_14
REMARK    3  A    between atoms: C_15  and  C_16
REMARK    4  A    between atoms: C_16  and  C_17
REMARK    5  A    between atoms: C_23  and  C_24
REMARK    6  A    between atoms: C_29  and  C_31
REMARK    7  A    between atoms: C_31  and  O_32
REMARK                            x       y       z     vdW  Elec       q    Type
REMARK                         _______ _______ _______ _____ _____    ______ ____
ROOT
ATOM      1  O   UNL     1      32.391 -23.656 -16.902  0.00  0.00    -0.267 OA
ATOM      2  O   UNL     1      34.866 -24.531 -13.067  0.00  0.00    -0.246 OA
ATOM      3  N   UNL     1      33.610 -24.110 -14.965  0.00  0.00    -0.244 N 
ATOM      4  N   UNL     1      35.857 -23.325 -14.779  0.00  0.00    -0.279 N 
ATOM      5  C   UNL     1      35.763 -22.739 -16.076  0.00  0.00    +0.069 A 
ATOM      6  C   UNL     1      34.579 -22.850 -16.807  0.00  0.00    +0.073 A 
ATOM      7  C   UNL     1      33.425 -23.569 -16.243  0.00  0.00    +0.266 A 
ATOM      8  C   UNL     1      34.789 -24.022 -14.191  0.00  0.00    +0.334 A 
ATOM      9  C   UNL     1      34.467 -22.279 -18.085  0.00  0.00    +0.014 C 
ATOM     10  C   UNL     1      36.838 -22.042 -16.658  0.00  0.00    +0.018 C 
ATOM     11  C   UNL     1      37.110 -23.195 -14.036  0.00  0.00    +0.135 C 
ATOM     12  C   UNL     1      35.542 -21.594 -18.644  0.00  0.00    +0.042 C 
ATOM     13  C   UNL     1      36.727 -21.475 -17.930  0.00  0.00    +0.010 C 
ENDROOT
BRANCH  12  14
ATOM     14  C   UNL     1      35.425 -21.014 -19.944  0.00  0.00    -0.064 C 
ATOM     15  C   UNL     1      35.329 -20.522 -21.040  0.00  0.00    -0.082 C 
BRANCH  15  16
ATOM     16  C   UNL     1      35.212 -19.920 -22.373  0.00  0.00    +0.103 C 
BRANCH  16  17
ATOM     17  C   UNL     1      35.062 -18.421 -22.303  0.00  0.00    -0.009 C 
ATOM     18  C   UNL     1      35.038 -17.682 -23.476  0.00  0.00    -0.003 C 
ATOM     19  C   UNL     1      34.950 -17.804 -21.065  0.00  0.00    -0.003 C 
ATOM     20  C   UNL     1      34.898 -16.296 -23.411  0.00  0.00    -0.000 C 
ATOM     21  C   UNL     1      34.812 -16.418 -21.000  0.00  0.00    -0.000 C 
ATOM     22  C   UNL     1      34.786 -15.664 -22.173  0.00  0.00    -0.000 C 
ENDBRANCH  16  17
ENDBRANCH  15  16
ENDBRANCH  12  14
BRANCH   3  23
ATOM     23  C   UNL     1      32.482 -24.829 -14.378  0.00  0.00    +0.140 C 
BRANCH  23  24
ATOM     24  C   UNL     1      31.165 -24.194 -14.733  0.00  0.00    +0.001 C 
ATOM     25  C   UNL     1      30.204 -24.941 -15.402  0.00  0.00    -0.002 C 
ATOM     26  C   UNL     1      30.928 -22.871 -14.387  0.00  0.00    -0.002 C 
ATOM     27  C   UNL     1      28.983 -24.352 -15.731  0.00  0.00    +0.006 C 
ATOM     28  C   UNL     1      29.708 -22.282 -14.716  0.00  0.00    +0.006 C 
ATOM     29  C   UNL     1      28.735 -23.023 -15.388  0.00  0.00    +0.075 C 
BRANCH  29  31
ATOM     30  O   UNL     1      26.421 -22.502 -15.071  0.00  0.00    -0.245 OA
ATOM     31  C   UNL     1      27.461 -22.409 -15.731  0.00  0.00    +0.338 C 
BRANCH  31  32
ATOM     32  O   UNL     1      27.522 -21.696 -16.889  0.00  0.00    -0.477 OA
ATOM     33  H   UNL     1      26.733 -21.397 -17.296  0.00  0.00    +0.295 HD
ENDBRANCH  31  32
ENDBRANCH  29  31
ENDBRANCH  23  24
ENDBRANCH   3  23
TORSDOF 7
ENDMDL
MODEL 3
REMARK VINA RESULT:     -11.1      5.689      9.823
REMARK  Name = 10224181
REMARK  7 active torsions:
REMARK  status: ('A' for Active; 'I' for Inactive)
REMARK    1  A    between atoms: N_3  and  C_23
REMARK    2  A    between atoms: C_12  and  C_14
REMARK    3  A    between atoms: C_15  and  C_16
REMARK    4  A    between atoms: C_16  and  C_17
REMARK    5  A    between atoms: C_23  and  C_24
REMARK    6  A    between atoms: C_29  and  C_31
REMARK    7  A    between atoms: C_31  and  O_32
REMARK                            x       y       z     vdW  Elec       q    Type
REMARK                         _______ _______ _______ _____ _____    ______ ____
ROOT
ATOM      1  O   UNL     1      36.579 -23.023 -15.012  0.00  0.00    -0.267 OA
ATOM      2  O   UNL     1      32.728 -24.827 -13.137  0.00  0.00    -0.246 OA
ATOM      3  N   UNL     1      34.662 -23.937 -14.046  0.00  0.00    -0.244 N 
ATOM      4  N   UNL     1      32.591 -23.848 -15.232  0.00  0.00    -0.279 N 
ATOM      5  C   UNL     1      33.235 -23.177 -16.313  0.00  0.00    +0.069 A 
ATOM      6  C   UNL     1      34.600 -22.892 -16.243  0.00  0.00    +0.073 A 
ATOM      7  C   UNL     1      35.379 -23.283 -15.056  0.00  0.00    +0.266 A 
ATOM      8  C   UNL     1      33.283 -24.245 -14.076  0.00  0.00    +0.334 A 
ATOM      9  C   UNL     1      35.253 -22.233 -17.297  0.00  0.00    +0.014 C 
ATOM     10  C   UNL     1      32.536 -22.783 -17.468  0.00  0.00    +0.018 C 
ATOM     11  C   UNL     1      31.160 -24.133 -15.331  0.00  0.00    +0.135 C 
ATOM     12  C   UNL     1      34.543 -21.851 -18.432  0.00  0.00    +0.042 C 
ATOM     13  C   UNL     1      33.184 -22.127 -18.517  0.00  0.00    +0.010 C 
ENDROOT
BRANCH  12  14
ATOM     14  C   UNL     1      35.208 -21.180 -19.503  0.00  0.00    -0.064 C 
ATOM     15  C   UNL     1      35.773 -20.614 -20.405  0.00  0.00    -0.082 C 
BRANCH  15  16
ATOM     16  C   UNL     1      36.463 -19.924 -21.500  0.00  0.00    +0.103 C 
BRANCH  16  17
ATOM     17  C   UNL     1      35.796 -18.619 -21.853  0.00  0.00    -0.009 C 
ATOM     18  C   UNL     1      35.498 -17.712 -20.847  0.00  0.00    -0.003 C 
ATOM     19  C   UNL     1      35.492 -18.345 -23.178  0.00  0.00    -0.003 C 
ATOM     20  C   UNL     1      34.882 -16.504 -21.173  0.00  0.00    -0.000 C 
ATOM     21  C   UNL     1      34.875 -17.138 -23.504  0.00  0.00    -0.000 C 
ATOM     22  C   UNL     1      34.570 -16.217 -22.503  0.00  0.00    -0.000 C 
ENDBRANCH  16  17
ENDBRANCH  15  16
ENDBRANCH  12  14
BRANCH   3  23
ATOM     23  C   UNL     1      35.407 -24.338 -12.855  0.00  0.00    +0.140 C 
BRANCH  23  24
ATOM     24  C   UNL     1      36.759 -24.900 -13.202  0.00  0.00    +0.001 C 
ATOM     25  C   UNL     1      36.851 -25.949 -14.108  0.00  0.00    -0.002 C 
ATOM     26  C   UNL     1      37.895 -24.363 -12.614  0.00  0.00    -0.002 C 
ATOM     27  C   UNL     1      38.104 -26.469 -14.430  0.00  0.00    +0.006 C 
ATOM     28  C   UNL     1      39.148 -24.883 -12.936  0.00  0.00    +0.006 C 
ATOM     29  C   UNL     1      39.253 -25.937 -13.844  0.00  0.00    +0.075 C 
BRANCH  29  31
ATOM     30  O   UNL     1      41.344 -27.003 -13.382  0.00  0.00    -0.245 OA
ATOM     31  C   UNL     1      40.560 -26.480 -14.180  0.00  0.00    +0.338 C 
BRANCH  31  32
ATOM     32  O   UNL     1      40.852 -26.353 -15.504  0.00  0.00    -0.477 OA
ATOM     33  H   UNL     1      40.238 -26.644 -16.148  0.00  0.00    +0.295 HD
ENDBRANCH  31  32
ENDBRANCH  29  31
ENDBRANCH  23  24
ENDBRANCH   3  23
TORSDOF 7
ENDMDL
MODEL 4
REMARK VINA RESULT:     -10.3      0.626      1.153
REMARK  Name = 10224181
REMARK  7 active torsions:
REMARK  status: ('A' for Active; 'I' for Inactive)
REMARK    1  A    between atoms: N_3  and  C_23
REMARK    2  A    between atoms: C_12  and  C_14
REMARK    3  A    between atoms: C_15  and  C_16
REMARK    4  A    between atoms: C_16  and  C_17
REMARK    5  A    between atoms: C_23  and  C_24
REMARK    6  A    between atoms: C_29  and  C_31
REMARK    7  A    between atoms: C_31  and  O_32
REMARK                            x       y       z     vdW  Elec       q    Type
REMARK                         _______ _______ _______ _____ _____    ______ ____
ROOT
ATOM      1  O   UNL     1      35.312 -16.122 -20.036  0.00  0.00    -0.267 OA
ATOM      2  O   UNL     1      36.158 -18.912 -23.656  0.00  0.00    -0.246 OA
ATOM      3  N   UNL     1      35.753 -17.541 -21.836  0.00  0.00    -0.244 N 
ATOM      4  N   UNL     1      34.852 -17.027 -23.986  0.00  0.00    -0.279 N 
ATOM      5  C   UNL     1      34.237 -15.856 -23.453  0.00  0.00    +0.069 A 
ATOM      6  C   UNL     1      34.391 -15.542 -22.101  0.00  0.00    +0.073 A 
ATOM      7  C   UNL     1      35.188 -16.415 -21.224  0.00  0.00    +0.266 A 
ATOM      8  C   UNL     1      35.623 -17.896 -23.197  0.00  0.00    +0.334 A 
ATOM      9  C   UNL     1      33.795 -14.393 -21.557  0.00  0.00    +0.014 C 
ATOM     10  C   UNL     1      33.467 -14.990 -24.250  0.00  0.00    +0.018 C 
ATOM     11  C   UNL     1      34.673 -17.333 -25.405  0.00  0.00    +0.135 C 
ATOM     12  C   UNL     1      33.036 -13.549 -22.363  0.00  0.00    +0.042 C 
ATOM     13  C   UNL     1      32.873 -13.847 -23.709  0.00  0.00    +0.010 C 
ENDROOT
BRANCH  12  14
ATOM     14  C   UNL     1      32.430 -12.380 -21.807  0.00  0.00    -0.064 C 
ATOM     15  C   UNL     1      31.920 -11.393 -21.342  0.00  0.00    -0.082 C 
BRANCH  15  16
ATOM     16  C   UNL     1      31.301 -10.189 -20.777  0.00  0.00    +0.103 C 
BRANCH  16  17
ATOM     17  C   UNL     1      31.945  -8.928 -21.296  0.00  0.00    -0.009 C 
ATOM     18  C   UNL     1      32.732  -8.983 -22.436  0.00  0.00    -0.003 C 
ATOM     19  C   UNL     1      31.739  -7.732 -20.625  0.00  0.00    -0.003 C 
ATOM     20  C   UNL     1      33.327  -7.817 -22.916  0.00  0.00    -0.000 C 
ATOM     21  C   UNL     1      32.334  -6.565 -21.104  0.00  0.00    -0.000 C 
ATOM     22  C   UNL     1      33.128  -6.608 -22.250  0.00  0.00    -0.000 C 
ENDBRANCH  16  17
ENDBRANCH  15  16
ENDBRANCH  12  14
BRANCH   3  23
ATOM     23  C   UNL     1      36.550 -18.427 -20.991  0.00  0.00    +0.140 C 
BRANCH  23  24
ATOM     24  C   UNL     1      35.729 -19.558 -20.432  0.00  0.00    +0.001 C 
ATOM     25  C   UNL     1      36.358 -20.575 -19.727  0.00  0.00    -0.002 C 
ATOM     26  C   UNL     1      34.356 -19.568 -20.629  0.00  0.00    -0.002 C 
ATOM     27  C   UNL     1      35.597 -21.623 -19.209  0.00  0.00    +0.006 C 
ATOM     28  C   UNL     1      33.595 -20.616 -20.111  0.00  0.00    +0.006 C 
ATOM     29  C   UNL     1      34.216 -21.644 -19.401  0.00  0.00    +0.075 C 
BRANCH  29  31
ATOM     30  O   UNL     1      33.629 -23.938 -19.061  0.00  0.00    -0.245 OA
ATOM     31  C   UNL     1      33.422 -22.737 -18.860  0.00  0.00    +0.338 C 
BRANCH  31  32
ATOM     32  O   UNL     1      32.393 -22.299 -18.085  0.00  0.00    -0.477 OA
ATOM     33  H   UNL     1      32.206 -21.382 -18.030  0.00  0.00    +0.295 HD
ENDBRANCH  31  32
ENDBRANCH  29  31
ENDBRANCH  23  24
ENDBRANCH   3  23
TORSDOF 7
ENDMDL
MODEL 5
REMARK VINA RESULT:     -10.2      4.935      8.430
REMARK  Name = 10224181
REMARK  7 active torsions:
REMARK  status: ('A' for Active; 'I' for Inactive)
REMARK    1  A    between atoms: N_3  and  C_23
REMARK    2  A    between atoms: C_12  and  C_14
REMARK    3  A    between atoms: C_15  and  C_16
REMARK    4  A    between atoms: C_16  and  C_17
REMARK    5  A    between atoms: C_23  and  C_24
REMARK    6  A    between atoms: C_29  and  C_31
REMARK    7  A    between atoms: C_31  and  O_32
REMARK                            x       y       z     vdW  Elec       q    Type
REMARK                         _______ _______ _______ _____ _____    ______ ____
ROOT
ATOM      1  O   UNL     1      37.819 -21.979 -17.553  0.00  0.00    -0.267 OA
ATOM      2  O   UNL     1      34.939 -24.513 -14.929  0.00  0.00    -0.246 OA
ATOM      3  N   UNL     1      36.397 -23.260 -16.219  0.00  0.00    -0.244 N 
ATOM      4  N   UNL     1      34.058 -23.302 -16.696  0.00  0.00    -0.279 N 
ATOM      5  C   UNL     1      34.263 -22.417 -17.796  0.00  0.00    +0.069 A 
ATOM      6  C   UNL     1      35.549 -21.961 -18.093  0.00  0.00    +0.073 A 
ATOM      7  C   UNL     1      36.695 -22.391 -17.276  0.00  0.00    +0.266 A 
ATOM      8  C   UNL     1      35.113 -23.746 -15.883  0.00  0.00    +0.334 A 
ATOM      9  C   UNL     1      35.771 -21.090 -19.172  0.00  0.00    +0.014 C 
ATOM     10  C   UNL     1      33.201 -21.978 -18.607  0.00  0.00    +0.018 C 
ATOM     11  C   UNL     1      32.701 -23.763 -16.407  0.00  0.00    +0.135 C 
ATOM     12  C   UNL     1      34.707 -20.667 -19.963  0.00  0.00    +0.042 C 
ATOM     13  C   UNL     1      33.422 -21.111 -19.680  0.00  0.00    +0.010 C 
ENDROOT
BRANCH  12  14
ATOM     14  C   UNL     1      34.936 -19.781 -21.060  0.00  0.00    -0.064 C 
ATOM     15  C   UNL     1      35.132 -19.033 -21.984  0.00  0.00    -0.082 C 
BRANCH  15  16
ATOM     16  C   UNL     1      35.375 -18.122 -23.108  0.00  0.00    +0.103 C 
BRANCH  16  17
ATOM     17  C   UNL     1      34.921 -16.718 -22.803  0.00  0.00    -0.009 C 
ATOM     18  C   UNL     1      34.857 -16.292 -21.485  0.00  0.00    -0.003 C 
ATOM     19  C   UNL     1      34.576 -15.871 -23.847  0.00  0.00    -0.003 C 
ATOM     20  C   UNL     1      34.438 -14.992 -21.203  0.00  0.00    -0.000 C 
ATOM     21  C   UNL     1      34.156 -14.571 -23.565  0.00  0.00    -0.000 C 
ATOM     22  C   UNL     1      34.087 -14.132 -22.243  0.00  0.00    -0.000 C 
ENDBRANCH  16  17
ENDBRANCH  15  16
ENDBRANCH  12  14
BRANCH   3  23
ATOM     23  C   UNL     1      37.514 -23.705 -15.389  0.00  0.00    +0.140 C 
BRANCH  23  24
ATOM     24  C   UNL     1      37.091 -23.955 -13.966  0.00  0.00    +0.001 C 
ATOM     25  C   UNL     1      37.075 -25.254 -13.476  0.00  0.00    -0.002 C 
ATOM     26  C   UNL     1      36.725 -22.884 -13.164  0.00  0.00    -0.002 C 
ATOM     27  C   UNL     1      36.684 -25.486 -12.158  0.00  0.00    +0.006 C 
ATOM     28  C   UNL     1      36.334 -23.115 -11.845  0.00  0.00    +0.006 C 
ATOM     29  C   UNL     1      36.314 -24.417 -11.342  0.00  0.00    +0.075 C 
BRANCH  29  31
ATOM     30  O   UNL     1      35.100 -25.519  -9.600  0.00  0.00    -0.245 OA
ATOM     31  C   UNL     1      35.906 -24.658  -9.966  0.00  0.00    +0.338 C 
BRANCH  31  32
ATOM     32  O   UNL     1      36.516 -23.816  -9.087  0.00  0.00    -0.477 OA
ATOM     33  H   UNL     1      36.697 -22.931  -9.336  0.00  0.00    +0.295 HD
ENDBRANCH  31  32
ENDBRANCH  29  31
ENDBRANCH  23  24
ENDBRANCH   3  23
TORSDOF 7
ENDMDL
MODEL 6
REMARK VINA RESULT:      -9.9      5.967     12.402
REMARK  Name = 10224181
REMARK  7 active torsions:
REMARK  status: ('A' for Active; 'I' for Inactive)
REMARK    1  A    between atoms: N_3  and  C_23
REMARK    2  A    between atoms: C_12  and  C_14
REMARK    3  A    between atoms: C_15  and  C_16
REMARK    4  A    between atoms: C_16  and  C_17
REMARK    5  A    between atoms: C_23  and  C_24
REMARK    6  A    between atoms: C_29  and  C_31
REMARK    7  A    between atoms: C_31  and  O_32
REMARK                            x       y       z     vdW  Elec       q    Type
REMARK                         _______ _______ _______ _____ _____    ______ ____
ROOT
ATOM      1  O   UNL     1      35.928  -9.272 -24.490  0.00  0.00    -0.267 OA
ATOM      2  O   UNL     1      33.293  -6.458 -21.894  0.00  0.00    -0.246 OA
ATOM      3  N   UNL     1      34.623  -7.836 -23.194  0.00  0.00    -0.244 N 
ATOM      4  N   UNL     1      32.735  -8.703 -22.019  0.00  0.00    -0.279 N 
ATOM      5  C   UNL     1      33.011 -10.006 -22.528  0.00  0.00    +0.069 A 
ATOM      6  C   UNL     1      34.103 -10.206 -23.375  0.00  0.00    +0.073 A 
ATOM      7  C   UNL     1      34.972  -9.076 -23.743  0.00  0.00    +0.266 A 
ATOM      8  C   UNL     1      33.529  -7.589 -22.335  0.00  0.00    +0.334 A 
ATOM      9  C   UNL     1      34.392 -11.482 -23.887  0.00  0.00    +0.014 C 
ATOM     10  C   UNL     1      32.211 -11.117 -22.206  0.00  0.00    +0.018 C 
ATOM     11  C   UNL     1      31.584  -8.521 -21.135  0.00  0.00    +0.135 C 
ATOM     12  C   UNL     1      33.588 -12.568 -23.556  0.00  0.00    +0.042 C 
ATOM     13  C   UNL     1      32.498 -12.386 -22.715  0.00  0.00    +0.010 C 
ENDROOT
BRANCH  12  14
ATOM     14  C   UNL     1      33.883 -13.865 -24.078  0.00  0.00    -0.064 C 
ATOM     15  C   UNL     1      34.136 -14.958 -24.516  0.00  0.00    -0.082 C 
BRANCH  15  16
ATOM     16  C   UNL     1      34.447 -16.290 -25.049  0.00  0.00    +0.103 C 
BRANCH  16  17
ATOM     17  C   UNL     1      34.797 -17.266 -23.955  0.00  0.00    -0.009 C 
ATOM     18  C   UNL     1      34.650 -18.627 -24.182  0.00  0.00    -0.003 C 
ATOM     19  C   UNL     1      35.262 -16.790 -22.738  0.00  0.00    -0.003 C 
ATOM     20  C   UNL     1      34.974 -19.530 -23.171  0.00  0.00    -0.000 C 
ATOM     21  C   UNL     1      35.585 -17.693 -21.726  0.00  0.00    -0.000 C 
ATOM     22  C   UNL     1      35.442 -19.063 -21.942  0.00  0.00    -0.000 C 
ENDBRANCH  16  17
ENDBRANCH  15  16
ENDBRANCH  12  14
BRANCH   3  23
ATOM     23  C   UNL     1      35.467  -6.695 -23.540  0.00  0.00    +0.140 C 
BRANCH  23  24
ATOM     24  C   UNL     1      34.956  -5.967 -24.754  0.00  0.00    +0.001 C 
ATOM     25  C   UNL     1      33.603  -5.671 -24.854  0.00  0.00    -0.002 C 
ATOM     26  C   UNL     1      35.844  -5.599 -25.756  0.00  0.00    -0.002 C 
ATOM     27  C   UNL     1      33.129  -4.996 -25.979  0.00  0.00    +0.006 C 
ATOM     28  C   UNL     1      35.370  -4.924 -26.880  0.00  0.00    +0.006 C 
ATOM     29  C   UNL     1      34.012  -4.622 -26.992  0.00  0.00    +0.075 C 
BRANCH  29  31
ATOM     30  O   UNL     1      32.769  -2.936 -28.146  0.00  0.00    -0.245 OA
ATOM     31  C   UNL     1      33.518  -3.917 -28.165  0.00  0.00    +0.338 C 
BRANCH  31  32
ATOM     32  O   UNL     1      33.973  -4.459 -29.328  0.00  0.00    -0.477 OA
ATOM     33  H   UNL     1      34.245  -5.355 -29.351  0.00  0.00    +0.295 HD
ENDBRANCH  31  32
ENDBRANCH  29  31
ENDBRANCH  23  24
ENDBRANCH   3  23
TORSDOF 7
ENDMDL
MODEL 7
REMARK VINA RESULT:      -9.8      3.314     10.407
REMARK  Name = 10224181
REMARK  7 active torsions:
REMARK  status: ('A' for Active; 'I' for Inactive)
REMARK    1  A    between atoms: N_3  and  C_23
REMARK    2  A    between atoms: C_12  and  C_14
REMARK    3  A    between atoms: C_15  and  C_16
REMARK    4  A    between atoms: C_16  and  C_17
REMARK    5  A    between atoms: C_23  and  C_24
REMARK    6  A    between atoms: C_29  and  C_31
REMARK    7  A    between atoms: C_31  and  O_32
REMARK                            x       y       z     vdW  Elec       q    Type
REMARK                         _______ _______ _______ _____ _____    ______ ____
ROOT
ATOM      1  O   UNL     1      32.346 -14.906 -19.552  0.00  0.00    -0.267 OA
ATOM      2  O   UNL     1      32.150 -11.706 -22.917  0.00  0.00    -0.246 OA
ATOM      3  N   UNL     1      32.227 -13.284 -21.225  0.00  0.00    -0.244 N 
ATOM      4  N   UNL     1      33.563 -13.521 -23.189  0.00  0.00    -0.279 N 
ATOM      5  C   UNL     1      34.099 -14.742 -22.682  0.00  0.00    +0.069 A 
ATOM      6  C   UNL     1      33.686 -15.220 -21.437  0.00  0.00    +0.073 A 
ATOM      7  C   UNL     1      32.697 -14.469 -20.646  0.00  0.00    +0.266 A 
ATOM      8  C   UNL     1      32.617 -12.764 -22.480  0.00  0.00    +0.334 A 
ATOM      9  C   UNL     1      34.202 -16.420 -20.920  0.00  0.00    +0.014 C 
ATOM     10  C   UNL     1      35.046 -15.495 -23.400  0.00  0.00    +0.018 C 
ATOM     11  C   UNL     1      34.014 -13.043 -24.496  0.00  0.00    +0.135 C 
ATOM     12  C   UNL     1      35.138 -17.151 -21.646  0.00  0.00    +0.042 C 
ATOM     13  C   UNL     1      35.559 -16.688 -22.886  0.00  0.00    +0.010 C 
ENDROOT
BRANCH  12  14
ATOM     14  C   UNL     1      35.661 -18.371 -21.118  0.00  0.00    -0.064 C 
ATOM     15  C   UNL     1      36.107 -19.398 -20.674  0.00  0.00    -0.082 C 
BRANCH  15  16
ATOM     16  C   UNL     1      36.652 -20.649 -20.135  0.00  0.00    +0.103 C 
BRANCH  16  17
ATOM     17  C   UNL     1      35.662 -21.358 -19.246  0.00  0.00    -0.009 C 
ATOM     18  C   UNL     1      34.320 -21.377 -19.598  0.00  0.00    -0.003 C 
ATOM     19  C   UNL     1      36.108 -21.982 -18.090  0.00  0.00    -0.003 C 
ATOM     20  C   UNL     1      33.404 -22.034 -18.776  0.00  0.00    -0.000 C 
ATOM     21  C   UNL     1      35.192 -22.638 -17.268  0.00  0.00    -0.000 C 
ATOM     22  C   UNL     1      33.841 -22.665 -17.611  0.00  0.00    -0.000 C 
ENDBRANCH  16  17
ENDBRANCH  15  16
ENDBRANCH  12  14
BRANCH   3  23
ATOM     23  C   UNL     1      31.244 -12.517 -20.464  0.00  0.00    +0.140 C 
BRANCH  23  24
ATOM     24  C   UNL     1      31.607 -11.058 -20.389  0.00  0.00    +0.001 C 
ATOM     25  C   UNL     1      32.274 -10.577 -19.270  0.00  0.00    -0.002 C 
ATOM     26  C   UNL     1      31.272 -10.215 -21.439  0.00  0.00    -0.002 C 
ATOM     27  C   UNL     1      32.611  -9.225 -19.200  0.00  0.00    +0.006 C 
ATOM     28  C   UNL     1      31.609  -8.863 -21.369  0.00  0.00    +0.006 C 
ATOM     29  C   UNL     1      32.278  -8.368 -20.249  0.00  0.00    +0.075 C 
BRANCH  29  31
ATOM     30  O   UNL     1      32.280  -6.091 -20.984  0.00  0.00    -0.245 OA
ATOM     31  C   UNL     1      32.630  -6.958 -20.177  0.00  0.00    +0.338 C 
BRANCH  31  32
ATOM     32  O   UNL     1      33.410  -6.671 -19.099  0.00  0.00    -0.477 OA
ATOM     33  H   UNL     1      34.141  -7.219 -18.892  0.00  0.00    +0.295 HD
ENDBRANCH  31  32
ENDBRANCH  29  31
ENDBRANCH  23  24
ENDBRANCH   3  23
TORSDOF 7
ENDMDL
MODEL 8
REMARK VINA RESULT:      -9.7      3.465     10.423
REMARK  Name = 10224181
REMARK  7 active torsions:
REMARK  status: ('A' for Active; 'I' for Inactive)
REMARK    1  A    between atoms: N_3  and  C_23
REMARK    2  A    between atoms: C_12  and  C_14
REMARK    3  A    between atoms: C_15  and  C_16
REMARK    4  A    between atoms: C_16  and  C_17
REMARK    5  A    between atoms: C_23  and  C_24
REMARK    6  A    between atoms: C_29  and  C_31
REMARK    7  A    between atoms: C_31  and  O_32
REMARK                            x       y       z     vdW  Elec       q    Type
REMARK                         _______ _______ _______ _____ _____    ______ ____
ROOT
ATOM      1  O   UNL     1      33.512 -14.291 -20.842  0.00  0.00    -0.267 OA
ATOM      2  O   UNL     1      32.532 -12.827 -25.142  0.00  0.00    -0.246 OA
ATOM      3  N   UNL     1      33.006 -13.531 -22.989  0.00  0.00    -0.244 N 
ATOM      4  N   UNL     1      33.677 -14.823 -24.881  0.00  0.00    -0.279 N 
ATOM      5  C   UNL     1      34.259 -15.796 -24.016  0.00  0.00    +0.069 A 
ATOM      6  C   UNL     1      34.206 -15.619 -22.632  0.00  0.00    +0.073 A 
ATOM      7  C   UNL     1      33.549 -14.430 -22.062  0.00  0.00    +0.266 A 
ATOM      8  C   UNL     1      33.038 -13.672 -24.395  0.00  0.00    +0.334 A 
ATOM      9  C   UNL     1      34.772 -16.565 -21.763  0.00  0.00    +0.014 C 
ATOM     10  C   UNL     1      34.897 -16.948 -24.511  0.00  0.00    +0.018 C 
ATOM     11  C   UNL     1      33.749 -15.034 -26.327  0.00  0.00    +0.135 C 
ATOM     12  C   UNL     1      35.399 -17.698 -22.273  0.00  0.00    +0.042 C 
ATOM     13  C   UNL     1      35.461 -17.889 -23.647  0.00  0.00    +0.010 C 
ENDROOT
BRANCH  12  14
ATOM     14  C   UNL     1      35.975 -18.660 -21.387  0.00  0.00    -0.064 C 
ATOM     15  C   UNL     1      36.457 -19.473 -20.640  0.00  0.00    -0.082 C 
BRANCH  15  16
ATOM     16  C   UNL     1      37.042 -20.465 -19.731  0.00  0.00    +0.103 C 
BRANCH  16  17
ATOM     17  C   UNL     1      35.984 -21.267 -19.017  0.00  0.00    -0.009 C 
ATOM     18  C   UNL     1      36.303 -21.919 -17.835  0.00  0.00    -0.003 C 
ATOM     19  C   UNL     1      34.707 -21.341 -19.553  0.00  0.00    -0.003 C 
ATOM     20  C   UNL     1      35.324 -22.661 -17.175  0.00  0.00    -0.000 C 
ATOM     21  C   UNL     1      33.727 -22.083 -18.893  0.00  0.00    -0.000 C 
ATOM     22  C   UNL     1      34.036 -22.743 -17.704  0.00  0.00    -0.000 C 
ENDBRANCH  16  17
ENDBRANCH  15  16
ENDBRANCH  12  14
BRANCH   3  23
ATOM     23  C   UNL     1      32.347 -12.343 -22.455  0.00  0.00    +0.140 C 
BRANCH  23  24
ATOM     24  C   UNL     1      33.070 -11.080 -22.840  0.00  0.00    +0.001 C 
ATOM     25  C   UNL     1      32.554  -9.851 -22.448  0.00  0.00    -0.002 C 
ATOM     26  C   UNL     1      34.241 -11.160 -23.579  0.00  0.00    -0.002 C 
ATOM     27  C   UNL     1      33.224  -8.681 -22.805  0.00  0.00    +0.006 C 
ATOM     28  C   UNL     1      34.911  -9.990 -23.936  0.00  0.00    +0.006 C 
ATOM     29  C   UNL     1      34.402  -8.750 -23.548  0.00  0.00    +0.075 C 
BRANCH  29  31
ATOM     30  O   UNL     1      34.884  -6.862 -24.937  0.00  0.00    -0.245 OA
ATOM     31  C   UNL     1      35.101  -7.529 -23.920  0.00  0.00    +0.338 C 
BRANCH  31  32
ATOM     32  O   UNL     1      36.051  -7.176 -23.012  0.00  0.00    -0.477 OA
ATOM     33  H   UNL     1      36.809  -7.714 -22.895  0.00  0.00    +0.295 HD
ENDBRANCH  31  32
ENDBRANCH  29  31
ENDBRANCH  23  24
ENDBRANCH   3  23
TORSDOF 7
ENDMDL
MODEL 9
REMARK VINA RESULT:      -9.6      6.074     10.163
REMARK  Name = 10224181
REMARK  7 active torsions:
REMARK  status: ('A' for Active; 'I' for Inactive)
REMARK    1  A    between atoms: N_3  and  C_23
REMARK    2  A    between atoms: C_12  and  C_14
REMARK    3  A    between atoms: C_15  and  C_16
REMARK    4  A    between atoms: C_16  and  C_17
REMARK    5  A    between atoms: C_23  and  C_24
REMARK    6  A    between atoms: C_29  and  C_31
REMARK    7  A    between atoms: C_31  and  O_32
REMARK                            x       y       z     vdW  Elec       q    Type
REMARK                         _______ _______ _______ _____ _____    ______ ____
ROOT
ATOM      1  O   UNL     1      32.866 -24.054 -16.203  0.00  0.00    -0.267 OA
ATOM      2  O   UNL     1      34.296 -24.577 -11.811  0.00  0.00    -0.246 OA
ATOM      3  N   UNL     1      33.558 -24.332 -13.991  0.00  0.00    -0.244 N 
ATOM      4  N   UNL     1      35.668 -23.453 -13.302  0.00  0.00    -0.279 N 
ATOM      5  C   UNL     1      35.897 -22.958 -14.620  0.00  0.00    +0.069 A 
ATOM      6  C   UNL     1      34.941 -23.162 -15.616  0.00  0.00    +0.073 A 
ATOM      7  C   UNL     1      33.695 -23.885 -15.312  0.00  0.00    +0.266 A 
ATOM      8  C   UNL     1      34.499 -24.148 -12.953  0.00  0.00    +0.334 A 
ATOM      9  C   UNL     1      35.148 -22.683 -16.920  0.00  0.00    +0.014 C 
ATOM     10  C   UNL     1      37.071 -22.262 -14.961  0.00  0.00    +0.018 C 
ATOM     11  C   UNL     1      36.687 -23.226 -12.277  0.00  0.00    +0.135 C 
ATOM     12  C   UNL     1      36.317 -21.996 -17.238  0.00  0.00    +0.042 C 
ATOM     13  C   UNL     1      37.278 -21.786 -16.257  0.00  0.00    +0.010 C 
ENDROOT
BRANCH  12  14
ATOM     14  C   UNL     1      36.525 -21.510 -18.565  0.00  0.00    -0.064 C 
ATOM     15  C   UNL     1      36.704 -21.098 -19.683  0.00  0.00    -0.082 C 
BRANCH  15  16
ATOM     16  C   UNL     1      36.925 -20.594 -21.043  0.00  0.00    +0.103 C 
BRANCH  16  17
ATOM     17  C   UNL     1      36.187 -19.304 -21.292  0.00  0.00    -0.009 C 
ATOM     18  C   UNL     1      34.915 -19.132 -20.765  0.00  0.00    -0.003 C 
ATOM     19  C   UNL     1      36.791 -18.307 -22.044  0.00  0.00    -0.003 C 
ATOM     20  C   UNL     1      34.233 -17.937 -20.995  0.00  0.00    -0.000 C 
ATOM     21  C   UNL     1      36.108 -17.113 -22.275  0.00  0.00    -0.000 C 
ATOM     22  C   UNL     1      34.830 -16.928 -21.750  0.00  0.00    -0.000 C 
ENDBRANCH  16  17
ENDBRANCH  15  16
ENDBRANCH  12  14
BRANCH   3  23
ATOM     23  C   UNL     1      32.332 -25.052 -13.658  0.00  0.00    +0.140 C 
BRANCH  23  24
ATOM     24  C   UNL     1      31.113 -24.376 -14.224  0.00  0.00    +0.001 C 
ATOM     25  C   UNL     1      30.918 -23.020 -14.002  0.00  0.00    -0.002 C 
ATOM     26  C   UNL     1      30.201 -25.118 -14.962  0.00  0.00    -0.002 C 
ATOM     27  C   UNL     1      29.788 -22.393 -14.528  0.00  0.00    +0.006 C 
ATOM     28  C   UNL     1      29.071 -24.491 -15.488  0.00  0.00    +0.006 C 
ATOM     29  C   UNL     1      28.864 -23.129 -15.270  0.00  0.00    +0.075 C 
BRANCH  29  31
ATOM     30  O   UNL     1      27.648 -21.839 -16.877  0.00  0.00    -0.245 OA
ATOM     31  C   UNL     1      27.686 -22.476 -15.819  0.00  0.00    +0.338 C 
BRANCH  31  32
ATOM     32  O   UNL     1      26.587 -22.635 -15.031  0.00  0.00    -0.477 OA
ATOM     33  H   UNL     1      26.666 -22.569 -14.100  0.00  0.00    +0.295 HD
ENDBRANCH  31  32
ENDBRANCH  29  31
ENDBRANCH  23  24
ENDBRANCH   3  23
TORSDOF 7
ENDMDL
