MODEL 1
REMARK VINA RESULT:     -11.6      0.000      0.000
REMARK  Name = 16122642
REMARK  7 active torsions:
REMARK  status: ('A' for Active; 'I' for Inactive)
REMARK    1  A    between atoms: C_2  and  C_10
REMARK    2  A    between atoms: C_3  and  O_18
REMARK    3  A    between atoms: O_18  and  C_19
REMARK    4  A    between atoms: C_19  and  C_20
REMARK    5  A    between atoms: C_20  and  N_21
REMARK    6  A    between atoms: C_20  and  C_25
REMARK    7  A    between atoms: C_25  and  C_27
REMARK                            x       y       z     vdW  Elec       q    Type
REMARK                         _______ _______ _______ _____ _____    ______ ____
ROOT
ATOM      1  N   UNL     1      33.473 -14.558 -25.738  0.00  0.00    -0.239 NA
ATOM      2  C   UNL     1      33.315 -14.188 -23.360  0.00  0.00    +0.022 C 
ATOM      3  C   UNL     1      34.557 -16.066 -24.189  0.00  0.00    +0.158 C 
ATOM      4  C   UNL     1      34.088 -15.313 -23.118  0.00  0.00    +0.040 C 
ATOM      5  C   UNL     1      33.036 -13.851 -24.671  0.00  0.00    +0.099 C 
ATOM      6  C   UNL     1      34.224 -15.649 -25.468  0.00  0.00    +0.136 C 
ENDROOT
BRANCH   2  10
ATOM      7  N   UNL     1      31.341  -9.924 -19.961  0.00  0.00    -0.280 N 
ATOM      8  N   UNL     1      31.395 -11.049 -19.222  0.00  0.00    -0.173 NA
ATOM      9  C   UNL     1      32.085 -11.390 -21.359  0.00  0.00    +0.032 A 
ATOM     10  C   UNL     1      32.812 -13.382 -22.263  0.00  0.00    +0.002 C 
ATOM     11  C   UNL     1      31.857 -11.988 -20.066  0.00  0.00    +0.102 A 
ATOM     12  C   UNL     1      32.559 -12.017 -22.504  0.00  0.00    +0.003 C 
ATOM     13  C   UNL     1      31.745 -10.071 -21.256  0.00  0.00    +0.053 A 
ATOM     14  C   UNL     1      32.602 -14.022 -21.001  0.00  0.00    +0.002 C 
ATOM     15  C   UNL     1      32.118 -13.355 -19.854  0.00  0.00    +0.021 C 
ATOM     16  C   UNL     1      31.750  -8.945 -22.205  0.00  0.00    +0.051 C 
ATOM     17  H   UNL     1      31.035  -9.063 -19.596  0.00  0.00    +0.189 HD
ENDBRANCH   2  10
BRANCH   3  18
ATOM     18  O   UNL     1      35.315 -17.171 -23.988  0.00  0.00    -0.476 OA
BRANCH  18  19
ATOM     19  C   UNL     1      35.658 -17.494 -22.638  0.00  0.00    +0.184 C 
BRANCH  19  20
ATOM     20  C   UNL     1      35.103 -18.874 -22.265  0.00  0.00    -0.017 C 
BRANCH  20  21
ATOM     21  N   UNL     1      34.939 -19.655 -23.495  0.00  0.00    +0.384 N 
ATOM     22  H   UNL     1      34.070 -20.185 -23.447  0.00  0.00    -0.089 HD
ATOM     23  H   UNL     1      35.725 -20.297 -23.597  0.00  0.00    -0.089 HD
ATOM     24  H   UNL     1      34.909 -19.024 -24.296  0.00  0.00    -0.089 HD
ENDBRANCH  20  21
BRANCH  20  25
ATOM     25  C   UNL     1      36.027 -19.662 -21.311  0.00  0.00    +0.008 C 
BRANCH  25  27
ATOM     26 BR   UNL     1      33.078 -23.186 -17.192  0.00  0.00    -0.049 Br
ATOM     27  C   UNL     1      35.305 -20.524 -20.304  0.00  0.00    -0.024 C 
ATOM     28  C   UNL     1      33.921 -20.477 -20.237  0.00  0.00    -0.004 C 
ATOM     29  C   UNL     1      36.039 -21.346 -19.466  0.00  0.00    -0.004 C 
ATOM     30  C   UNL     1      33.255 -21.273 -19.305  0.00  0.00    +0.006 C 
ATOM     31  C   UNL     1      35.373 -22.143 -18.535  0.00  0.00    +0.006 C 
ATOM     32  C   UNL     1      33.981 -22.107 -18.455  0.00  0.00    +0.035 C 
ENDBRANCH  25  27
ENDBRANCH  20  25
ENDBRANCH  19  20
ENDBRANCH  18  19
ENDBRANCH   3  18
TORSDOF 7
ENDMDL
MODEL 2
REMARK VINA RESULT:     -11.3      5.092     10.976
REMARK  Name = 16122642
REMARK  7 active torsions:
REMARK  status: ('A' for Active; 'I' for Inactive)
REMARK    1  A    between atoms: C_2  and  C_10
REMARK    2  A    between atoms: C_3  and  O_18
REMARK    3  A    between atoms: O_18  and  C_19
REMARK    4  A    between atoms: C_19  and  C_20
REMARK    5  A    between atoms: C_20  and  N_21
REMARK    6  A    between atoms: C_20  and  C_25
REMARK    7  A    between atoms: C_25  and  C_27
REMARK                            x       y       z     vdW  Elec       q    Type
REMARK                         _______ _______ _______ _____ _____    ______ ____
ROOT
ATOM      1  N   UNL     1      31.737 -12.039 -19.812  0.00  0.00    -0.239 NA
ATOM      2  C   UNL     1      32.670 -12.732 -21.925  0.00  0.00    +0.022 C 
ATOM      3  C   UNL     1      31.964 -10.458 -21.627  0.00  0.00    +0.158 C 
ATOM      4  C   UNL     1      32.511 -11.452 -22.432  0.00  0.00    +0.040 C 
ATOM      5  C   UNL     1      32.274 -12.978 -20.624  0.00  0.00    +0.099 C 
ATOM      6  C   UNL     1      31.597 -10.801 -20.335  0.00  0.00    +0.136 C 
ENDROOT
BRANCH   2  10
ATOM      7  N   UNL     1      35.338 -17.484 -23.909  0.00  0.00    -0.280 N 
ATOM      8  N   UNL     1      34.868 -16.801 -24.970  0.00  0.00    -0.173 NA
ATOM      9  C   UNL     1      34.388 -15.770 -23.004  0.00  0.00    +0.032 A 
ATOM     10  C   UNL     1      33.239 -13.789 -22.741  0.00  0.00    +0.002 C 
ATOM     11  C   UNL     1      34.266 -15.721 -24.441  0.00  0.00    +0.102 A 
ATOM     12  C   UNL     1      33.903 -14.846 -22.087  0.00  0.00    +0.003 C 
ATOM     13  C   UNL     1      35.079 -16.908 -22.699  0.00  0.00    +0.053 A 
ATOM     14  C   UNL     1      33.091 -13.695 -24.160  0.00  0.00    +0.002 C 
ATOM     15  C   UNL     1      33.596 -14.653 -25.066  0.00  0.00    +0.021 C 
ATOM     16  C   UNL     1      35.519 -17.519 -21.433  0.00  0.00    +0.051 C 
ATOM     17  H   UNL     1      35.832 -18.330 -23.998  0.00  0.00    +0.189 HD
ENDBRANCH   2  10
BRANCH   3  18
ATOM     18  O   UNL     1      31.795  -9.196 -22.091  0.00  0.00    -0.476 OA
BRANCH  18  19
ATOM     19  C   UNL     1      31.577  -8.166 -21.125  0.00  0.00    +0.184 C 
BRANCH  19  20
ATOM     20  C   UNL     1      32.795  -7.236 -21.055  0.00  0.00    -0.017 C 
BRANCH  20  21
ATOM     21  N   UNL     1      33.388  -7.352 -19.720  0.00  0.00    +0.384 N 
ATOM     22  H   UNL     1      33.944  -8.205 -19.668  0.00  0.00    -0.089 HD
ATOM     23  H   UNL     1      32.647  -7.387 -19.020  0.00  0.00    -0.089 HD
ATOM     24  H   UNL     1      33.986  -6.545 -19.542  0.00  0.00    -0.089 HD
ENDBRANCH  20  21
BRANCH  20  25
ATOM     25  C   UNL     1      33.880  -7.578 -22.098  0.00  0.00    +0.008 C 
BRANCH  25  27
ATOM     26 BR   UNL     1      33.996  -3.842 -27.007  0.00  0.00    -0.049 Br
ATOM     27  C   UNL     1      33.909  -6.665 -23.300  0.00  0.00    -0.024 C 
ATOM     28  C   UNL     1      35.051  -6.608 -24.083  0.00  0.00    -0.004 C 
ATOM     29  C   UNL     1      32.793  -5.901 -23.596  0.00  0.00    -0.004 C 
ATOM     30  C   UNL     1      35.077  -5.763 -25.192  0.00  0.00    +0.006 C 
ATOM     31  C   UNL     1      32.819  -5.056 -24.706  0.00  0.00    +0.006 C 
ATOM     32  C   UNL     1      33.960  -4.987 -25.504  0.00  0.00    +0.035 C 
ENDBRANCH  25  27
ENDBRANCH  20  25
ENDBRANCH  19  20
ENDBRANCH  18  19
ENDBRANCH   3  18
TORSDOF 7
ENDMDL
MODEL 3
REMARK VINA RESULT:     -11.2      5.458     10.878
REMARK  Name = 16122642
REMARK  7 active torsions:
REMARK  status: ('A' for Active; 'I' for Inactive)
REMARK    1  A    between atoms: C_2  and  C_10
REMARK    2  A    between atoms: C_3  and  O_18
REMARK    3  A    between atoms: O_18  and  C_19
REMARK    4  A    between atoms: C_19  and  C_20
REMARK    5  A    between atoms: C_20  and  N_21
REMARK    6  A    between atoms: C_20  and  C_25
REMARK    7  A    between atoms: C_25  and  C_27
REMARK                            x       y       z     vdW  Elec       q    Type
REMARK                         _______ _______ _______ _____ _____    ______ ____
ROOT
ATOM      1  N   UNL     1      31.291 -11.555 -19.368  0.00  0.00    -0.239 NA
ATOM      2  C   UNL     1      32.530 -12.528 -21.194  0.00  0.00    +0.022 C 
ATOM      3  C   UNL     1      31.783 -10.253 -21.345  0.00  0.00    +0.158 C 
ATOM      4  C   UNL     1      32.446 -11.340 -21.904  0.00  0.00    +0.040 C 
ATOM      5  C   UNL     1      31.945 -12.589 -19.943  0.00  0.00    +0.099 C 
ATOM      6  C   UNL     1      31.228 -10.411 -20.085  0.00  0.00    +0.136 C 
ENDROOT
BRANCH   2  10
ATOM      7  N   UNL     1      34.797 -16.587 -24.660  0.00  0.00    -0.280 N 
ATOM      8  N   UNL     1      35.126 -16.898 -23.391  0.00  0.00    -0.173 NA
ATOM      9  C   UNL     1      33.887 -14.998 -23.518  0.00  0.00    +0.032 A 
ATOM     10  C   UNL     1      33.217 -13.679 -21.750  0.00  0.00    +0.002 C 
ATOM     11  C   UNL     1      34.573 -15.923 -22.648  0.00  0.00    +0.102 A 
ATOM     12  C   UNL     1      33.189 -13.856 -23.148  0.00  0.00    +0.003 C 
ATOM     13  C   UNL     1      34.051 -15.453 -24.795  0.00  0.00    +0.053 A 
ATOM     14  C   UNL     1      33.881 -14.567 -20.846  0.00  0.00    +0.002 C 
ATOM     15  C   UNL     1      34.584 -15.721 -21.255  0.00  0.00    +0.021 C 
ATOM     16  C   UNL     1      33.604 -14.965 -26.111  0.00  0.00    +0.051 C 
ATOM     17  H   UNL     1      35.072 -17.136 -25.429  0.00  0.00    +0.189 HD
ENDBRANCH   2  10
BRANCH   3  18
ATOM     18  O   UNL     1      31.683  -9.077 -22.011  0.00  0.00    -0.476 OA
BRANCH  18  19
ATOM     19  C   UNL     1      31.478  -7.897 -21.232  0.00  0.00    +0.184 C 
BRANCH  19  20
ATOM     20  C   UNL     1      32.794  -7.124 -21.082  0.00  0.00    -0.017 C 
BRANCH  20  21
ATOM     21  N   UNL     1      33.339  -7.395 -19.748  0.00  0.00    +0.384 N 
ATOM     22  H   UNL     1      33.066  -6.648 -19.111  0.00  0.00    -0.089 HD
ATOM     23  H   UNL     1      34.356  -7.443 -19.800  0.00  0.00    -0.089 HD
ATOM     24  H   UNL     1      32.974  -8.284 -19.406  0.00  0.00    -0.089 HD
ENDBRANCH  20  21
BRANCH  20  25
ATOM     25  C   UNL     1      33.855  -7.523 -22.129  0.00  0.00    +0.008 C 
BRANCH  25  27
ATOM     26 BR   UNL     1      34.086  -3.852 -27.083  0.00  0.00    -0.049 Br
ATOM     27  C   UNL     1      33.912  -6.626 -23.341  0.00  0.00    -0.024 C 
ATOM     28  C   UNL     1      35.055  -6.614 -24.125  0.00  0.00    -0.004 C 
ATOM     29  C   UNL     1      32.821  -5.830 -23.647  0.00  0.00    -0.004 C 
ATOM     30  C   UNL     1      35.107  -5.784 -25.245  0.00  0.00    +0.006 C 
ATOM     31  C   UNL     1      32.873  -5.000 -24.767  0.00  0.00    +0.006 C 
ATOM     32  C   UNL     1      34.015  -4.977 -25.566  0.00  0.00    +0.035 C 
ENDBRANCH  25  27
ENDBRANCH  20  25
ENDBRANCH  19  20
ENDBRANCH  18  19
ENDBRANCH   3  18
TORSDOF 7
ENDMDL
MODEL 4
REMARK VINA RESULT:     -11.2      5.321     11.181
REMARK  Name = 16122642
REMARK  7 active torsions:
REMARK  status: ('A' for Active; 'I' for Inactive)
REMARK    1  A    between atoms: C_2  and  C_10
REMARK    2  A    between atoms: C_3  and  O_18
REMARK    3  A    between atoms: O_18  and  C_19
REMARK    4  A    between atoms: C_19  and  C_20
REMARK    5  A    between atoms: C_20  and  N_21
REMARK    6  A    between atoms: C_20  and  C_25
REMARK    7  A    between atoms: C_25  and  C_27
REMARK                            x       y       z     vdW  Elec       q    Type
REMARK                         _______ _______ _______ _____ _____    ______ ____
ROOT
ATOM      1  N   UNL     1      32.889 -22.431 -18.393  0.00  0.00    -0.239 NA
ATOM      2  C   UNL     1      34.578 -22.914 -16.741  0.00  0.00    +0.022 C 
ATOM      3  C   UNL     1      35.155 -21.641 -18.691  0.00  0.00    +0.158 C 
ATOM      4  C   UNL     1      35.525 -22.228 -17.486  0.00  0.00    +0.040 C 
ATOM      5  C   UNL     1      33.287 -22.988 -17.227  0.00  0.00    +0.099 C 
ATOM      6  C   UNL     1      33.835 -21.769 -19.096  0.00  0.00    +0.136 C 
ENDROOT
BRANCH   2  10
ATOM      7  N   UNL     1      37.301 -25.481 -12.311  0.00  0.00    -0.280 N 
ATOM      8  N   UNL     1      36.014 -25.300 -11.955  0.00  0.00    -0.173 NA
ATOM      9  C   UNL     1      36.444 -24.529 -14.048  0.00  0.00    +0.032 A 
ATOM     10  C   UNL     1      34.934 -23.537 -15.479  0.00  0.00    +0.002 C 
ATOM     11  C   UNL     1      35.447 -24.705 -13.019  0.00  0.00    +0.102 A 
ATOM     12  C   UNL     1      36.268 -23.956 -15.301  0.00  0.00    +0.003 C 
ATOM     13  C   UNL     1      37.616 -25.036 -13.561  0.00  0.00    +0.053 A 
ATOM     14  C   UNL     1      33.911 -23.688 -14.492  0.00  0.00    +0.002 C 
ATOM     15  C   UNL     1      34.123 -24.276 -13.226  0.00  0.00    +0.021 C 
ATOM     16  C   UNL     1      38.976 -25.154 -14.112  0.00  0.00    +0.051 C 
ATOM     17  H   UNL     1      37.961 -25.903 -11.716  0.00  0.00    +0.189 HD
ENDBRANCH   2  10
BRANCH   3  18
ATOM     18  O   UNL     1      36.055 -20.964 -19.445  0.00  0.00    -0.476 OA
BRANCH  18  19
ATOM     19  C   UNL     1      35.585 -20.379 -20.661  0.00  0.00    +0.184 C 
BRANCH  19  20
ATOM     20  C   UNL     1      36.122 -18.950 -20.807  0.00  0.00    -0.017 C 
BRANCH  20  21
ATOM     21  N   UNL     1      37.552 -18.960 -20.483  0.00  0.00    +0.384 N 
ATOM     22  H   UNL     1      38.059 -19.478 -21.199  0.00  0.00    -0.089 HD
ATOM     23  H   UNL     1      37.692 -19.407 -19.577  0.00  0.00    -0.089 HD
ATOM     24  H   UNL     1      37.899 -18.001 -20.447  0.00  0.00    -0.089 HD
ENDBRANCH  20  21
BRANCH  20  25
ATOM     25  C   UNL     1      35.954 -18.381 -22.232  0.00  0.00    +0.008 C 
BRANCH  25  27
ATOM     26 BR   UNL     1      32.872 -13.043 -22.520  0.00  0.00    -0.049 Br
ATOM     27  C   UNL     1      35.199 -17.076 -22.303  0.00  0.00    -0.024 C 
ATOM     28  C   UNL     1      34.880 -16.542 -23.542  0.00  0.00    -0.004 C 
ATOM     29  C   UNL     1      34.841 -16.436 -21.129  0.00  0.00    -0.004 C 
ATOM     30  C   UNL     1      34.184 -15.335 -23.607  0.00  0.00    +0.006 C 
ATOM     31  C   UNL     1      34.144 -15.229 -21.194  0.00  0.00    +0.006 C 
ATOM     32  C   UNL     1      33.815 -14.679 -22.432  0.00  0.00    +0.035 C 
ENDBRANCH  25  27
ENDBRANCH  20  25
ENDBRANCH  19  20
ENDBRANCH  18  19
ENDBRANCH   3  18
TORSDOF 7
ENDMDL
MODEL 5
REMARK VINA RESULT:     -11.2      3.668      7.076
REMARK  Name = 16122642
REMARK  7 active torsions:
REMARK  status: ('A' for Active; 'I' for Inactive)
REMARK    1  A    between atoms: C_2  and  C_10
REMARK    2  A    between atoms: C_3  and  O_18
REMARK    3  A    between atoms: O_18  and  C_19
REMARK    4  A    between atoms: C_19  and  C_20
REMARK    5  A    between atoms: C_20  and  N_21
REMARK    6  A    between atoms: C_20  and  C_25
REMARK    7  A    between atoms: C_25  and  C_27
REMARK                            x       y       z     vdW  Elec       q    Type
REMARK                         _______ _______ _______ _____ _____    ______ ____
ROOT
ATOM      1  N   UNL     1      36.539 -21.398 -19.163  0.00  0.00    -0.239 NA
ATOM      2  C   UNL     1      35.147 -20.045 -20.594  0.00  0.00    +0.022 C 
ATOM      3  C   UNL     1      34.142 -21.715 -19.194  0.00  0.00    +0.158 C 
ATOM      4  C   UNL     1      34.014 -20.704 -20.141  0.00  0.00    +0.040 C 
ATOM      5  C   UNL     1      36.374 -20.421 -20.083  0.00  0.00    +0.099 C 
ATOM      6  C   UNL     1      35.416 -22.020 -18.741  0.00  0.00    +0.136 C 
ENDROOT
BRANCH   2  10
ATOM      7  N   UNL     1      34.627 -14.982 -23.373  0.00  0.00    -0.280 N 
ATOM      8  N   UNL     1      34.751 -15.951 -24.301  0.00  0.00    -0.173 NA
ATOM      9  C   UNL     1      34.807 -16.774 -22.185  0.00  0.00    +0.032 A 
ATOM     10  C   UNL     1      35.045 -18.986 -21.581  0.00  0.00    +0.002 C 
ATOM     11  C   UNL     1      34.867 -17.087 -23.592  0.00  0.00    +0.102 A 
ATOM     12  C   UNL     1      34.889 -17.664 -21.121  0.00  0.00    +0.003 C 
ATOM     13  C   UNL     1      34.654 -15.421 -22.082  0.00  0.00    +0.053 A 
ATOM     14  C   UNL     1      35.109 -19.348 -22.964  0.00  0.00    +0.002 C 
ATOM     15  C   UNL     1      35.023 -18.418 -24.023  0.00  0.00    +0.021 C 
ATOM     16  C   UNL     1      34.532 -14.498 -20.940  0.00  0.00    +0.051 C 
ATOM     17  H   UNL     1      34.524 -14.032 -23.608  0.00  0.00    +0.189 HD
ENDBRANCH   2  10
BRANCH   3  18
ATOM     18  O   UNL     1      33.056 -22.378 -18.729  0.00  0.00    -0.476 OA
BRANCH  18  19
ATOM     19  C   UNL     1      33.254 -23.277 -17.635  0.00  0.00    +0.184 C 
BRANCH  19  20
ATOM     20  C   UNL     1      32.618 -22.710 -16.360  0.00  0.00    -0.017 C 
BRANCH  20  21
ATOM     21  N   UNL     1      31.161 -22.768 -16.507  0.00  0.00    +0.384 N 
ATOM     22  H   UNL     1      30.913 -23.527 -17.140  0.00  0.00    -0.089 HD
ATOM     23  H   UNL     1      30.822 -21.884 -16.887  0.00  0.00    -0.089 HD
ATOM     24  H   UNL     1      30.733 -22.932 -15.595  0.00  0.00    -0.089 HD
ENDBRANCH  20  21
BRANCH  20  25
ATOM     25  C   UNL     1      33.008 -23.493 -15.088  0.00  0.00    +0.008 C 
BRANCH  25  27
ATOM     26 BR   UNL     1      39.028 -24.750 -14.583  0.00  0.00    -0.049 Br
ATOM     27  C   UNL     1      34.480 -23.799 -14.964  0.00  0.00    -0.024 C 
ATOM     28  C   UNL     1      35.399 -22.765 -15.042  0.00  0.00    -0.004 C 
ATOM     29  C   UNL     1      34.886 -25.110 -14.775  0.00  0.00    -0.004 C 
ATOM     30  C   UNL     1      36.760 -23.049 -14.928  0.00  0.00    +0.006 C 
ATOM     31  C   UNL     1      36.247 -25.395 -14.661  0.00  0.00    +0.006 C 
ATOM     32  C   UNL     1      37.183 -24.364 -14.737  0.00  0.00    +0.035 C 
ENDBRANCH  25  27
ENDBRANCH  20  25
ENDBRANCH  19  20
ENDBRANCH  18  19
ENDBRANCH   3  18
TORSDOF 7
ENDMDL
MODEL 6
REMARK VINA RESULT:     -11.1      3.706      7.082
REMARK  Name = 16122642
REMARK  7 active torsions:
REMARK  status: ('A' for Active; 'I' for Inactive)
REMARK    1  A    between atoms: C_2  and  C_10
REMARK    2  A    between atoms: C_3  and  O_18
REMARK    3  A    between atoms: O_18  and  C_19
REMARK    4  A    between atoms: C_19  and  C_20
REMARK    5  A    between atoms: C_20  and  N_21
REMARK    6  A    between atoms: C_20  and  C_25
REMARK    7  A    between atoms: C_25  and  C_27
REMARK                            x       y       z     vdW  Elec       q    Type
REMARK                         _______ _______ _______ _____ _____    ______ ____
ROOT
ATOM      1  N   UNL     1      33.044 -21.685 -19.351  0.00  0.00    -0.239 NA
ATOM      2  C   UNL     1      34.516 -20.178 -20.523  0.00  0.00    +0.022 C 
ATOM      3  C   UNL     1      35.420 -21.701 -18.905  0.00  0.00    +0.158 C 
ATOM      4  C   UNL     1      35.609 -20.687 -19.838  0.00  0.00    +0.040 C 
ATOM      5  C   UNL     1      33.267 -20.701 -20.251  0.00  0.00    +0.099 C 
ATOM      6  C   UNL     1      34.129 -22.161 -18.700  0.00  0.00    +0.136 C 
ENDROOT
BRANCH   2  10
ATOM      7  N   UNL     1      34.959 -15.106 -23.301  0.00  0.00    -0.280 N 
ATOM      8  N   UNL     1      35.135 -16.089 -24.206  0.00  0.00    -0.173 NA
ATOM      9  C   UNL     1      34.765 -16.900 -22.116  0.00  0.00    +0.032 A 
ATOM     10  C   UNL     1      34.682 -19.120 -21.504  0.00  0.00    +0.002 C 
ATOM     11  C   UNL     1      35.021 -17.227 -23.498  0.00  0.00    +0.102 A 
ATOM     12  C   UNL     1      34.585 -17.786 -21.062  0.00  0.00    +0.003 C 
ATOM     13  C   UNL     1      34.733 -15.537 -22.027  0.00  0.00    +0.053 A 
ATOM     14  C   UNL     1      34.933 -19.496 -22.861  0.00  0.00    +0.002 C 
ATOM     15  C   UNL     1      35.112 -18.569 -23.911  0.00  0.00    +0.021 C 
ATOM     16  C   UNL     1      34.520 -14.599 -20.911  0.00  0.00    +0.051 C 
ATOM     17  H   UNL     1      34.990 -14.152 -23.541  0.00  0.00    +0.189 HD
ENDBRANCH   2  10
BRANCH   3  18
ATOM     18  O   UNL     1      36.466 -22.222 -18.218  0.00  0.00    -0.476 OA
BRANCH  18  19
ATOM     19  C   UNL     1      36.550 -21.919 -16.823  0.00  0.00    +0.184 C 
BRANCH  19  20
ATOM     20  C   UNL     1      36.155 -23.144 -15.989  0.00  0.00    -0.017 C 
BRANCH  20  21
ATOM     21  N   UNL     1      37.379 -23.838 -15.579  0.00  0.00    +0.384 N 
ATOM     22  H   UNL     1      37.385 -24.777 -15.975  0.00  0.00    -0.089 HD
ATOM     23  H   UNL     1      37.411 -23.898 -14.562  0.00  0.00    -0.089 HD
ATOM     24  H   UNL     1      38.192 -23.321 -15.916  0.00  0.00    -0.089 HD
ENDBRANCH  20  21
BRANCH  20  25
ATOM     25  C   UNL     1      35.356 -22.781 -14.719  0.00  0.00    +0.008 C 
BRANCH  25  27
ATOM     26 BR   UNL     1      29.679 -25.186 -14.477  0.00  0.00    -0.049 Br
ATOM     27  C   UNL     1      33.967 -23.369 -14.658  0.00  0.00    -0.024 C 
ATOM     28  C   UNL     1      33.635 -24.223 -13.619  0.00  0.00    -0.004 C 
ATOM     29  C   UNL     1      33.051 -23.044 -15.645  0.00  0.00    -0.004 C 
ATOM     30  C   UNL     1      32.352 -24.767 -13.565  0.00  0.00    +0.006 C 
ATOM     31  C   UNL     1      31.767 -23.588 -15.591  0.00  0.00    +0.006 C 
ATOM     32  C   UNL     1      31.418 -24.449 -14.550  0.00  0.00    +0.035 C 
ENDBRANCH  25  27
ENDBRANCH  20  25
ENDBRANCH  19  20
ENDBRANCH  18  19
ENDBRANCH   3  18
TORSDOF 7
ENDMDL
MODEL 7
REMARK VINA RESULT:     -11.0      5.220     10.694
REMARK  Name = 16122642
REMARK  7 active torsions:
REMARK  status: ('A' for Active; 'I' for Inactive)
REMARK    1  A    between atoms: C_2  and  C_10
REMARK    2  A    between atoms: C_3  and  O_18
REMARK    3  A    between atoms: O_18  and  C_19
REMARK    4  A    between atoms: C_19  and  C_20
REMARK    5  A    between atoms: C_20  and  N_21
REMARK    6  A    between atoms: C_20  and  C_25
REMARK    7  A    between atoms: C_25  and  C_27
REMARK                            x       y       z     vdW  Elec       q    Type
REMARK                         _______ _______ _______ _____ _____    ______ ____
ROOT
ATOM      1  N   UNL     1      37.246 -22.015 -16.758  0.00  0.00    -0.239 NA
ATOM      2  C   UNL     1      35.005 -22.798 -16.334  0.00  0.00    +0.022 C 
ATOM      3  C   UNL     1      35.560 -21.893 -18.486  0.00  0.00    +0.158 C 
ATOM      4  C   UNL     1      34.626 -22.457 -17.624  0.00  0.00    +0.040 C 
ATOM      5  C   UNL     1      36.311 -22.562 -15.949  0.00  0.00    +0.099 C 
ATOM      6  C   UNL     1      36.846 -21.695 -18.008  0.00  0.00    +0.136 C 
ENDROOT
BRANCH   2  10
ATOM      7  N   UNL     1      30.249 -24.732 -13.637  0.00  0.00    -0.280 N 
ATOM      8  N   UNL     1      31.312 -25.031 -12.865  0.00  0.00    -0.173 NA
ATOM      9  C   UNL     1      31.911 -23.953 -14.773  0.00  0.00    +0.032 A 
ATOM     10  C   UNL     1      34.053 -23.389 -15.412  0.00  0.00    +0.002 C 
ATOM     11  C   UNL     1      32.371 -24.559 -13.546  0.00  0.00    +0.102 A 
ATOM     12  C   UNL     1      32.686 -23.350 -15.755  0.00  0.00    +0.003 C 
ATOM     13  C   UNL     1      30.551 -24.082 -14.798  0.00  0.00    +0.053 A 
ATOM     14  C   UNL     1      34.558 -23.976 -14.210  0.00  0.00    +0.002 C 
ATOM     15  C   UNL     1      33.742 -24.583 -13.230  0.00  0.00    +0.021 C 
ATOM     16  C   UNL     1      29.513 -23.679 -15.761  0.00  0.00    +0.051 C 
ATOM     17  H   UNL     1      29.327 -24.963 -13.383  0.00  0.00    +0.189 HD
ENDBRANCH   2  10
BRANCH   3  18
ATOM     18  O   UNL     1      35.223 -21.549 -19.753  0.00  0.00    -0.476 OA
BRANCH  18  19
ATOM     19  C   UNL     1      36.082 -20.631 -20.433  0.00  0.00    +0.184 C 
BRANCH  19  20
ATOM     20  C   UNL     1      35.253 -19.633 -21.251  0.00  0.00    -0.017 C 
BRANCH  20  21
ATOM     21  N   UNL     1      33.871 -19.673 -20.764  0.00  0.00    +0.384 N 
ATOM     22  H   UNL     1      33.344 -18.903 -21.175  0.00  0.00    -0.089 HD
ATOM     23  H   UNL     1      33.866 -19.584 -19.748  0.00  0.00    -0.089 HD
ATOM     24  H   UNL     1      33.442 -20.560 -21.030  0.00  0.00    -0.089 HD
ENDBRANCH  20  21
BRANCH  20  25
ATOM     25  C   UNL     1      35.765 -18.181 -21.136  0.00  0.00    +0.008 C 
BRANCH  25  27
ATOM     26 BR   UNL     1      33.445 -14.299 -25.334  0.00  0.00    -0.049 Br
ATOM     27  C   UNL     1      35.198 -17.231 -22.163  0.00  0.00    -0.024 C 
ATOM     28  C   UNL     1      34.751 -15.982 -21.760  0.00  0.00    -0.004 C 
ATOM     29  C   UNL     1      35.134 -17.625 -23.489  0.00  0.00    -0.004 C 
ATOM     30  C   UNL     1      34.227 -15.105 -22.709  0.00  0.00    +0.006 C 
ATOM     31  C   UNL     1      34.610 -16.748 -24.438  0.00  0.00    +0.006 C 
ATOM     32  C   UNL     1      34.157 -15.488 -24.048  0.00  0.00    +0.035 C 
ENDBRANCH  25  27
ENDBRANCH  20  25
ENDBRANCH  19  20
ENDBRANCH  18  19
ENDBRANCH   3  18
TORSDOF 7
ENDMDL
MODEL 8
REMARK VINA RESULT:     -11.0      1.775      2.663
REMARK  Name = 16122642
REMARK  7 active torsions:
REMARK  status: ('A' for Active; 'I' for Inactive)
REMARK    1  A    between atoms: C_2  and  C_10
REMARK    2  A    between atoms: C_3  and  O_18
REMARK    3  A    between atoms: O_18  and  C_19
REMARK    4  A    between atoms: C_19  and  C_20
REMARK    5  A    between atoms: C_20  and  N_21
REMARK    6  A    between atoms: C_20  and  C_25
REMARK    7  A    between atoms: C_25  and  C_27
REMARK                            x       y       z     vdW  Elec       q    Type
REMARK                         _______ _______ _______ _____ _____    ______ ____
ROOT
ATOM      1  N   UNL     1      34.681 -16.784 -24.505  0.00  0.00    -0.239 NA
ATOM      2  C   UNL     1      34.219 -14.870 -23.113  0.00  0.00    +0.022 C 
ATOM      3  C   UNL     1      35.035 -16.894 -22.116  0.00  0.00    +0.158 C 
ATOM      4  C   UNL     1      34.607 -15.577 -21.985  0.00  0.00    +0.040 C 
ATOM      5  C   UNL     1      34.272 -15.506 -24.338  0.00  0.00    +0.099 C 
ATOM      6  C   UNL     1      35.053 -17.446 -23.387  0.00  0.00    +0.136 C 
ENDROOT
BRANCH   2  10
ATOM      7  N   UNL     1      31.666  -9.891 -21.586  0.00  0.00    -0.280 N 
ATOM      8  N   UNL     1      32.455  -9.641 -22.650  0.00  0.00    -0.173 NA
ATOM      9  C   UNL     1      32.527 -11.822 -22.019  0.00  0.00    +0.032 A 
ATOM     10  C   UNL     1      33.769 -13.494 -23.008  0.00  0.00    +0.002 C 
ATOM     11  C   UNL     1      33.011 -10.829 -22.947  0.00  0.00    +0.102 A 
ATOM     12  C   UNL     1      32.858 -13.171 -21.982  0.00  0.00    +0.003 C 
ATOM     13  C   UNL     1      31.671 -11.188 -21.163  0.00  0.00    +0.053 A 
ATOM     14  C   UNL     1      34.277 -12.547 -23.952  0.00  0.00    +0.002 C 
ATOM     15  C   UNL     1      33.920 -11.181 -23.962  0.00  0.00    +0.021 C 
ATOM     16  C   UNL     1      30.868 -11.639 -20.014  0.00  0.00    +0.051 C 
ATOM     17  H   UNL     1      31.128  -9.193 -21.149  0.00  0.00    +0.189 HD
ENDBRANCH   2  10
BRANCH   3  18
ATOM     18  O   UNL     1      35.422 -17.614 -21.035  0.00  0.00    -0.476 OA
BRANCH  18  19
ATOM     19  C   UNL     1      35.773 -18.983 -21.250  0.00  0.00    +0.184 C 
BRANCH  19  20
ATOM     20  C   UNL     1      34.954 -19.893 -20.327  0.00  0.00    -0.017 C 
BRANCH  20  21
ATOM     21  N   UNL     1      33.609 -20.035 -20.894  0.00  0.00    +0.384 N 
ATOM     22  H   UNL     1      33.629 -20.722 -21.647  0.00  0.00    -0.089 HD
ATOM     23  H   UNL     1      33.300 -19.136 -21.263  0.00  0.00    -0.089 HD
ATOM     24  H   UNL     1      32.964 -20.344 -20.167  0.00  0.00    -0.089 HD
ENDBRANCH  20  21
BRANCH  20  25
ATOM     25  C   UNL     1      35.563 -21.302 -20.168  0.00  0.00    +0.008 C 
BRANCH  25  27
ATOM     26 BR   UNL     1      35.687 -23.409 -14.369  0.00  0.00    -0.049 Br
ATOM     27  C   UNL     1      35.592 -21.818 -18.750  0.00  0.00    -0.024 C 
ATOM     28  C   UNL     1      34.474 -22.454 -18.234  0.00  0.00    -0.004 C 
ATOM     29  C   UNL     1      36.738 -21.646 -17.990  0.00  0.00    -0.004 C 
ATOM     30  C   UNL     1      34.502 -22.930 -16.923  0.00  0.00    +0.006 C 
ATOM     31  C   UNL     1      36.766 -22.122 -16.679  0.00  0.00    +0.006 C 
ATOM     32  C   UNL     1      35.649 -22.764 -16.146  0.00  0.00    +0.035 C 
ENDBRANCH  25  27
ENDBRANCH  20  25
ENDBRANCH  19  20
ENDBRANCH  18  19
ENDBRANCH   3  18
TORSDOF 7
ENDMDL
MODEL 9
REMARK VINA RESULT:     -10.9      3.787      9.112
REMARK  Name = 16122642
REMARK  7 active torsions:
REMARK  status: ('A' for Active; 'I' for Inactive)
REMARK    1  A    between atoms: C_2  and  C_10
REMARK    2  A    between atoms: C_3  and  O_18
REMARK    3  A    between atoms: O_18  and  C_19
REMARK    4  A    between atoms: C_19  and  C_20
REMARK    5  A    between atoms: C_20  and  N_21
REMARK    6  A    between atoms: C_20  and  C_25
REMARK    7  A    between atoms: C_25  and  C_27
REMARK                            x       y       z     vdW  Elec       q    Type
REMARK                         _______ _______ _______ _____ _____    ______ ____
ROOT
ATOM      1  N   UNL     1      34.623 -16.453 -25.019  0.00  0.00    -0.239 NA
ATOM      2  C   UNL     1      35.098 -17.216 -22.782  0.00  0.00    +0.022 C 
ATOM      3  C   UNL     1      34.364 -14.959 -23.136  0.00  0.00    +0.158 C 
ATOM      4  C   UNL     1      34.769 -15.970 -22.271  0.00  0.00    +0.040 C 
ATOM      5  C   UNL     1      35.011 -17.411 -24.147  0.00  0.00    +0.099 C 
ATOM      6  C   UNL     1      34.308 -15.250 -24.490  0.00  0.00    +0.136 C 
ENDROOT
BRANCH   2  10
ATOM      7  N   UNL     1      35.381 -21.725 -19.145  0.00  0.00    -0.280 N 
ATOM      8  N   UNL     1      36.641 -21.334 -19.416  0.00  0.00    -0.173 NA
ATOM      9  C   UNL     1      35.096 -20.062 -20.492  0.00  0.00    +0.032 A 
ATOM     10  C   UNL     1      35.523 -18.291 -21.903  0.00  0.00    +0.002 C 
ATOM     11  C   UNL     1      36.501 -20.295 -20.258  0.00  0.00    +0.102 A 
ATOM     12  C   UNL     1      34.528 -19.084 -21.298  0.00  0.00    +0.003 C 
ATOM     13  C   UNL     1      34.410 -20.994 -19.766  0.00  0.00    +0.053 A 
ATOM     14  C   UNL     1      36.926 -18.480 -21.704  0.00  0.00    +0.002 C 
ATOM     15  C   UNL     1      37.472 -19.486 -20.876  0.00  0.00    +0.021 C 
ATOM     16  C   UNL     1      32.978 -21.283 -19.583  0.00  0.00    +0.051 C 
ATOM     17  H   UNL     1      35.176 -22.478 -18.545  0.00  0.00    +0.189 HD
ENDBRANCH   2  10
BRANCH   3  18
ATOM     18  O   UNL     1      34.036 -13.730 -22.670  0.00  0.00    -0.476 OA
BRANCH  18  19
ATOM     19  C   UNL     1      33.886 -13.583 -21.256  0.00  0.00    +0.184 C 
BRANCH  19  20
ATOM     20  C   UNL     1      32.406 -13.682 -20.865  0.00  0.00    -0.017 C 
BRANCH  20  21
ATOM     21  N   UNL     1      32.152 -15.034 -20.358  0.00  0.00    +0.384 N 
ATOM     22  H   UNL     1      33.040 -15.510 -20.199  0.00  0.00    -0.089 HD
ATOM     23  H   UNL     1      31.605 -15.556 -21.042  0.00  0.00    -0.089 HD
ATOM     24  H   UNL     1      31.635 -14.977 -19.481  0.00  0.00    -0.089 HD
ENDBRANCH  20  21
BRANCH  20  25
ATOM     25  C   UNL     1      31.999 -12.671 -19.772  0.00  0.00    +0.008 C 
BRANCH  25  27
ATOM     26 BR   UNL     1      31.787  -6.798 -21.651  0.00  0.00    -0.049 Br
ATOM     27  C   UNL     1      31.948 -11.234 -20.231  0.00  0.00    -0.024 C 
ATOM     28  C   UNL     1      32.100 -10.218 -19.302  0.00  0.00    -0.004 C 
ATOM     29  C   UNL     1      31.748 -10.959 -21.574  0.00  0.00    -0.004 C 
ATOM     30  C   UNL     1      32.052  -8.890 -19.727  0.00  0.00    +0.006 C 
ATOM     31  C   UNL     1      31.700  -9.631 -21.999  0.00  0.00    +0.006 C 
ATOM     32  C   UNL     1      31.853  -8.597 -21.076  0.00  0.00    +0.035 C 
ENDBRANCH  25  27
ENDBRANCH  20  25
ENDBRANCH  19  20
ENDBRANCH  18  19
ENDBRANCH   3  18
TORSDOF 7
ENDMDL
