MODEL 1
REMARK VINA RESULT:     -11.8      0.000      0.000
REMARK  Name = 24832041
REMARK  6 active torsions:
REMARK  status: ('A' for Active; 'I' for Inactive)
REMARK    1  A    between atoms: C_1  and  C_18
REMARK    2  A    between atoms: C_4  and  C_7
REMARK    3  A    between atoms: C_10  and  C_15
REMARK    4  A    between atoms: C_18  and  N_19
REMARK    5  A    between atoms: C_18  and  C_23
REMARK    6  A    between atoms: C_23  and  C_26
REMARK                            x       y       z     vdW  Elec       q    Type
REMARK                         _______ _______ _______ _____ _____    ______ ____
ROOT
ATOM      1  C   UNL     1      34.704 -19.909 -21.246  0.00  0.00    -0.042 C 
ATOM      2  C   UNL     1      35.895 -20.370 -20.686  0.00  0.00    -0.006 C 
ATOM      3  C   UNL     1      33.482 -20.244 -20.662  0.00  0.00    -0.006 C 
ATOM      4  C   UNL     1      34.643 -21.503 -18.957  0.00  0.00    -0.000 C 
ATOM      5  C   UNL     1      35.865 -21.167 -19.542  0.00  0.00    -0.000 C 
ATOM      6  C   UNL     1      33.452 -21.041 -19.518  0.00  0.00    -0.000 C 
ENDROOT
BRANCH   4   7
ATOM      7  C   UNL     1      34.612 -22.328 -17.770  0.00  0.00    +0.000 C 
ATOM      8  C   UNL     1      35.785 -22.561 -17.051  0.00  0.00    +0.005 C 
ATOM      9  C   UNL     1      33.410 -22.893 -17.344  0.00  0.00    +0.000 C 
ATOM     10  C   UNL     1      35.756 -23.357 -15.906  0.00  0.00    +0.053 C 
ATOM     11  C   UNL     1      33.381 -23.690 -16.199  0.00  0.00    +0.000 C 
ATOM     12  C   UNL     1      34.553 -23.922 -15.480  0.00  0.00    +0.005 C 
BRANCH  10  15
ATOM     13  O   UNL     1      37.572 -22.675 -14.570  0.00  0.00    -0.270 OA
ATOM     14  N   UNL     1      37.454 -24.904 -15.095  0.00  0.00    -0.325 N 
ATOM     15  C   UNL     1      36.977 -23.598 -15.155  0.00  0.00    +0.243 C 
ATOM     16  H   UNL     1      38.279 -25.105 -14.596  0.00  0.00    +0.145 HD
ATOM     17  H   UNL     1      36.967 -25.628 -15.552  0.00  0.00    +0.145 HD
ENDBRANCH  10  15
ENDBRANCH   4   7
BRANCH   1  18
ATOM     18  C   UNL     1      34.735 -19.056 -22.469  0.00  0.00    -0.038 C 
BRANCH  18  19
ATOM     19  N   UNL     1      35.092 -19.831 -23.676  0.00  0.00    +0.384 N 
ATOM     20  H   UNL     1      35.504 -20.723 -23.400  0.00  0.00    -0.089 HD
ATOM     21  H   UNL     1      35.767 -19.304 -24.232  0.00  0.00    -0.089 HD
ATOM     22  H   UNL     1      34.254 -20.003 -24.231  0.00  0.00    -0.089 HD
ENDBRANCH  18  19
BRANCH  18  23
ATOM     23  C   UNL     1      35.703 -17.840 -22.376  0.00  0.00    +0.011 C 
BRANCH  23  26
ATOM     24  F   UNL     1      35.030 -16.755 -24.908  0.00  0.00    -0.205 F 
ATOM     25  F   UNL     1      33.651 -13.824 -20.500  0.00  0.00    -0.204 F 
ATOM     26  C   UNL     1      34.995 -16.515 -22.547  0.00  0.00    +0.006 C 
ATOM     27  C   UNL     1      34.695 -16.042 -23.823  0.00  0.00    +0.136 C 
ATOM     28  C   UNL     1      34.643 -15.767 -21.424  0.00  0.00    +0.028 C 
ATOM     29  C   UNL     1      33.990 -14.544 -21.578  0.00  0.00    +0.140 C 
ATOM     30  C   UNL     1      34.042 -14.819 -23.978  0.00  0.00    +0.032 C 
ATOM     31  C   UNL     1      33.689 -14.070 -22.856  0.00  0.00    +0.032 C 
ENDBRANCH  23  26
ENDBRANCH  18  23
ENDBRANCH   1  18
TORSDOF 6
ENDMDL
MODEL 2
REMARK VINA RESULT:     -11.8      0.895      1.976
REMARK  Name = 24832041
REMARK  6 active torsions:
REMARK  status: ('A' for Active; 'I' for Inactive)
REMARK    1  A    between atoms: C_1  and  C_18
REMARK    2  A    between atoms: C_4  and  C_7
REMARK    3  A    between atoms: C_10  and  C_15
REMARK    4  A    between atoms: C_18  and  N_19
REMARK    5  A    between atoms: C_18  and  C_23
REMARK    6  A    between atoms: C_23  and  C_26
REMARK                            x       y       z     vdW  Elec       q    Type
REMARK                         _______ _______ _______ _____ _____    ______ ____
ROOT
ATOM      1  C   UNL     1      34.838 -19.921 -21.232  0.00  0.00    -0.042 C 
ATOM      2  C   UNL     1      33.665 -20.359 -20.620  0.00  0.00    -0.006 C 
ATOM      3  C   UNL     1      36.077 -20.252 -20.682  0.00  0.00    -0.006 C 
ATOM      4  C   UNL     1      34.968 -21.460 -18.907  0.00  0.00    -0.000 C 
ATOM      5  C   UNL     1      33.729 -21.129 -19.458  0.00  0.00    -0.000 C 
ATOM      6  C   UNL     1      36.142 -21.021 -19.520  0.00  0.00    -0.000 C 
ENDROOT
BRANCH   4   7
ATOM      7  C   UNL     1      35.034 -22.257 -17.703  0.00  0.00    +0.000 C 
ATOM      8  C   UNL     1      36.224 -22.329 -16.979  0.00  0.00    +0.005 C 
ATOM      9  C   UNL     1      33.909 -22.955 -17.266  0.00  0.00    +0.000 C 
ATOM     10  C   UNL     1      36.289 -23.099 -15.817  0.00  0.00    +0.053 C 
ATOM     11  C   UNL     1      33.973 -23.725 -16.105  0.00  0.00    +0.000 C 
ATOM     12  C   UNL     1      35.162 -23.797 -15.380  0.00  0.00    +0.005 C 
BRANCH  10  15
ATOM     13  O   UNL     1      37.562 -22.913 -13.845  0.00  0.00    -0.270 OA
ATOM     14  N   UNL     1      38.679 -23.563 -15.739  0.00  0.00    -0.325 N 
ATOM     15  C   UNL     1      37.528 -23.173 -15.060  0.00  0.00    +0.243 C 
ATOM     16  H   UNL     1      39.537 -23.624 -15.259  0.00  0.00    +0.145 HD
ATOM     17  H   UNL     1      38.636 -23.779 -16.698  0.00  0.00    +0.145 HD
ENDBRANCH  10  15
ENDBRANCH   4   7
BRANCH   1  18
ATOM     18  C   UNL     1      34.771 -19.100 -22.474  0.00  0.00    -0.038 C 
BRANCH  18  19
ATOM     19  N   UNL     1      35.080 -19.895 -23.682  0.00  0.00    +0.384 N 
ATOM     20  H   UNL     1      36.090 -20.022 -23.757  0.00  0.00    -0.089 HD
ATOM     21  H   UNL     1      34.737 -19.405 -24.509  0.00  0.00    -0.089 HD
ATOM     22  H   UNL     1      34.629 -20.807 -23.615  0.00  0.00    -0.089 HD
ENDBRANCH  18  19
BRANCH  18  23
ATOM     23  C   UNL     1      35.703 -17.853 -22.468  0.00  0.00    +0.011 C 
BRANCH  23  26
ATOM     24  F   UNL     1      34.796 -16.102 -20.430  0.00  0.00    -0.205 F 
ATOM     25  F   UNL     1      33.754 -14.652 -25.600  0.00  0.00    -0.204 F 
ATOM     26  C   UNL     1      34.961 -16.567 -22.752  0.00  0.00    +0.006 C 
ATOM     27  C   UNL     1      34.545 -15.753 -21.699  0.00  0.00    +0.136 C 
ATOM     28  C   UNL     1      34.695 -16.195 -24.070  0.00  0.00    +0.028 C 
ATOM     29  C   UNL     1      34.010 -15.009 -24.335  0.00  0.00    +0.140 C 
ATOM     30  C   UNL     1      33.860 -14.566 -21.965  0.00  0.00    +0.032 C 
ATOM     31  C   UNL     1      33.593 -14.194 -23.282  0.00  0.00    +0.032 C 
ENDBRANCH  23  26
ENDBRANCH  18  23
ENDBRANCH   1  18
TORSDOF 6
ENDMDL
MODEL 3
REMARK VINA RESULT:     -11.5      2.185      2.787
REMARK  Name = 24832041
REMARK  6 active torsions:
REMARK  status: ('A' for Active; 'I' for Inactive)
REMARK    1  A    between atoms: C_1  and  C_18
REMARK    2  A    between atoms: C_4  and  C_7
REMARK    3  A    between atoms: C_10  and  C_15
REMARK    4  A    between atoms: C_18  and  N_19
REMARK    5  A    between atoms: C_18  and  C_23
REMARK    6  A    between atoms: C_23  and  C_26
REMARK                            x       y       z     vdW  Elec       q    Type
REMARK                         _______ _______ _______ _____ _____    ______ ____
ROOT
ATOM      1  C   UNL     1      34.550 -20.001 -21.142  0.00  0.00    -0.042 C 
ATOM      2  C   UNL     1      33.252 -20.177 -20.665  0.00  0.00    -0.006 C 
ATOM      3  C   UNL     1      35.623 -20.597 -20.479  0.00  0.00    -0.006 C 
ATOM      4  C   UNL     1      34.098 -21.545 -18.862  0.00  0.00    -0.000 C 
ATOM      5  C   UNL     1      33.025 -20.948 -19.526  0.00  0.00    -0.000 C 
ATOM      6  C   UNL     1      35.398 -21.368 -19.339  0.00  0.00    -0.000 C 
ENDROOT
BRANCH   4   7
ATOM      7  C   UNL     1      33.863 -22.345 -17.681  0.00  0.00    +0.000 C 
ATOM      8  C   UNL     1      32.558 -22.626 -17.278  0.00  0.00    +0.005 C 
ATOM      9  C   UNL     1      34.941 -22.835 -16.945  0.00  0.00    +0.000 C 
ATOM     10  C   UNL     1      32.330 -23.398 -16.138  0.00  0.00    +0.053 C 
ATOM     11  C   UNL     1      34.714 -23.607 -15.805  0.00  0.00    +0.000 C 
ATOM     12  C   UNL     1      33.409 -23.889 -15.402  0.00  0.00    +0.005 C 
BRANCH  10  15
ATOM     13  O   UNL     1      30.732 -24.544 -14.842  0.00  0.00    -0.270 OA
ATOM     14  N   UNL     1      29.937 -22.980 -16.318  0.00  0.00    -0.325 N 
ATOM     15  C   UNL     1      30.970 -23.694 -15.718  0.00  0.00    +0.243 C 
ATOM     16  H   UNL     1      29.003 -23.154 -16.060  0.00  0.00    +0.145 HD
ATOM     17  H   UNL     1      30.140 -22.301 -17.001  0.00  0.00    +0.145 HD
ENDBRANCH  10  15
ENDBRANCH   4   7
BRANCH   1  18
ATOM     18  C   UNL     1      34.793 -19.177 -22.361  0.00  0.00    -0.038 C 
BRANCH  18  19
ATOM     19  N   UNL     1      35.334 -19.983 -23.476  0.00  0.00    +0.384 N 
ATOM     20  H   UNL     1      36.228 -19.593 -23.777  0.00  0.00    -0.089 HD
ATOM     21  H   UNL     1      34.677 -19.967 -24.257  0.00  0.00    -0.089 HD
ATOM     22  H   UNL     1      35.471 -20.945 -23.167  0.00  0.00    -0.089 HD
ENDBRANCH  18  19
BRANCH  18  23
ATOM     23  C   UNL     1      35.747 -17.968 -22.136  0.00  0.00    +0.011 C 
BRANCH  23  26
ATOM     24  F   UNL     1      35.244 -16.843 -24.690  0.00  0.00    -0.205 F 
ATOM     25  F   UNL     1      33.604 -13.963 -20.339  0.00  0.00    -0.204 F 
ATOM     26  C   UNL     1      35.060 -16.636 -22.333  0.00  0.00    +0.006 C 
ATOM     27  C   UNL     1      34.845 -16.143 -23.619  0.00  0.00    +0.136 C 
ATOM     28  C   UNL     1      34.641 -15.900 -21.224  0.00  0.00    +0.028 C 
ATOM     29  C   UNL     1      34.007 -14.671 -21.403  0.00  0.00    +0.140 C 
ATOM     30  C   UNL     1      34.210 -14.913 -23.798  0.00  0.00    +0.032 C 
ATOM     31  C   UNL     1      33.791 -14.177 -22.690  0.00  0.00    +0.032 C 
ENDBRANCH  23  26
ENDBRANCH  18  23
ENDBRANCH   1  18
TORSDOF 6
ENDMDL
MODEL 4
REMARK VINA RESULT:     -11.5      4.577      9.776
REMARK  Name = 24832041
REMARK  6 active torsions:
REMARK  status: ('A' for Active; 'I' for Inactive)
REMARK    1  A    between atoms: C_1  and  C_18
REMARK    2  A    between atoms: C_4  and  C_7
REMARK    3  A    between atoms: C_10  and  C_15
REMARK    4  A    between atoms: C_18  and  N_19
REMARK    5  A    between atoms: C_18  and  C_23
REMARK    6  A    between atoms: C_23  and  C_26
REMARK                            x       y       z     vdW  Elec       q    Type
REMARK                         _______ _______ _______ _____ _____    ______ ____
ROOT
ATOM      1  C   UNL     1      35.495 -17.835 -21.464  0.00  0.00    -0.042 C 
ATOM      2  C   UNL     1      35.566 -17.972 -22.850  0.00  0.00    -0.006 C 
ATOM      3  C   UNL     1      34.998 -16.658 -20.904  0.00  0.00    -0.006 C 
ATOM      4  C   UNL     1      34.644 -15.754 -23.118  0.00  0.00    -0.000 C 
ATOM      5  C   UNL     1      35.141 -16.933 -23.677  0.00  0.00    -0.000 C 
ATOM      6  C   UNL     1      34.573 -15.618 -21.731  0.00  0.00    -0.000 C 
ENDROOT
BRANCH   4   7
ATOM      7  C   UNL     1      34.203 -14.677 -23.975  0.00  0.00    +0.000 C 
ATOM      8  C   UNL     1      34.371 -13.352 -23.572  0.00  0.00    +0.005 C 
ATOM      9  C   UNL     1      33.610 -14.962 -25.204  0.00  0.00    +0.000 C 
ATOM     10  C   UNL     1      33.945 -12.312 -24.399  0.00  0.00    +0.053 C 
ATOM     11  C   UNL     1      33.184 -13.922 -26.031  0.00  0.00    +0.000 C 
ATOM     12  C   UNL     1      33.351 -12.598 -25.629  0.00  0.00    +0.005 C 
BRANCH  10  15
ATOM     13  O   UNL     1      33.258 -10.341 -23.307  0.00  0.00    -0.270 OA
ATOM     14  N   UNL     1      35.301 -10.289 -24.346  0.00  0.00    -0.325 N 
ATOM     15  C   UNL     1      34.121 -10.930 -23.981  0.00  0.00    +0.243 C 
ATOM     16  H   UNL     1      35.456  -9.354 -24.081  0.00  0.00    +0.145 HD
ATOM     17  H   UNL     1      35.983 -10.771 -24.868  0.00  0.00    +0.145 HD
ENDBRANCH  10  15
ENDBRANCH   4   7
BRANCH   1  18
ATOM     18  C   UNL     1      35.948 -18.946 -20.580  0.00  0.00    -0.038 C 
BRANCH  18  19
ATOM     19  N   UNL     1      37.421 -19.075 -20.561  0.00  0.00    +0.384 N 
ATOM     20  H   UNL     1      37.689 -19.826 -19.925  0.00  0.00    -0.089 HD
ATOM     21  H   UNL     1      37.834 -18.197 -20.243  0.00  0.00    -0.089 HD
ATOM     22  H   UNL     1      37.756 -19.288 -21.499  0.00  0.00    -0.089 HD
ENDBRANCH  18  19
BRANCH  18  23
ATOM     23  C   UNL     1      35.350 -20.337 -20.942  0.00  0.00    +0.011 C 
BRANCH  23  26
ATOM     24  F   UNL     1      32.662 -21.010 -20.338  0.00  0.00    -0.205 F 
ATOM     25  F   UNL     1      36.504 -22.750 -16.856  0.00  0.00    -0.204 F 
ATOM     26  C   UNL     1      34.951 -21.138 -19.724  0.00  0.00    +0.006 C 
ATOM     27  C   UNL     1      33.609 -21.433 -19.489  0.00  0.00    +0.136 C 
ATOM     28  C   UNL     1      35.930 -21.583 -18.835  0.00  0.00    +0.028 C 
ATOM     29  C   UNL     1      35.565 -22.323 -17.710  0.00  0.00    +0.140 C 
ATOM     30  C   UNL     1      33.244 -22.173 -18.363  0.00  0.00    +0.032 C 
ATOM     31  C   UNL     1      34.222 -22.618 -17.474  0.00  0.00    +0.032 C 
ENDBRANCH  23  26
ENDBRANCH  18  23
ENDBRANCH   1  18
TORSDOF 6
ENDMDL
MODEL 5
REMARK VINA RESULT:     -11.4      4.552      9.641
REMARK  Name = 24832041
REMARK  6 active torsions:
REMARK  status: ('A' for Active; 'I' for Inactive)
REMARK    1  A    between atoms: C_1  and  C_18
REMARK    2  A    between atoms: C_4  and  C_7
REMARK    3  A    between atoms: C_10  and  C_15
REMARK    4  A    between atoms: C_18  and  N_19
REMARK    5  A    between atoms: C_18  and  C_23
REMARK    6  A    between atoms: C_23  and  C_26
REMARK                            x       y       z     vdW  Elec       q    Type
REMARK                         _______ _______ _______ _____ _____    ______ ____
ROOT
ATOM      1  C   UNL     1      35.266 -17.063 -21.836  0.00  0.00    -0.042 C 
ATOM      2  C   UNL     1      35.300 -16.521 -23.120  0.00  0.00    -0.006 C 
ATOM      3  C   UNL     1      34.738 -16.321 -20.780  0.00  0.00    -0.006 C 
ATOM      4  C   UNL     1      34.278 -14.494 -22.293  0.00  0.00    -0.000 C 
ATOM      5  C   UNL     1      34.807 -15.237 -23.350  0.00  0.00    -0.000 C 
ATOM      6  C   UNL     1      34.244 -15.036 -21.008  0.00  0.00    -0.000 C 
ENDROOT
BRANCH   4   7
ATOM      7  C   UNL     1      33.766 -13.163 -22.531  0.00  0.00    +0.000 C 
ATOM      8  C   UNL     1      32.832 -12.608 -21.655  0.00  0.00    +0.005 C 
ATOM      9  C   UNL     1      34.204 -12.434 -23.636  0.00  0.00    +0.000 C 
ATOM     10  C   UNL     1      32.337 -11.324 -21.884  0.00  0.00    +0.053 C 
ATOM     11  C   UNL     1      33.709 -11.150 -23.865  0.00  0.00    +0.000 C 
ATOM     12  C   UNL     1      32.776 -10.595 -22.990  0.00  0.00    +0.005 C 
BRANCH  10  15
ATOM     13  O   UNL     1      31.519  -9.604 -20.499  0.00  0.00    -0.270 OA
ATOM     14  N   UNL     1      30.243 -11.503 -20.653  0.00  0.00    -0.325 N 
ATOM     15  C   UNL     1      31.366 -10.744 -20.971  0.00  0.00    +0.243 C 
ATOM     16  H   UNL     1      29.564 -11.143 -20.037  0.00  0.00    +0.145 HD
ATOM     17  H   UNL     1      30.127 -12.399 -21.043  0.00  0.00    +0.145 HD
ENDBRANCH  10  15
ENDBRANCH   4   7
BRANCH   1  18
ATOM     18  C   UNL     1      35.793 -18.436 -21.590  0.00  0.00    -0.038 C 
BRANCH  18  19
ATOM     19  N   UNL     1      36.913 -18.770 -22.496  0.00  0.00    +0.384 N 
ATOM     20  H   UNL     1      36.785 -18.292 -23.388  0.00  0.00    -0.089 HD
ATOM     21  H   UNL     1      36.936 -19.779 -22.651  0.00  0.00    -0.089 HD
ATOM     22  H   UNL     1      37.793 -18.472 -22.074  0.00  0.00    -0.089 HD
ENDBRANCH  18  19
BRANCH  18  23
ATOM     23  C   UNL     1      34.725 -19.562 -21.712  0.00  0.00    +0.011 C 
BRANCH  23  26
ATOM     24  F   UNL     1      32.324 -20.524 -20.549  0.00  0.00    -0.205 F 
ATOM     25  F   UNL     1      37.019 -22.116 -18.238  0.00  0.00    -0.204 F 
ATOM     26  C   UNL     1      34.697 -20.475 -20.508  0.00  0.00    +0.006 C 
ATOM     27  C   UNL     1      33.479 -20.910 -19.988  0.00  0.00    +0.136 C 
ATOM     28  C   UNL     1      35.894 -20.882 -19.918  0.00  0.00    +0.028 C 
ATOM     29  C   UNL     1      35.871 -21.725 -18.806  0.00  0.00    +0.140 C 
ATOM     30  C   UNL     1      33.456 -21.753 -18.877  0.00  0.00    +0.032 C 
ATOM     31  C   UNL     1      34.652 -22.161 -18.286  0.00  0.00    +0.032 C 
ENDBRANCH  23  26
ENDBRANCH  18  23
ENDBRANCH   1  18
TORSDOF 6
ENDMDL
MODEL 6
REMARK VINA RESULT:     -11.4      4.339      9.220
REMARK  Name = 24832041
REMARK  6 active torsions:
REMARK  status: ('A' for Active; 'I' for Inactive)
REMARK    1  A    between atoms: C_1  and  C_18
REMARK    2  A    between atoms: C_4  and  C_7
REMARK    3  A    between atoms: C_10  and  C_15
REMARK    4  A    between atoms: C_18  and  N_19
REMARK    5  A    between atoms: C_18  and  C_23
REMARK    6  A    between atoms: C_23  and  C_26
REMARK                            x       y       z     vdW  Elec       q    Type
REMARK                         _______ _______ _______ _____ _____    ______ ____
ROOT
ATOM      1  C   UNL     1      34.235 -21.836 -19.061  0.00  0.00    -0.042 C 
ATOM      2  C   UNL     1      35.516 -21.443 -19.446  0.00  0.00    -0.006 C 
ATOM      3  C   UNL     1      33.120 -21.154 -19.550  0.00  0.00    -0.006 C 
ATOM      4  C   UNL     1      34.570 -19.686 -20.809  0.00  0.00    -0.000 C 
ATOM      5  C   UNL     1      35.684 -20.369 -20.320  0.00  0.00    -0.000 C 
ATOM      6  C   UNL     1      33.288 -20.079 -20.423  0.00  0.00    -0.000 C 
ENDROOT
BRANCH   4   7
ATOM      7  C   UNL     1      34.744 -18.572 -21.714  0.00  0.00    +0.000 C 
ATOM      8  C   UNL     1      34.613 -17.265 -21.245  0.00  0.00    +0.005 C 
ATOM      9  C   UNL     1      35.043 -18.805 -23.056  0.00  0.00    +0.000 C 
ATOM     10  C   UNL     1      34.780 -16.190 -22.119  0.00  0.00    +0.053 C 
ATOM     11  C   UNL     1      35.211 -17.731 -23.930  0.00  0.00    +0.000 C 
ATOM     12  C   UNL     1      35.080 -16.423 -23.462  0.00  0.00    +0.005 C 
BRANCH  10  15
ATOM     13  O   UNL     1      34.538 -14.580 -20.417  0.00  0.00    -0.270 OA
ATOM     14  N   UNL     1      34.659 -13.799 -22.570  0.00  0.00    -0.325 N 
ATOM     15  C   UNL     1      34.646 -14.827 -21.631  0.00  0.00    +0.243 C 
ATOM     16  H   UNL     1      34.569 -12.863 -22.277  0.00  0.00    +0.145 HD
ATOM     17  H   UNL     1      34.758 -14.007 -23.527  0.00  0.00    +0.145 HD
ENDBRANCH  10  15
ENDBRANCH   4   7
BRANCH   1  18
ATOM     18  C   UNL     1      34.055 -22.985 -18.129  0.00  0.00    -0.038 C 
BRANCH  18  19
ATOM     19  N   UNL     1      33.813 -24.252 -18.851  0.00  0.00    +0.384 N 
ATOM     20  H   UNL     1      34.691 -24.593 -19.245  0.00  0.00    -0.089 HD
ATOM     21  H   UNL     1      33.142 -24.092 -19.603  0.00  0.00    -0.089 HD
ATOM     22  H   UNL     1      33.440 -24.947 -18.205  0.00  0.00    -0.089 HD
ENDBRANCH  18  19
BRANCH  18  23
ATOM     23  C   UNL     1      32.907 -22.795 -17.095  0.00  0.00    +0.011 C 
BRANCH  23  26
ATOM     24  F   UNL     1      30.980 -23.433 -15.114  0.00  0.00    -0.205 F 
ATOM     25  F   UNL     1      36.241 -24.088 -13.768  0.00  0.00    -0.204 F 
ATOM     26  C   UNL     1      33.272 -23.297 -15.716  0.00  0.00    +0.006 C 
ATOM     27  C   UNL     1      32.271 -23.592 -14.791  0.00  0.00    +0.136 C 
ATOM     28  C   UNL     1      34.613 -23.465 -15.372  0.00  0.00    +0.028 C 
ATOM     29  C   UNL     1      34.954 -23.927 -14.100  0.00  0.00    +0.140 C 
ATOM     30  C   UNL     1      32.612 -24.054 -13.520  0.00  0.00    +0.032 C 
ATOM     31  C   UNL     1      33.952 -24.223 -13.174  0.00  0.00    +0.032 C 
ENDBRANCH  23  26
ENDBRANCH  18  23
ENDBRANCH   1  18
TORSDOF 6
ENDMDL
MODEL 7
REMARK VINA RESULT:     -11.4      4.671      9.399
REMARK  Name = 24832041
REMARK  6 active torsions:
REMARK  status: ('A' for Active; 'I' for Inactive)
REMARK    1  A    between atoms: C_1  and  C_18
REMARK    2  A    between atoms: C_4  and  C_7
REMARK    3  A    between atoms: C_10  and  C_15
REMARK    4  A    between atoms: C_18  and  N_19
REMARK    5  A    between atoms: C_18  and  C_23
REMARK    6  A    between atoms: C_23  and  C_26
REMARK                            x       y       z     vdW  Elec       q    Type
REMARK                         _______ _______ _______ _____ _____    ______ ____
ROOT
ATOM      1  C   UNL     1      33.900 -21.871 -18.697  0.00  0.00    -0.042 C 
ATOM      2  C   UNL     1      35.205 -21.649 -19.135  0.00  0.00    -0.006 C 
ATOM      3  C   UNL     1      32.844 -21.155 -19.261  0.00  0.00    -0.006 C 
ATOM      4  C   UNL     1      34.399 -19.995 -20.701  0.00  0.00    -0.000 C 
ATOM      5  C   UNL     1      35.455 -20.712 -20.137  0.00  0.00    -0.000 C 
ATOM      6  C   UNL     1      33.093 -20.217 -20.262  0.00  0.00    -0.000 C 
ENDROOT
BRANCH   4   7
ATOM      7  C   UNL     1      34.658 -19.023 -21.740  0.00  0.00    +0.000 C 
ATOM      8  C   UNL     1      34.615 -17.660 -21.446  0.00  0.00    +0.005 C 
ATOM      9  C   UNL     1      34.952 -19.449 -23.035  0.00  0.00    +0.000 C 
ATOM     10  C   UNL     1      34.865 -16.722 -22.449  0.00  0.00    +0.053 C 
ATOM     11  C   UNL     1      35.201 -18.511 -24.037  0.00  0.00    +0.000 C 
ATOM     12  C   UNL     1      35.158 -17.148 -23.745  0.00  0.00    +0.005 C 
BRANCH  10  15
ATOM     13  O   UNL     1      35.034 -14.443 -23.019  0.00  0.00    -0.270 OA
ATOM     14  N   UNL     1      34.518 -14.928 -20.838  0.00  0.00    -0.325 N 
ATOM     15  C   UNL     1      34.822 -15.301 -22.143  0.00  0.00    +0.243 C 
ATOM     16  H   UNL     1      34.481 -13.975 -20.593  0.00  0.00    +0.145 HD
ATOM     17  H   UNL     1      34.340 -15.617 -20.157  0.00  0.00    +0.145 HD
ENDBRANCH  10  15
ENDBRANCH   4   7
BRANCH   1  18
ATOM     18  C   UNL     1      33.632 -22.874 -17.627  0.00  0.00    -0.038 C 
BRANCH  18  19
ATOM     19  N   UNL     1      33.653 -24.259 -18.147  0.00  0.00    +0.384 N 
ATOM     20  H   UNL     1      34.603 -24.501 -18.431  0.00  0.00    -0.089 HD
ATOM     21  H   UNL     1      33.029 -24.330 -18.951  0.00  0.00    -0.089 HD
ATOM     22  H   UNL     1      33.344 -24.901 -17.418  0.00  0.00    -0.089 HD
ENDBRANCH  18  19
BRANCH  18  23
ATOM     23  C   UNL     1      32.284 -22.664 -16.877  0.00  0.00    +0.011 C 
BRANCH  23  26
ATOM     24  F   UNL     1      34.276 -22.718 -14.859  0.00  0.00    -0.205 F 
ATOM     25  F   UNL     1      29.863 -25.855 -14.081  0.00  0.00    -0.204 F 
ATOM     26  C   UNL     1      32.173 -23.507 -15.627  0.00  0.00    +0.006 C 
ATOM     27  C   UNL     1      33.192 -23.484 -14.675  0.00  0.00    +0.136 C 
ATOM     28  C   UNL     1      31.048 -24.307 -15.427  0.00  0.00    +0.028 C 
ATOM     29  C   UNL     1      30.942 -25.086 -14.274  0.00  0.00    +0.140 C 
ATOM     30  C   UNL     1      33.086 -24.263 -13.522  0.00  0.00    +0.032 C 
ATOM     31  C   UNL     1      31.962 -25.063 -13.321  0.00  0.00    +0.032 C 
ENDBRANCH  23  26
ENDBRANCH  18  23
ENDBRANCH   1  18
TORSDOF 6
ENDMDL
MODEL 8
REMARK VINA RESULT:     -11.3      4.580      9.323
REMARK  Name = 24832041
REMARK  6 active torsions:
REMARK  status: ('A' for Active; 'I' for Inactive)
REMARK    1  A    between atoms: C_1  and  C_18
REMARK    2  A    between atoms: C_4  and  C_7
REMARK    3  A    between atoms: C_10  and  C_15
REMARK    4  A    between atoms: C_18  and  N_19
REMARK    5  A    between atoms: C_18  and  C_23
REMARK    6  A    between atoms: C_23  and  C_26
REMARK                            x       y       z     vdW  Elec       q    Type
REMARK                         _______ _______ _______ _____ _____    ______ ____
ROOT
ATOM      1  C   UNL     1      34.485 -22.184 -18.336  0.00  0.00    -0.042 C 
ATOM      2  C   UNL     1      33.335 -21.649 -18.914  0.00  0.00    -0.006 C 
ATOM      3  C   UNL     1      35.743 -21.795 -18.797  0.00  0.00    -0.006 C 
ATOM      4  C   UNL     1      34.698 -20.336 -20.416  0.00  0.00    -0.000 C 
ATOM      5  C   UNL     1      33.440 -20.726 -19.954  0.00  0.00    -0.000 C 
ATOM      6  C   UNL     1      35.849 -20.872 -19.837  0.00  0.00    -0.000 C 
ENDROOT
BRANCH   4   7
ATOM      7  C   UNL     1      34.807 -19.379 -21.493  0.00  0.00    +0.000 C 
ATOM      8  C   UNL     1      34.771 -18.011 -21.218  0.00  0.00    +0.005 C 
ATOM      9  C   UNL     1      34.949 -19.821 -22.808  0.00  0.00    +0.000 C 
ATOM     10  C   UNL     1      34.876 -17.087 -22.257  0.00  0.00    +0.053 C 
ATOM     11  C   UNL     1      35.054 -18.896 -23.848  0.00  0.00    +0.000 C 
ATOM     12  C   UNL     1      35.018 -17.530 -23.573  0.00  0.00    +0.005 C 
BRANCH  10  15
ATOM     13  O   UNL     1      35.177 -14.820 -22.822  0.00  0.00    -0.270 OA
ATOM     14  N   UNL     1      34.398 -15.265 -20.712  0.00  0.00    -0.325 N 
ATOM     15  C   UNL     1      34.840 -15.662 -21.971  0.00  0.00    +0.243 C 
ATOM     16  H   UNL     1      34.361 -14.308 -20.482  0.00  0.00    +0.145 HD
ATOM     17  H   UNL     1      34.122 -15.941 -20.052  0.00  0.00    +0.145 HD
ENDBRANCH  10  15
ENDBRANCH   4   7
BRANCH   1  18
ATOM     18  C   UNL     1      34.373 -23.170 -17.223  0.00  0.00    -0.038 C 
BRANCH  18  19
ATOM     19  N   UNL     1      32.969 -23.552 -16.960  0.00  0.00    +0.384 N 
ATOM     20  H   UNL     1      32.946 -24.438 -16.454  0.00  0.00    -0.089 HD
ATOM     21  H   UNL     1      32.472 -23.654 -17.846  0.00  0.00    -0.089 HD
ATOM     22  H   UNL     1      32.518 -22.829 -16.399  0.00  0.00    -0.089 HD
ENDBRANCH  18  19
BRANCH  18  23
ATOM     23  C   UNL     1      35.001 -22.694 -15.881  0.00  0.00    +0.011 C 
BRANCH  23  26
ATOM     24  F   UNL     1      37.716 -21.878 -15.819  0.00  0.00    -0.205 F 
ATOM     25  F   UNL     1      36.608 -26.960 -14.127  0.00  0.00    -0.204 F 
ATOM     26  C   UNL     1      36.123 -23.590 -15.409  0.00  0.00    +0.006 C 
ATOM     27  C   UNL     1      37.437 -23.122 -15.406  0.00  0.00    +0.136 C 
ATOM     28  C   UNL     1      35.842 -24.886 -14.977  0.00  0.00    +0.028 C 
ATOM     29  C   UNL     1      36.876 -25.716 -14.542  0.00  0.00    +0.140 C 
ATOM     30  C   UNL     1      38.471 -23.952 -14.971  0.00  0.00    +0.032 C 
ATOM     31  C   UNL     1      38.191 -25.248 -14.538  0.00  0.00    +0.032 C 
ENDBRANCH  23  26
ENDBRANCH  18  23
ENDBRANCH   1  18
TORSDOF 6
ENDMDL
MODEL 9
REMARK VINA RESULT:     -11.2      4.316      9.178
REMARK  Name = 24832041
REMARK  6 active torsions:
REMARK  status: ('A' for Active; 'I' for Inactive)
REMARK    1  A    between atoms: C_1  and  C_18
REMARK    2  A    between atoms: C_4  and  C_7
REMARK    3  A    between atoms: C_10  and  C_15
REMARK    4  A    between atoms: C_18  and  N_19
REMARK    5  A    between atoms: C_18  and  C_23
REMARK    6  A    between atoms: C_23  and  C_26
REMARK                            x       y       z     vdW  Elec       q    Type
REMARK                         _______ _______ _______ _____ _____    ______ ____
ROOT
ATOM      1  C   UNL     1      34.865 -21.604 -19.333  0.00  0.00    -0.042 C 
ATOM      2  C   UNL     1      33.662 -21.035 -19.749  0.00  0.00    -0.006 C 
ATOM      3  C   UNL     1      36.077 -21.068 -19.768  0.00  0.00    -0.006 C 
ATOM      4  C   UNL     1      34.882 -19.393 -21.036  0.00  0.00    -0.000 C 
ATOM      5  C   UNL     1      33.670 -19.930 -20.600  0.00  0.00    -0.000 C 
ATOM      6  C   UNL     1      36.086 -19.963 -20.619  0.00  0.00    -0.000 C 
ENDROOT
BRANCH   4   7
ATOM      7  C   UNL     1      34.890 -18.247 -21.917  0.00  0.00    +0.000 C 
ATOM      8  C   UNL     1      34.742 -16.963 -21.392  0.00  0.00    +0.005 C 
ATOM      9  C   UNL     1      35.046 -18.425 -23.291  0.00  0.00    +0.000 C 
ATOM     10  C   UNL     1      34.750 -15.857 -22.243  0.00  0.00    +0.053 C 
ATOM     11  C   UNL     1      35.053 -17.319 -24.142  0.00  0.00    +0.000 C 
ATOM     12  C   UNL     1      34.906 -16.035 -23.618  0.00  0.00    +0.005 C 
BRANCH  10  15
ATOM     13  O   UNL     1      34.493 -14.324 -20.473  0.00  0.00    -0.270 OA
ATOM     14  N   UNL     1      34.593 -13.451 -22.591  0.00  0.00    -0.325 N 
ATOM     15  C   UNL     1      34.599 -14.518 -21.697  0.00  0.00    +0.243 C 
ATOM     16  H   UNL     1      34.492 -12.530 -22.258  0.00  0.00    +0.145 HD
ATOM     17  H   UNL     1      34.691 -13.617 -23.556  0.00  0.00    +0.145 HD
ENDBRANCH  10  15
ENDBRANCH   4   7
BRANCH   1  18
ATOM     18  C   UNL     1      34.857 -22.785 -18.423  0.00  0.00    -0.038 C 
BRANCH  18  19
ATOM     19  N   UNL     1      33.769 -23.731 -18.752  0.00  0.00    +0.384 N 
ATOM     20  H   UNL     1      33.696 -23.827 -19.765  0.00  0.00    -0.089 HD
ATOM     21  H   UNL     1      32.887 -23.378 -18.380  0.00  0.00    -0.089 HD
ATOM     22  H   UNL     1      33.972 -24.641 -18.339  0.00  0.00    -0.089 HD
ENDBRANCH  18  19
BRANCH  18  23
ATOM     23  C   UNL     1      34.741 -22.427 -16.913  0.00  0.00    +0.011 C 
BRANCH  23  26
ATOM     24  F   UNL     1      37.402 -21.450 -16.820  0.00  0.00    -0.205 F 
ATOM     25  F   UNL     1      36.263 -25.854 -13.783  0.00  0.00    -0.204 F 
ATOM     26  C   UNL     1      35.828 -23.063 -16.076  0.00  0.00    +0.006 C 
ATOM     27  C   UNL     1      37.116 -22.529 -16.078  0.00  0.00    +0.136 C 
ATOM     28  C   UNL     1      35.539 -24.186 -15.300  0.00  0.00    +0.028 C 
ATOM     29  C   UNL     1      36.539 -24.776 -14.527  0.00  0.00    +0.140 C 
ATOM     30  C   UNL     1      38.116 -23.119 -15.305  0.00  0.00    +0.032 C 
ATOM     31  C   UNL     1      37.829 -24.241 -14.529  0.00  0.00    +0.032 C 
ENDBRANCH  23  26
ENDBRANCH  18  23
ENDBRANCH   1  18
TORSDOF 6
ENDMDL
