MODEL 1
REMARK VINA RESULT:     -12.3      0.000      0.000
REMARK  Name = 5288710
REMARK  3 active torsions:
REMARK  status: ('A' for Active; 'I' for Inactive)
REMARK    1  A    between atoms: C_6  and  N_18
REMARK    2  A    between atoms: C_9  and  C_15
REMARK    3  A    between atoms: N_18  and  C_29
REMARK                            x       y       z     vdW  Elec       q    Type
REMARK                         _______ _______ _______ _____ _____    ______ ____
ROOT
ATOM      1  O   UNL     1      35.177 -23.865 -15.553  0.00  0.00    -0.270 OA
ATOM      2  N   UNL     1      33.194 -23.969 -14.273  0.00  0.00    -0.280 N 
ATOM      3  C   UNL     1      31.677 -23.170 -15.806  0.00  0.00    +0.019 C 
ATOM      4  C   UNL     1      33.004 -23.186 -16.414  0.00  0.00    +0.069 C 
ATOM      5  C   UNL     1      31.850 -23.655 -14.507  0.00  0.00    +0.051 C 
ATOM      6  C   UNL     1      33.359 -22.815 -17.647  0.00  0.00    +0.066 C 
ATOM      7  C   UNL     1      33.979 -23.710 -15.400  0.00  0.00    +0.251 C 
ATOM      8  C   UNL     1      30.427 -22.795 -16.259  0.00  0.00    +0.005 C 
ATOM      9  C   UNL     1      29.349 -22.917 -15.377  0.00  0.00    +0.036 C 
ATOM     10  C   UNL     1      30.800 -23.785 -13.619  0.00  0.00    +0.015 C 
ATOM     11  C   UNL     1      29.532 -23.407 -14.070  0.00  0.00    +0.004 C 
ATOM     12  H   UNL     1      33.541 -24.327 -13.424  0.00  0.00    +0.155 HD
ENDROOT
BRANCH   9  15
ATOM     13  O   UNL     1      27.885 -22.288 -17.139  0.00  0.00    -0.431 OA
ATOM     14  N   UNL     1      25.882 -21.980 -16.133  0.00  0.00    -0.203 NA
ATOM     15  C   UNL     1      28.026 -22.535 -15.812  0.00  0.00    +0.166 C 
ATOM     16  C   UNL     1      26.819 -22.350 -15.202  0.00  0.00    +0.140 C 
ATOM     17  C   UNL     1      26.568 -21.961 -17.253  0.00  0.00    +0.285 C 
ENDBRANCH   9  15
BRANCH   6  18
ATOM     18  N   UNL     1      34.593 -22.836 -18.196  0.00  0.00    -0.311 N 
ATOM     19  H   UNL     1      35.110 -23.661 -18.053  0.00  0.00    +0.152 HD
BRANCH  18  29
ATOM     20  S   UNL     1      35.791 -18.295 -22.334  0.00  0.00    -0.002 S 
ATOM     21  O   UNL     1      36.054 -18.852 -23.647  0.00  0.00    -0.172 OA
ATOM     22  O   UNL     1      35.528 -16.883 -22.146  0.00  0.00    -0.172 OA
ATOM     23  C   UNL     1      34.453 -19.220 -21.598  0.00  0.00    +0.177 C 
ATOM     24  C   UNL     1      37.132 -18.767 -21.253  0.00  0.00    +0.177 C 
ATOM     25  C   UNL     1      35.155 -20.085 -20.608  0.00  0.00    +0.000 C 
ATOM     26  C   UNL     1      36.525 -19.854 -20.431  0.00  0.00    -0.001 C 
ATOM     27  C   UNL     1      34.510 -21.073 -19.866  0.00  0.00    +0.012 C 
ATOM     28  C   UNL     1      37.251 -20.610 -19.513  0.00  0.00    -0.002 C 
ATOM     29  C   UNL     1      35.238 -21.832 -18.950  0.00  0.00    +0.048 C 
ATOM     30  C   UNL     1      36.605 -21.601 -18.773  0.00  0.00    +0.014 C 
ENDBRANCH  18  29
ENDBRANCH   6  18
TORSDOF 3
ENDMDL
MODEL 2
REMARK VINA RESULT:     -11.7      2.423      3.906
REMARK  Name = 5288710
REMARK  3 active torsions:
REMARK  status: ('A' for Active; 'I' for Inactive)
REMARK    1  A    between atoms: C_6  and  N_18
REMARK    2  A    between atoms: C_9  and  C_15
REMARK    3  A    between atoms: N_18  and  C_29
REMARK                            x       y       z     vdW  Elec       q    Type
REMARK                         _______ _______ _______ _____ _____    ______ ____
ROOT
ATOM      1  O   UNL     1      37.220 -21.412 -19.196  0.00  0.00    -0.270 OA
ATOM      2  N   UNL     1      36.269 -22.405 -17.276  0.00  0.00    -0.280 N 
ATOM      3  C   UNL     1      34.036 -22.268 -17.810  0.00  0.00    +0.019 C 
ATOM      4  C   UNL     1      34.821 -21.692 -18.897  0.00  0.00    +0.069 C 
ATOM      5  C   UNL     1      34.965 -22.686 -16.853  0.00  0.00    +0.051 C 
ATOM      6  C   UNL     1      34.389 -21.154 -20.041  0.00  0.00    +0.066 C 
ATOM      7  C   UNL     1      36.273 -21.789 -18.531  0.00  0.00    +0.251 C 
ATOM      8  C   UNL     1      32.681 -22.446 -17.604  0.00  0.00    +0.005 C 
ATOM      9  C   UNL     1      32.276 -23.054 -16.412  0.00  0.00    +0.036 C 
ATOM     10  C   UNL     1      34.587 -23.289 -15.669  0.00  0.00    +0.015 C 
ATOM     11  C   UNL     1      33.219 -23.471 -15.453  0.00  0.00    +0.004 C 
ATOM     12  H   UNL     1      37.079 -22.615 -16.756  0.00  0.00    +0.155 HD
ENDROOT
BRANCH   9  15
ATOM     13  O   UNL     1      30.021 -22.420 -16.810  0.00  0.00    -0.431 OA
ATOM     14  N   UNL     1      28.798 -23.842 -15.545  0.00  0.00    -0.203 NA
ATOM     15  C   UNL     1      30.869 -23.256 -16.158  0.00  0.00    +0.166 C 
ATOM     16  C   UNL     1      30.134 -24.115 -15.394  0.00  0.00    +0.140 C 
ATOM     17  C   UNL     1      28.795 -22.837 -16.390  0.00  0.00    +0.285 C 
ENDBRANCH   9  15
BRANCH   6  18
ATOM     18  N   UNL     1      35.129 -20.623 -21.038  0.00  0.00    -0.311 N 
ATOM     19  H   UNL     1      35.861 -21.188 -21.374  0.00  0.00    +0.152 HD
BRANCH  18  29
ATOM     20  S   UNL     1      34.145 -14.530 -22.081  0.00  0.00    -0.002 S 
ATOM     21  O   UNL     1      32.726 -14.242 -22.143  0.00  0.00    -0.172 OA
ATOM     22  O   UNL     1      35.130 -13.476 -21.950  0.00  0.00    -0.172 OA
ATOM     23  C   UNL     1      34.413 -15.716 -20.772  0.00  0.00    +0.177 C 
ATOM     24  C   UNL     1      34.571 -15.527 -23.500  0.00  0.00    +0.177 C 
ATOM     25  C   UNL     1      34.633 -16.987 -21.519  0.00  0.00    +0.000 C 
ATOM     26  C   UNL     1      34.714 -16.891 -22.914  0.00  0.00    -0.001 C 
ATOM     27  C   UNL     1      34.772 -18.224 -20.893  0.00  0.00    +0.012 C 
ATOM     28  C   UNL     1      34.935 -18.031 -23.684  0.00  0.00    -0.002 C 
ATOM     29  C   UNL     1      34.989 -19.366 -21.665  0.00  0.00    +0.048 C 
ATOM     30  C   UNL     1      35.070 -19.270 -23.056  0.00  0.00    +0.014 C 
ENDBRANCH  18  29
ENDBRANCH   6  18
TORSDOF 3
ENDMDL
MODEL 3
REMARK VINA RESULT:     -11.5     10.879     14.074
REMARK  Name = 5288710
REMARK  3 active torsions:
REMARK  status: ('A' for Active; 'I' for Inactive)
REMARK    1  A    between atoms: C_6  and  N_18
REMARK    2  A    between atoms: C_9  and  C_15
REMARK    3  A    between atoms: N_18  and  C_29
REMARK                            x       y       z     vdW  Elec       q    Type
REMARK                         _______ _______ _______ _____ _____    ______ ____
ROOT
ATOM      1  O   UNL     1      31.131 -10.129 -19.234  0.00  0.00    -0.270 OA
ATOM      2  N   UNL     1      31.910 -12.356 -19.352  0.00  0.00    -0.280 N 
ATOM      3  C   UNL     1      32.458 -12.478 -21.583  0.00  0.00    +0.019 C 
ATOM      4  C   UNL     1      31.941 -11.144 -21.293  0.00  0.00    +0.069 C 
ATOM      5  C   UNL     1      32.418 -13.172 -20.370  0.00  0.00    +0.051 C 
ATOM      6  C   UNL     1      31.780 -10.114 -22.127  0.00  0.00    +0.066 C 
ATOM      7  C   UNL     1      31.589 -11.084 -19.835  0.00  0.00    +0.251 C 
ATOM      8  C   UNL     1      32.926 -13.089 -22.731  0.00  0.00    +0.005 C 
ATOM      9  C   UNL     1      33.354 -14.417 -22.636  0.00  0.00    +0.036 C 
ATOM     10  C   UNL     1      32.836 -14.483 -20.254  0.00  0.00    +0.015 C 
ATOM     11  C   UNL     1      33.310 -15.108 -21.410  0.00  0.00    +0.004 C 
ATOM     12  H   UNL     1      31.794 -12.642 -18.417  0.00  0.00    +0.155 HD
ENDROOT
BRANCH   9  15
ATOM     13  O   UNL     1      34.611 -16.192 -23.590  0.00  0.00    -0.431 OA
ATOM     14  N   UNL     1      34.434 -15.878 -25.824  0.00  0.00    -0.203 NA
ATOM     15  C   UNL     1      33.848 -15.091 -23.812  0.00  0.00    +0.166 C 
ATOM     16  C   UNL     1      33.739 -14.900 -25.159  0.00  0.00    +0.140 C 
ATOM     17  C   UNL     1      34.925 -16.609 -24.848  0.00  0.00    +0.285 C 
ENDBRANCH   9  15
BRANCH   6  18
ATOM     18  N   UNL     1      31.300  -8.884 -21.844  0.00  0.00    -0.311 N 
ATOM     19  H   UNL     1      30.674  -8.835 -21.085  0.00  0.00    +0.152 HD
BRANCH  18  29
ATOM     20  S   UNL     1      31.139  -2.888 -23.631  0.00  0.00    -0.002 S 
ATOM     21  O   UNL     1      30.076  -2.666 -24.593  0.00  0.00    -0.172 OA
ATOM     22  O   UNL     1      31.808  -1.786 -22.970  0.00  0.00    -0.172 OA
ATOM     23  C   UNL     1      30.529  -4.008 -22.380  0.00  0.00    +0.177 C 
ATOM     24  C   UNL     1      32.377  -3.920 -24.400  0.00  0.00    +0.177 C 
ATOM     25  C   UNL     1      31.185  -5.296 -22.744  0.00  0.00    +0.000 C 
ATOM     26  C   UNL     1      32.130  -5.252 -23.776  0.00  0.00    -0.001 C 
ATOM     27  C   UNL     1      30.908  -6.500 -22.098  0.00  0.00    +0.012 C 
ATOM     28  C   UNL     1      32.799  -6.410 -24.165  0.00  0.00    -0.002 C 
ATOM     29  C   UNL     1      31.576  -7.661 -22.491  0.00  0.00    +0.048 C 
ATOM     30  C   UNL     1      32.519  -7.616 -23.521  0.00  0.00    +0.014 C 
ENDBRANCH  18  29
ENDBRANCH   6  18
TORSDOF 3
ENDMDL
MODEL 4
REMARK VINA RESULT:     -10.8     10.047     13.793
REMARK  Name = 5288710
REMARK  3 active torsions:
REMARK  status: ('A' for Active; 'I' for Inactive)
REMARK    1  A    between atoms: C_6  and  N_18
REMARK    2  A    between atoms: C_9  and  C_15
REMARK    3  A    between atoms: N_18  and  C_29
REMARK                            x       y       z     vdW  Elec       q    Type
REMARK                         _______ _______ _______ _____ _____    ______ ____
ROOT
ATOM      1  O   UNL     1      31.684 -11.230 -19.098  0.00  0.00    -0.270 OA
ATOM      2  N   UNL     1      31.851  -8.882 -19.299  0.00  0.00    -0.280 N 
ATOM      3  C   UNL     1      32.402  -8.702 -21.524  0.00  0.00    +0.019 C 
ATOM      4  C   UNL     1      32.249 -10.113 -21.186  0.00  0.00    +0.069 C 
ATOM      5  C   UNL     1      32.149  -7.999 -20.343  0.00  0.00    +0.051 C 
ATOM      6  C   UNL     1      32.391 -11.179 -21.978  0.00  0.00    +0.066 C 
ATOM      7  C   UNL     1      31.891 -10.211 -19.731  0.00  0.00    +0.251 C 
ATOM      8  C   UNL     1      32.719  -8.031 -22.690  0.00  0.00    +0.005 C 
ATOM      9  C   UNL     1      32.778  -6.635 -22.646  0.00  0.00    +0.036 C 
ATOM     10  C   UNL     1      32.201  -6.620 -20.276  0.00  0.00    +0.015 C 
ATOM     11  C   UNL     1      32.521  -5.935 -21.451  0.00  0.00    +0.004 C 
ATOM     12  H   UNL     1      31.640  -8.603 -18.378  0.00  0.00    +0.155 HD
ENDROOT
BRANCH   9  15
ATOM     13  O   UNL     1      32.269  -4.878 -24.162  0.00  0.00    -0.431 OA
ATOM     14  N   UNL     1      33.904  -4.982 -25.722  0.00  0.00    -0.203 NA
ATOM     15  C   UNL     1      33.107  -5.897 -23.842  0.00  0.00    +0.166 C 
ATOM     16  C   UNL     1      34.095  -5.962 -24.782  0.00  0.00    +0.140 C 
ATOM     17  C   UNL     1      32.816  -4.377 -25.304  0.00  0.00    +0.285 C 
ENDBRANCH   9  15
BRANCH   6  18
ATOM     18  N   UNL     1      32.246 -12.481 -21.649  0.00  0.00    -0.311 N 
ATOM     19  H   UNL     1      31.569 -12.675 -20.961  0.00  0.00    +0.152 HD
BRANCH  18  29
ATOM     20  S   UNL     1      35.459 -17.831 -22.125  0.00  0.00    -0.002 S 
ATOM     21  O   UNL     1      36.872 -17.605 -21.888  0.00  0.00    -0.172 OA
ATOM     22  O   UNL     1      34.894 -19.165 -22.133  0.00  0.00    -0.172 OA
ATOM     23  C   UNL     1      34.537 -16.834 -20.966  0.00  0.00    +0.177 C 
ATOM     24  C   UNL     1      35.019 -17.023 -23.655  0.00  0.00    +0.177 C 
ATOM     25  C   UNL     1      34.051 -15.707 -21.814  0.00  0.00    +0.000 C 
ATOM     26  C   UNL     1      34.297 -15.804 -23.188  0.00  0.00    -0.001 C 
ATOM     27  C   UNL     1      33.368 -14.607 -21.299  0.00  0.00    +0.012 C 
ATOM     28  C   UNL     1      33.862 -14.800 -24.051  0.00  0.00    -0.002 C 
ATOM     29  C   UNL     1      32.936 -13.600 -22.162  0.00  0.00    +0.048 C 
ATOM     30  C   UNL     1      33.182 -13.696 -23.534  0.00  0.00    +0.014 C 
ENDBRANCH  18  29
ENDBRANCH   6  18
TORSDOF 3
ENDMDL
MODEL 5
REMARK VINA RESULT:     -10.6      9.906     13.689
REMARK  Name = 5288710
REMARK  3 active torsions:
REMARK  status: ('A' for Active; 'I' for Inactive)
REMARK    1  A    between atoms: C_6  and  N_18
REMARK    2  A    between atoms: C_9  and  C_15
REMARK    3  A    between atoms: N_18  and  C_29
REMARK                            x       y       z     vdW  Elec       q    Type
REMARK                         _______ _______ _______ _____ _____    ______ ____
ROOT
ATOM      1  O   UNL     1      31.246 -11.090 -18.970  0.00  0.00    -0.270 OA
ATOM      2  N   UNL     1      31.802  -8.809 -19.225  0.00  0.00    -0.280 N 
ATOM      3  C   UNL     1      32.354  -8.771 -21.457  0.00  0.00    +0.019 C 
ATOM      4  C   UNL     1      31.970 -10.129 -21.086  0.00  0.00    +0.069 C 
ATOM      5  C   UNL     1      32.234  -8.011 -20.291  0.00  0.00    +0.051 C 
ATOM      6  C   UNL     1      31.922 -11.221 -21.854  0.00  0.00    +0.066 C 
ATOM      7  C   UNL     1      31.614 -10.134 -19.628  0.00  0.00    +0.251 C 
ATOM      8  C   UNL     1      32.767  -8.189 -22.641  0.00  0.00    +0.005 C 
ATOM      9  C   UNL     1      33.059  -6.821 -22.628  0.00  0.00    +0.036 C 
ATOM     10  C   UNL     1      32.516  -6.659 -20.256  0.00  0.00    +0.015 C 
ATOM     11  C   UNL     1      32.935  -6.063 -21.448  0.00  0.00    +0.004 C 
ATOM     12  H   UNL     1      31.650  -8.479 -18.310  0.00  0.00    +0.155 HD
ENDROOT
BRANCH   9  15
ATOM     13  O   UNL     1      34.799  -6.358 -24.179  0.00  0.00    -0.431 OA
ATOM     14  N   UNL     1      33.827  -5.056 -25.752  0.00  0.00    -0.203 NA
ATOM     15  C   UNL     1      33.496  -6.175 -23.843  0.00  0.00    +0.166 C 
ATOM     16  C   UNL     1      32.907  -5.390 -24.791  0.00  0.00    +0.140 C 
ATOM     17  C   UNL     1      34.920  -5.654 -25.338  0.00  0.00    +0.285 C 
ENDBRANCH   9  15
BRANCH   6  18
ATOM     18  N   UNL     1      31.565 -12.473 -21.496  0.00  0.00    -0.311 N 
ATOM     19  H   UNL     1      30.606 -12.608 -21.317  0.00  0.00    +0.152 HD
BRANCH  18  29
ATOM     20  S   UNL     1      35.375 -17.302 -22.649  0.00  0.00    -0.002 S 
ATOM     21  O   UNL     1      34.630 -18.431 -23.171  0.00  0.00    -0.172 OA
ATOM     22  O   UNL     1      36.821 -17.245 -22.724  0.00  0.00    -0.172 OA
ATOM     23  C   UNL     1      34.714 -15.815 -23.385  0.00  0.00    +0.177 C 
ATOM     24  C   UNL     1      34.888 -17.055 -20.949  0.00  0.00    +0.177 C 
ATOM     25  C   UNL     1      33.904 -15.232 -22.278  0.00  0.00    +0.000 C 
ATOM     26  C   UNL     1      33.992 -15.865 -21.033  0.00  0.00    -0.001 C 
ATOM     27  C   UNL     1      33.101 -14.104 -22.435  0.00  0.00    +0.012 C 
ATOM     28  C   UNL     1      33.278 -15.372 -19.943  0.00  0.00    -0.002 C 
ATOM     29  C   UNL     1      32.382 -13.613 -21.344  0.00  0.00    +0.048 C 
ATOM     30  C   UNL     1      32.471 -14.245 -20.102  0.00  0.00    +0.014 C 
ENDBRANCH  18  29
ENDBRANCH   6  18
TORSDOF 3
ENDMDL
MODEL 6
REMARK VINA RESULT:     -10.5      4.014      6.682
REMARK  Name = 5288710
REMARK  3 active torsions:
REMARK  status: ('A' for Active; 'I' for Inactive)
REMARK    1  A    between atoms: C_6  and  N_18
REMARK    2  A    between atoms: C_9  and  C_15
REMARK    3  A    between atoms: N_18  and  C_29
REMARK                            x       y       z     vdW  Elec       q    Type
REMARK                         _______ _______ _______ _____ _____    ______ ____
ROOT
ATOM      1  O   UNL     1      33.354 -19.936 -21.633  0.00  0.00    -0.270 OA
ATOM      2  N   UNL     1      32.946 -21.376 -19.806  0.00  0.00    -0.280 N 
ATOM      3  C   UNL     1      35.044 -21.446 -18.867  0.00  0.00    +0.019 C 
ATOM      4  C   UNL     1      35.080 -20.585 -20.044  0.00  0.00    +0.069 C 
ATOM      5  C   UNL     1      33.726 -21.899 -18.768  0.00  0.00    +0.051 C 
ATOM      6  C   UNL     1      36.117 -19.916 -20.556  0.00  0.00    +0.066 C 
ATOM      7  C   UNL     1      33.704 -20.552 -20.643  0.00  0.00    +0.251 C 
ATOM      8  C   UNL     1      35.996 -21.836 -17.943  0.00  0.00    +0.005 C 
ATOM      9  C   UNL     1      35.595 -22.695 -16.916  0.00  0.00    +0.036 C 
ATOM     10  C   UNL     1      33.308 -22.747 -17.761  0.00  0.00    +0.015 C 
ATOM     11  C   UNL     1      34.265 -23.147 -16.824  0.00  0.00    +0.004 C 
ATOM     12  H   UNL     1      31.988 -21.564 -19.929  0.00  0.00    +0.155 HD
ENDROOT
BRANCH   9  15
ATOM     13  O   UNL     1      36.126 -24.058 -15.043  0.00  0.00    -0.431 OA
ATOM     14  N   UNL     1      38.284 -23.566 -14.575  0.00  0.00    -0.203 NA
ATOM     15  C   UNL     1      36.559 -23.128 -15.932  0.00  0.00    +0.166 C 
ATOM     16  C   UNL     1      37.861 -22.830 -15.652  0.00  0.00    +0.140 C 
ATOM     17  C   UNL     1      37.220 -24.270 -14.261  0.00  0.00    +0.285 C 
ENDBRANCH   9  15
BRANCH   6  18
ATOM     18  N   UNL     1      36.134 -19.122 -21.648  0.00  0.00    -0.311 N 
ATOM     19  H   UNL     1      36.665 -19.453 -22.408  0.00  0.00    +0.152 HD
BRANCH  18  29
ATOM     20  S   UNL     1      33.693 -13.996 -24.282  0.00  0.00    -0.002 S 
ATOM     21  O   UNL     1      34.728 -13.021 -24.565  0.00  0.00    -0.172 OA
ATOM     22  O   UNL     1      32.366 -13.883 -24.852  0.00  0.00    -0.172 OA
ATOM     23  C   UNL     1      34.337 -15.616 -24.671  0.00  0.00    +0.177 C 
ATOM     24  C   UNL     1      33.535 -14.138 -22.509  0.00  0.00    +0.177 C 
ATOM     25  C   UNL     1      34.631 -16.186 -23.325  0.00  0.00    +0.000 C 
ATOM     26  C   UNL     1      34.221 -15.431 -22.219  0.00  0.00    -0.001 C 
ATOM     27  C   UNL     1      35.264 -17.413 -23.139  0.00  0.00    +0.012 C 
ATOM     28  C   UNL     1      34.443 -15.901 -20.927  0.00  0.00    -0.002 C 
ATOM     29  C   UNL     1      35.491 -17.882 -21.845  0.00  0.00    +0.048 C 
ATOM     30  C   UNL     1      35.081 -17.128 -20.742  0.00  0.00    +0.014 C 
ENDBRANCH  18  29
ENDBRANCH   6  18
TORSDOF 3
ENDMDL
MODEL 7
REMARK VINA RESULT:     -10.5      2.652      5.379
REMARK  Name = 5288710
REMARK  3 active torsions:
REMARK  status: ('A' for Active; 'I' for Inactive)
REMARK    1  A    between atoms: C_6  and  N_18
REMARK    2  A    between atoms: C_9  and  C_15
REMARK    3  A    between atoms: N_18  and  C_29
REMARK                            x       y       z     vdW  Elec       q    Type
REMARK                         _______ _______ _______ _____ _____    ______ ____
ROOT
ATOM      1  O   UNL     1      31.758 -22.486 -17.611  0.00  0.00    -0.270 OA
ATOM      2  N   UNL     1      31.815 -23.175 -15.353  0.00  0.00    -0.280 N 
ATOM      3  C   UNL     1      34.069 -23.562 -15.102  0.00  0.00    +0.019 C 
ATOM      4  C   UNL     1      33.813 -23.116 -16.468  0.00  0.00    +0.069 C 
ATOM      5  C   UNL     1      32.823 -23.580 -14.469  0.00  0.00    +0.051 C 
ATOM      6  C   UNL     1      34.685 -22.938 -17.463  0.00  0.00    +0.066 C 
ATOM      7  C   UNL     1      32.339 -22.869 -16.612  0.00  0.00    +0.251 C 
ATOM      8  C   UNL     1      35.213 -23.925 -14.418  0.00  0.00    +0.005 C 
ATOM      9  C   UNL     1      35.080 -24.309 -13.080  0.00  0.00    +0.036 C 
ATOM     10  C   UNL     1      32.669 -23.955 -13.149  0.00  0.00    +0.015 C 
ATOM     11  C   UNL     1      33.821 -24.324 -12.451  0.00  0.00    +0.004 C 
ATOM     12  H   UNL     1      30.862 -23.114 -15.117  0.00  0.00    +0.155 HD
ENDROOT
BRANCH   9  15
ATOM     13  O   UNL     1      36.939 -25.765 -12.813  0.00  0.00    -0.431 OA
ATOM     14  N   UNL     1      37.984 -25.019 -10.951  0.00  0.00    -0.203 NA
ATOM     15  C   UNL     1      36.252 -24.698 -12.331  0.00  0.00    +0.166 C 
ATOM     16  C   UNL     1      36.880 -24.245 -11.208  0.00  0.00    +0.140 C 
ATOM     17  C   UNL     1      37.967 -25.895 -11.929  0.00  0.00    +0.285 C 
ENDBRANCH   9  15
BRANCH   6  18
ATOM     18  N   UNL     1      34.433 -22.524 -18.723  0.00  0.00    -0.311 N 
ATOM     19  H   UNL     1      33.721 -23.012 -19.198  0.00  0.00    +0.152 HD
BRANCH  18  29
ATOM     20  S   UNL     1      35.435 -17.606 -22.462  0.00  0.00    -0.002 S 
ATOM     21  O   UNL     1      35.456 -18.014 -23.854  0.00  0.00    -0.172 OA
ATOM     22  O   UNL     1      35.331 -16.212 -22.080  0.00  0.00    -0.172 OA
ATOM     23  C   UNL     1      34.137 -18.515 -21.638  0.00  0.00    +0.177 C 
ATOM     24  C   UNL     1      36.868 -18.306 -21.658  0.00  0.00    +0.177 C 
ATOM     25  C   UNL     1      34.893 -19.545 -20.870  0.00  0.00    +0.000 C 
ATOM     26  C   UNL     1      36.289 -19.439 -20.880  0.00  0.00    -0.001 C 
ATOM     27  C   UNL     1      34.273 -20.567 -20.154  0.00  0.00    +0.012 C 
ATOM     28  C   UNL     1      37.067 -20.353 -20.174  0.00  0.00    -0.002 C 
ATOM     29  C   UNL     1      35.052 -21.485 -19.449  0.00  0.00    +0.048 C 
ATOM     30  C   UNL     1      36.445 -21.378 -19.460  0.00  0.00    +0.014 C 
ENDBRANCH  18  29
ENDBRANCH   6  18
TORSDOF 3
ENDMDL
MODEL 8
REMARK VINA RESULT:     -10.5      3.326      6.709
REMARK  Name = 5288710
REMARK  3 active torsions:
REMARK  status: ('A' for Active; 'I' for Inactive)
REMARK    1  A    between atoms: C_6  and  N_18
REMARK    2  A    between atoms: C_9  and  C_15
REMARK    3  A    between atoms: N_18  and  C_29
REMARK                            x       y       z     vdW  Elec       q    Type
REMARK                         _______ _______ _______ _____ _____    ______ ____
ROOT
ATOM      1  O   UNL     1      32.218 -22.883 -15.192  0.00  0.00    -0.270 OA
ATOM      2  N   UNL     1      33.567 -23.718 -13.442  0.00  0.00    -0.280 N 
ATOM      3  C   UNL     1      35.485 -24.215 -14.609  0.00  0.00    +0.019 C 
ATOM      4  C   UNL     1      34.495 -23.671 -15.533  0.00  0.00    +0.069 C 
ATOM      5  C   UNL     1      34.870 -24.221 -13.354  0.00  0.00    +0.051 C 
ATOM      6  C   UNL     1      34.607 -23.467 -16.848  0.00  0.00    +0.066 C 
ATOM      7  C   UNL     1      33.252 -23.354 -14.755  0.00  0.00    +0.251 C 
ATOM      8  C   UNL     1      36.781 -24.670 -14.762  0.00  0.00    +0.005 C 
ATOM      9  C   UNL     1      37.449 -25.134 -13.625  0.00  0.00    +0.036 C 
ATOM     10  C   UNL     1      35.511 -24.674 -12.218  0.00  0.00    +0.015 C 
ATOM     11  C   UNL     1      36.821 -25.136 -12.365  0.00  0.00    +0.004 C 
ATOM     12  H   UNL     1      32.952 -23.633 -12.678  0.00  0.00    +0.155 HD
ENDROOT
BRANCH   9  15
ATOM     13  O   UNL     1      39.334 -25.604 -14.992  0.00  0.00    -0.431 OA
ATOM     14  N   UNL     1      40.885 -26.422 -13.563  0.00  0.00    -0.203 NA
ATOM     15  C   UNL     1      38.804 -25.619 -13.743  0.00  0.00    +0.166 C 
ATOM     16  C   UNL     1      39.737 -26.112 -12.878  0.00  0.00    +0.140 C 
ATOM     17  C   UNL     1      40.587 -26.101 -14.801  0.00  0.00    +0.285 C 
ENDBRANCH   9  15
BRANCH   6  18
ATOM     18  N   UNL     1      33.681 -22.962 -17.691  0.00  0.00    -0.311 N 
ATOM     19  H   UNL     1      32.773 -23.331 -17.598  0.00  0.00    +0.152 HD
BRANCH  18  29
ATOM     20  S   UNL     1      36.169 -18.801 -21.650  0.00  0.00    -0.002 S 
ATOM     21  O   UNL     1      36.464 -17.556 -20.969  0.00  0.00    -0.172 OA
ATOM     22  O   UNL     1      36.701 -19.092 -22.965  0.00  0.00    -0.172 OA
ATOM     23  C   UNL     1      36.600 -20.146 -20.557  0.00  0.00    +0.177 C 
ATOM     24  C   UNL     1      34.395 -18.996 -21.704  0.00  0.00    +0.177 C 
ATOM     25  C   UNL     1      35.271 -20.609 -20.064  0.00  0.00    +0.000 C 
ATOM     26  C   UNL     1      34.144 -20.021 -20.650  0.00  0.00    -0.001 C 
ATOM     27  C   UNL     1      35.122 -21.587 -19.083  0.00  0.00    +0.012 C 
ATOM     28  C   UNL     1      32.865 -20.410 -20.256  0.00  0.00    -0.002 C 
ATOM     29  C   UNL     1      33.841 -21.974 -18.686  0.00  0.00    +0.048 C 
ATOM     30  C   UNL     1      32.716 -21.387 -19.271  0.00  0.00    +0.014 C 
ENDBRANCH  18  29
ENDBRANCH   6  18
TORSDOF 3
ENDMDL
MODEL 9
REMARK VINA RESULT:     -10.3      3.626      6.197
REMARK  Name = 5288710
REMARK  3 active torsions:
REMARK  status: ('A' for Active; 'I' for Inactive)
REMARK    1  A    between atoms: C_6  and  N_18
REMARK    2  A    between atoms: C_9  and  C_15
REMARK    3  A    between atoms: N_18  and  C_29
REMARK                            x       y       z     vdW  Elec       q    Type
REMARK                         _______ _______ _______ _____ _____    ______ ____
ROOT
ATOM      1  O   UNL     1      32.549 -20.910 -20.726  0.00  0.00    -0.270 OA
ATOM      2  N   UNL     1      32.403 -21.901 -18.587  0.00  0.00    -0.280 N 
ATOM      3  C   UNL     1      34.636 -22.070 -18.063  0.00  0.00    +0.019 C 
ATOM      4  C   UNL     1      34.503 -21.465 -19.385  0.00  0.00    +0.069 C 
ATOM      5  C   UNL     1      33.331 -22.313 -17.624  0.00  0.00    +0.051 C 
ATOM      6  C   UNL     1      35.466 -21.054 -20.213  0.00  0.00    +0.066 C 
ATOM      7  C   UNL     1      33.040 -21.364 -19.709  0.00  0.00    +0.251 C 
ATOM      8  C   UNL     1      35.720 -22.398 -17.271  0.00  0.00    +0.005 C 
ATOM      9  C   UNL     1      35.467 -22.980 -16.025  0.00  0.00    +0.036 C 
ATOM     10  C   UNL     1      33.058 -22.886 -16.397  0.00  0.00    +0.015 C 
ATOM     11  C   UNL     1      34.149 -23.222 -15.592  0.00  0.00    +0.004 C 
ATOM     12  H   UNL     1      31.427 -21.979 -18.486  0.00  0.00    +0.155 HD
ENDROOT
BRANCH   9  15
ATOM     13  O   UNL     1      36.262 -23.589 -13.871  0.00  0.00    -0.431 OA
ATOM     14  N   UNL     1      38.491 -23.861 -14.143  0.00  0.00    -0.203 NA
ATOM     15  C   UNL     1      36.572 -23.339 -15.169  0.00  0.00    +0.166 C 
ATOM     16  C   UNL     1      37.917 -23.502 -15.336  0.00  0.00    +0.140 C 
ATOM     17  C   UNL     1      37.469 -23.896 -13.320  0.00  0.00    +0.285 C 
ENDBRANCH   9  15
BRANCH   6  18
ATOM     18  N   UNL     1      35.326 -20.496 -21.435  0.00  0.00    -0.311 N 
ATOM     19  H   UNL     1      35.327 -21.124 -22.193  0.00  0.00    +0.152 HD
BRANCH  18  29
ATOM     20  S   UNL     1      34.014 -14.381 -21.189  0.00  0.00    -0.002 S 
ATOM     21  O   UNL     1      32.600 -14.149 -21.412  0.00  0.00    -0.172 OA
ATOM     22  O   UNL     1      34.880 -13.346 -20.662  0.00  0.00    -0.172 OA
ATOM     23  C   UNL     1      34.182 -15.834 -20.164  0.00  0.00    +0.177 C 
ATOM     24  C   UNL     1      34.723 -14.987 -22.712  0.00  0.00    +0.177 C 
ATOM     25  C   UNL     1      34.612 -16.877 -21.138  0.00  0.00    +0.000 C 
ATOM     26  C   UNL     1      34.889 -16.445 -22.441  0.00  0.00    -0.001 C 
ATOM     27  C   UNL     1      34.759 -18.221 -20.800  0.00  0.00    +0.012 C 
ATOM     28  C   UNL     1      35.312 -17.355 -23.407  0.00  0.00    -0.002 C 
ATOM     29  C   UNL     1      35.178 -19.133 -21.769  0.00  0.00    +0.048 C 
ATOM     30  C   UNL     1      35.454 -18.701 -23.069  0.00  0.00    +0.014 C 
ENDBRANCH  18  29
ENDBRANCH   6  18
TORSDOF 3
ENDMDL
