MODEL 1
REMARK VINA RESULT:     -11.8      0.000      0.000
REMARK  Name = 11979006
REMARK  7 active torsions:
REMARK  status: ('A' for Active; 'I' for Inactive)
REMARK    1  A    between atoms: C_1  and  N_2
REMARK    2  A    between atoms: C_1  and  C_22
REMARK    3  A    between atoms: C_3  and  N_9
REMARK    4  A    between atoms: C_4  and  O_18
REMARK    5  A    between atoms: C_10  and  C_14
REMARK    6  A    between atoms: N_21  and  C_25
REMARK    7  A    between atoms: C_28  and  N_32
REMARK                            x       y       z     vdW  Elec       q    Type
REMARK                         _______ _______ _______ _____ _____    ______ ____
ROOT
ATOM      1  C   UNL     1      35.572 -21.433 -20.128  0.00  0.00    +0.010 C 
ENDROOT
BRANCH   1   2
ATOM      2  N   UNL     1      35.249 -21.660 -18.728  0.00  0.00    +0.396 N 
ATOM      3  C   UNL     1      35.797 -22.444 -16.623  0.00  0.00    +0.076 C 
ATOM      4  C   UNL     1      34.541 -23.192 -17.074  0.00  0.00    +0.106 C 
ATOM      5  C   UNL     1      36.432 -21.970 -17.924  0.00  0.00    -0.054 C 
ATOM      6  C   UNL     1      34.337 -22.794 -18.538  0.00  0.00    -0.045 C 
ATOM      7  H   UNL     1      34.819 -20.785 -18.429  0.00  0.00    -0.079 HD
BRANCH   3   9
ATOM      8  O   UNL     1      35.433 -23.174 -13.924  0.00  0.00    -0.270 OA
ATOM      9  N   UNL     1      36.683 -23.271 -15.851  0.00  0.00    -0.302 N 
ATOM     10  C   UNL     1      36.433 -23.589 -14.513  0.00  0.00    +0.252 C 
ATOM     11  H   UNL     1      37.495 -23.625 -16.278  0.00  0.00    +0.150 HD
BRANCH  10  14
ATOM     12 CL   UNL     1      40.901 -26.593 -13.512  0.00  0.00    -0.075 Cl
ATOM     13  S   UNL     1      38.839 -24.824 -14.710  0.00  0.00    -0.071 S 
ATOM     14  C   UNL     1      37.415 -24.472 -13.867  0.00  0.00    +0.084 C 
ATOM     15  C   UNL     1      37.320 -25.053 -12.650  0.00  0.00    +0.012 C 
ATOM     16  C   UNL     1      38.477 -25.839 -12.378  0.00  0.00    +0.019 C 
ATOM     17  C   UNL     1      39.383 -25.802 -13.415  0.00  0.00    +0.087 C 
ENDBRANCH  10  14
ENDBRANCH   3   9
BRANCH   4  18
ATOM     18  O   UNL     1      33.437 -22.778 -16.280  0.00  0.00    -0.385 OA
ATOM     19  H   UNL     1      33.429 -23.281 -15.451  0.00  0.00    +0.210 HD
ENDBRANCH   4  18
ENDBRANCH   1   2
BRANCH   1  22
ATOM     20  O   UNL     1      33.640 -19.999 -20.310  0.00  0.00    -0.277 OA
ATOM     21  N   UNL     1      35.605 -19.460 -21.478  0.00  0.00    -0.284 N 
ATOM     22  C   UNL     1      34.802 -20.226 -20.635  0.00  0.00    +0.205 C 
ATOM     23  H   UNL     1      36.521 -19.792 -21.625  0.00  0.00    +0.155 HD
BRANCH  21  25
ATOM     24  F   UNL     1      34.973 -19.457 -24.182  0.00  0.00    -0.203 F 
ATOM     25  C   UNL     1      35.259 -18.263 -22.149  0.00  0.00    +0.078 C 
ATOM     26  C   UNL     1      34.950 -18.303 -23.498  0.00  0.00    +0.155 C 
ATOM     27  C   UNL     1      35.237 -17.074 -21.438  0.00  0.00    +0.018 C 
ATOM     28  C   UNL     1      34.584 -15.916 -23.455  0.00  0.00    +0.061 C 
ATOM     29  C   UNL     1      34.610 -17.122 -24.156  0.00  0.00    +0.046 C 
ATOM     30  C   UNL     1      34.898 -15.892 -22.096  0.00  0.00    +0.017 C 
BRANCH  28  32
ATOM     31  O   UNL     1      33.857 -15.708 -26.247  0.00  0.00    -0.269 OA
ATOM     32  N   UNL     1      34.231 -14.687 -24.140  0.00  0.00    -0.233 N 
ATOM     33  C   UNL     1      33.853 -14.724 -25.508  0.00  0.00    +0.257 C 
ATOM     34  C   UNL     1      34.282 -13.463 -23.470  0.00  0.00    +0.072 C 
ATOM     35  C   UNL     1      33.459 -13.419 -26.124  0.00  0.00    +0.059 C 
ATOM     36  C   UNL     1      33.956 -12.305 -24.053  0.00  0.00    +0.017 C 
ATOM     37  C   UNL     1      33.525 -12.287 -25.420  0.00  0.00    +0.006 C 
ENDBRANCH  28  32
ENDBRANCH  21  25
ENDBRANCH   1  22
TORSDOF 7
ENDMDL
MODEL 2
REMARK VINA RESULT:     -11.6      7.520     13.926
REMARK  Name = 11979006
REMARK  7 active torsions:
REMARK  status: ('A' for Active; 'I' for Inactive)
REMARK    1  A    between atoms: C_1  and  N_2
REMARK    2  A    between atoms: C_1  and  C_22
REMARK    3  A    between atoms: C_3  and  N_9
REMARK    4  A    between atoms: C_4  and  O_18
REMARK    5  A    between atoms: C_10  and  C_14
REMARK    6  A    between atoms: N_21  and  C_25
REMARK    7  A    between atoms: C_28  and  N_32
REMARK                            x       y       z     vdW  Elec       q    Type
REMARK                         _______ _______ _______ _____ _____    ______ ____
ROOT
ATOM      1  C   UNL     1      33.813 -12.573 -24.748  0.00  0.00    +0.010 C 
ENDROOT
BRANCH   1   2
ATOM      2  N   UNL     1      34.295 -11.375 -24.076  0.00  0.00    +0.396 N 
ATOM      3  C   UNL     1      33.950  -9.258 -23.214  0.00  0.00    +0.076 C 
ATOM      4  C   UNL     1      35.037  -9.142 -24.284  0.00  0.00    +0.106 C 
ATOM      5  C   UNL     1      33.204 -10.534 -23.583  0.00  0.00    -0.054 C 
ATOM      6  C   UNL     1      35.085 -10.513 -24.962  0.00  0.00    -0.045 C 
ATOM      7  H   UNL     1      34.861 -11.734 -23.307  0.00  0.00    -0.079 HD
BRANCH   3   9
ATOM      8  O   UNL     1      33.474  -7.623 -20.967  0.00  0.00    -0.270 OA
ATOM      9  N   UNL     1      33.087  -8.110 -23.179  0.00  0.00    -0.302 N 
ATOM     10  C   UNL     1      32.902  -7.347 -22.022  0.00  0.00    +0.252 C 
ATOM     11  H   UNL     1      32.607  -7.851 -23.998  0.00  0.00    +0.150 HD
BRANCH  10  14
ATOM     12 CL   UNL     1      30.483  -2.798 -23.876  0.00  0.00    -0.075 Cl
ATOM     13  S   UNL     1      32.216  -5.179 -23.498  0.00  0.00    -0.071 S 
ATOM     14  C   UNL     1      32.013  -6.184 -22.153  0.00  0.00    +0.084 C 
ATOM     15  C   UNL     1      31.028  -5.806 -21.308  0.00  0.00    +0.012 C 
ATOM     16  C   UNL     1      30.391  -4.621 -21.780  0.00  0.00    +0.019 C 
ATOM     17  C   UNL     1      30.939  -4.175 -22.961  0.00  0.00    +0.087 C 
ENDBRANCH  10  14
ENDBRANCH   3   9
BRANCH   4  18
ATOM     18  O   UNL     1      36.279  -8.842 -23.662  0.00  0.00    -0.385 OA
ATOM     19  H   UNL     1      36.787  -9.660 -23.543  0.00  0.00    +0.210 HD
ENDBRANCH   4  18
ENDBRANCH   1   2
BRANCH   1  22
ATOM     20  O   UNL     1      32.687 -13.672 -22.918  0.00  0.00    -0.277 OA
ATOM     21  N   UNL     1      34.601 -14.650 -23.864  0.00  0.00    -0.284 N 
ATOM     22  C   UNL     1      33.612 -13.678 -23.726  0.00  0.00    +0.205 C 
ATOM     23  H   UNL     1      35.266 -14.494 -24.574  0.00  0.00    +0.155 HD
BRANCH  21  25
ATOM     24  F   UNL     1      34.891 -17.120 -25.098  0.00  0.00    -0.203 F 
ATOM     25  C   UNL     1      34.762 -15.834 -23.106  0.00  0.00    +0.078 C 
ATOM     26  C   UNL     1      34.904 -17.047 -23.759  0.00  0.00    +0.155 C 
ATOM     27  C   UNL     1      34.775 -15.752 -21.723  0.00  0.00    +0.018 C 
ATOM     28  C   UNL     1      35.077 -18.147 -21.615  0.00  0.00    +0.061 C 
ATOM     29  C   UNL     1      35.063 -18.211 -23.008  0.00  0.00    +0.046 C 
ATOM     30  C   UNL     1      34.933 -16.917 -20.972  0.00  0.00    +0.017 C 
BRANCH  28  32
ATOM     31  O   UNL     1      37.607 -19.244 -20.744  0.00  0.00    -0.269 OA
ATOM     32  N   UNL     1      35.241 -19.358 -20.835  0.00  0.00    -0.233 N 
ATOM     33  C   UNL     1      36.539 -19.771 -20.435  0.00  0.00    +0.257 C 
ATOM     34  C   UNL     1      34.133 -20.135 -20.492  0.00  0.00    +0.072 C 
ATOM     35  C   UNL     1      36.614 -21.005 -19.594  0.00  0.00    +0.059 C 
ATOM     36  C   UNL     1      34.230 -21.253 -19.766  0.00  0.00    +0.017 C 
ATOM     37  C   UNL     1      35.510 -21.695 -19.298  0.00  0.00    +0.006 C 
ENDBRANCH  28  32
ENDBRANCH  21  25
ENDBRANCH   1  22
TORSDOF 7
ENDMDL
MODEL 3
REMARK VINA RESULT:     -11.3      5.239     12.132
REMARK  Name = 11979006
REMARK  7 active torsions:
REMARK  status: ('A' for Active; 'I' for Inactive)
REMARK    1  A    between atoms: C_1  and  N_2
REMARK    2  A    between atoms: C_1  and  C_22
REMARK    3  A    between atoms: C_3  and  N_9
REMARK    4  A    between atoms: C_4  and  O_18
REMARK    5  A    between atoms: C_10  and  C_14
REMARK    6  A    between atoms: N_21  and  C_25
REMARK    7  A    between atoms: C_28  and  N_32
REMARK                            x       y       z     vdW  Elec       q    Type
REMARK                         _______ _______ _______ _____ _____    ______ ____
ROOT
ATOM      1  C   UNL     1      35.002 -20.459 -21.098  0.00  0.00    +0.010 C 
ENDROOT
BRANCH   1   2
ATOM      2  N   UNL     1      35.342 -19.158 -21.655  0.00  0.00    +0.396 N 
ATOM      3  C   UNL     1      35.065 -16.866 -21.763  0.00  0.00    +0.076 C 
ATOM      4  C   UNL     1      34.764 -17.426 -23.155  0.00  0.00    +0.106 C 
ATOM      5  C   UNL     1      34.850 -18.052 -20.833  0.00  0.00    -0.054 C 
ATOM      6  C   UNL     1      34.759 -18.947 -22.985  0.00  0.00    -0.045 C 
ATOM      7  H   UNL     1      36.361 -19.165 -21.694  0.00  0.00    -0.079 HD
BRANCH   3   9
ATOM      8  O   UNL     1      35.017 -14.383 -23.099  0.00  0.00    -0.270 OA
ATOM      9  N   UNL     1      34.228 -15.747 -21.427  0.00  0.00    -0.302 N 
ATOM     10  C   UNL     1      34.262 -14.546 -22.140  0.00  0.00    +0.252 C 
ATOM     11  H   UNL     1      33.608 -15.830 -20.667  0.00  0.00    +0.150 HD
BRANCH  10  14
ATOM     12 CL   UNL     1      31.267  -9.969 -21.886  0.00  0.00    -0.075 Cl
ATOM     13  S   UNL     1      33.134 -12.138 -22.674  0.00  0.00    -0.071 S 
ATOM     14  C   UNL     1      33.322 -13.506 -21.695  0.00  0.00    +0.084 C 
ATOM     15  C   UNL     1      32.571 -13.505 -20.572  0.00  0.00    +0.012 C 
ATOM     16  C   UNL     1      31.787 -12.317 -20.494  0.00  0.00    +0.019 C 
ATOM     17  C   UNL     1      31.996 -11.488 -21.573  0.00  0.00    +0.087 C 
ENDBRANCH  10  14
ENDBRANCH   3   9
BRANCH   4  18
ATOM     18  O   UNL     1      35.786 -17.021 -24.056  0.00  0.00    -0.385 OA
ATOM     19  H   UNL     1      35.722 -16.066 -24.209  0.00  0.00    +0.210 HD
ENDBRANCH   4  18
ENDBRANCH   1   2
BRANCH   1  22
ATOM     20  O   UNL     1      36.945 -20.180 -19.694  0.00  0.00    -0.277 OA
ATOM     21  N   UNL     1      35.222 -21.627 -19.023  0.00  0.00    -0.284 N 
ATOM     22  C   UNL     1      35.858 -20.721 -19.870  0.00  0.00    +0.205 C 
ATOM     23  H   UNL     1      34.345 -21.959 -19.323  0.00  0.00    +0.155 HD
BRANCH  21  25
ATOM     24  F   UNL     1      33.528 -22.976 -17.286  0.00  0.00    -0.203 F 
ATOM     25  C   UNL     1      35.689 -22.125 -17.784  0.00  0.00    +0.078 C 
ATOM     26  C   UNL     1      34.812 -22.793 -16.945  0.00  0.00    +0.155 C 
ATOM     27  C   UNL     1      37.016 -21.933 -17.437  0.00  0.00    +0.018 C 
ATOM     28  C   UNL     1      36.609 -23.098 -15.359  0.00  0.00    +0.061 C 
ATOM     29  C   UNL     1      35.275 -23.283 -15.724  0.00  0.00    +0.046 C 
ATOM     30  C   UNL     1      37.479 -22.422 -16.215  0.00  0.00    +0.017 C 
BRANCH  28  32
ATOM     31  O   UNL     1      37.684 -25.746 -14.919  0.00  0.00    -0.269 OA
ATOM     32  N   UNL     1      37.089 -23.606 -14.089  0.00  0.00    -0.233 N 
ATOM     33  C   UNL     1      37.633 -24.915 -14.012  0.00  0.00    +0.257 C 
ATOM     34  C   UNL     1      37.002 -22.826 -12.935  0.00  0.00    +0.072 C 
ATOM     35  C   UNL     1      38.149 -25.344 -12.675  0.00  0.00    +0.059 C 
ATOM     36  C   UNL     1      37.441 -23.245 -11.743  0.00  0.00    +0.017 C 
ATOM     37  C   UNL     1      38.038 -24.541 -11.614  0.00  0.00    +0.006 C 
ENDBRANCH  28  32
ENDBRANCH  21  25
ENDBRANCH   1  22
TORSDOF 7
ENDMDL
MODEL 4
REMARK VINA RESULT:     -11.0      4.890     12.051
REMARK  Name = 11979006
REMARK  7 active torsions:
REMARK  status: ('A' for Active; 'I' for Inactive)
REMARK    1  A    between atoms: C_1  and  N_2
REMARK    2  A    between atoms: C_1  and  C_22
REMARK    3  A    between atoms: C_3  and  N_9
REMARK    4  A    between atoms: C_4  and  O_18
REMARK    5  A    between atoms: C_10  and  C_14
REMARK    6  A    between atoms: N_21  and  C_25
REMARK    7  A    between atoms: C_28  and  N_32
REMARK                            x       y       z     vdW  Elec       q    Type
REMARK                         _______ _______ _______ _____ _____    ______ ____
ROOT
ATOM      1  C   UNL     1      33.798 -20.971 -20.391  0.00  0.00    +0.010 C 
ENDROOT
BRANCH   1   2
ATOM      2  N   UNL     1      34.742 -19.868 -20.482  0.00  0.00    +0.396 N 
ATOM      3  C   UNL     1      35.327 -17.757 -21.221  0.00  0.00    +0.076 C 
ATOM      4  C   UNL     1      36.360 -18.738 -21.781  0.00  0.00    +0.106 C 
ATOM      5  C   UNL     1      34.112 -18.627 -20.933  0.00  0.00    -0.054 C 
ATOM      6  C   UNL     1      35.822 -20.129 -21.440  0.00  0.00    -0.045 C 
ATOM      7  H   UNL     1      35.104 -19.774 -19.533  0.00  0.00    -0.079 HD
BRANCH   3   9
ATOM      8  O   UNL     1      34.157 -15.285 -20.539  0.00  0.00    -0.270 OA
ATOM      9  N   UNL     1      35.032 -16.688 -22.135  0.00  0.00    -0.302 N 
ATOM     10  C   UNL     1      34.449 -15.488 -21.719  0.00  0.00    +0.252 C 
ATOM     11  H   UNL     1      35.247 -16.804 -23.088  0.00  0.00    +0.150 HD
BRANCH  10  14
ATOM     12 CL   UNL     1      33.434 -13.077 -26.529  0.00  0.00    -0.075 Cl
ATOM     13  S   UNL     1      33.883 -15.019 -24.329  0.00  0.00    -0.071 S 
ATOM     14  C   UNL     1      34.238 -14.477 -22.765  0.00  0.00    +0.084 C 
ATOM     15  C   UNL     1      34.293 -13.134 -22.631  0.00  0.00    +0.012 C 
ATOM     16  C   UNL     1      34.032 -12.494 -23.878  0.00  0.00    +0.019 C 
ATOM     17  C   UNL     1      33.792 -13.402 -24.885  0.00  0.00    +0.087 C 
ENDBRANCH  10  14
ENDBRANCH   3   9
BRANCH   4  18
ATOM     18  O   UNL     1      37.614 -18.512 -21.149  0.00  0.00    -0.385 OA
ATOM     19  H   UNL     1      38.129 -17.878 -21.671  0.00  0.00    +0.210 HD
ENDBRANCH   4  18
ENDBRANCH   1   2
BRANCH   1  22
ATOM     20  O   UNL     1      32.813 -21.769 -18.338  0.00  0.00    -0.277 OA
ATOM     21  N   UNL     1      35.148 -21.783 -18.593  0.00  0.00    -0.284 N 
ATOM     22  C   UNL     1      33.832 -21.550 -18.988  0.00  0.00    +0.205 C 
ATOM     23  H   UNL     1      35.845 -21.550 -19.248  0.00  0.00    +0.155 HD
BRANCH  21  25
ATOM     24  F   UNL     1      37.624 -21.087 -17.548  0.00  0.00    -0.203 F 
ATOM     25  C   UNL     1      35.600 -22.314 -17.362  0.00  0.00    +0.078 C 
ATOM     26  C   UNL     1      36.841 -21.942 -16.874  0.00  0.00    +0.155 C 
ATOM     27  C   UNL     1      34.787 -23.197 -16.670  0.00  0.00    +0.018 C 
ATOM     28  C   UNL     1      36.478 -23.359 -14.951  0.00  0.00    +0.061 C 
ATOM     29  C   UNL     1      37.284 -22.468 -15.661  0.00  0.00    +0.046 C 
ATOM     30  C   UNL     1      35.230 -23.724 -15.456  0.00  0.00    +0.017 C 
BRANCH  28  32
ATOM     31  O   UNL     1      37.926 -25.842 -14.636  0.00  0.00    -0.269 OA
ATOM     32  N   UNL     1      36.939 -23.905 -13.690  0.00  0.00    -0.233 N 
ATOM     33  C   UNL     1      37.677 -25.118 -13.673  0.00  0.00    +0.257 C 
ATOM     34  C   UNL     1      36.644 -23.260 -12.488  0.00  0.00    +0.072 C 
ATOM     35  C   UNL     1      38.155 -25.587 -12.335  0.00  0.00    +0.059 C 
ATOM     36  C   UNL     1      37.055 -23.717 -11.301  0.00  0.00    +0.017 C 
ATOM     37  C   UNL     1      37.840 -24.913 -11.226  0.00  0.00    +0.006 C 
ENDBRANCH  28  32
ENDBRANCH  21  25
ENDBRANCH   1  22
TORSDOF 7
ENDMDL
MODEL 5
REMARK VINA RESULT:     -11.0      5.271      7.298
REMARK  Name = 11979006
REMARK  7 active torsions:
REMARK  status: ('A' for Active; 'I' for Inactive)
REMARK    1  A    between atoms: C_1  and  N_2
REMARK    2  A    between atoms: C_1  and  C_22
REMARK    3  A    between atoms: C_3  and  N_9
REMARK    4  A    between atoms: C_4  and  O_18
REMARK    5  A    between atoms: C_10  and  C_14
REMARK    6  A    between atoms: N_21  and  C_25
REMARK    7  A    between atoms: C_28  and  N_32
REMARK                            x       y       z     vdW  Elec       q    Type
REMARK                         _______ _______ _______ _____ _____    ______ ____
ROOT
ATOM      1  C   UNL     1      34.897 -24.292 -15.931  0.00  0.00    +0.010 C 
ENDROOT
BRANCH   1   2
ATOM      2  N   UNL     1      33.725 -24.196 -15.074  0.00  0.00    +0.396 N 
ATOM      3  C   UNL     1      31.479 -23.750 -14.755  0.00  0.00    +0.076 C 
ATOM      4  C   UNL     1      32.264 -22.794 -13.855  0.00  0.00    +0.106 C 
ATOM      5  C   UNL     1      32.477 -24.143 -15.836  0.00  0.00    -0.054 C 
ATOM      6  C   UNL     1      33.731 -22.983 -14.248  0.00  0.00    -0.045 C 
ATOM      7  H   UNL     1      33.770 -25.036 -14.498  0.00  0.00    -0.079 HD
BRANCH   3   9
ATOM      8  O   UNL     1      28.874 -24.819 -14.612  0.00  0.00    -0.270 OA
ATOM      9  N   UNL     1      30.293 -23.147 -15.298  0.00  0.00    -0.302 N 
ATOM     10  C   UNL     1      29.033 -23.740 -15.185  0.00  0.00    +0.252 C 
ATOM     11  H   UNL     1      30.370 -22.285 -15.766  0.00  0.00    +0.150 HD
BRANCH  10  14
ATOM     12 CL   UNL     1      25.569 -21.424 -18.739  0.00  0.00    -0.075 Cl
ATOM     13  S   UNL     1      27.789 -22.916 -17.450  0.00  0.00    -0.071 S 
ATOM     14  C   UNL     1      27.911 -22.986 -15.763  0.00  0.00    +0.084 C 
ATOM     15  C   UNL     1      26.940 -22.322 -15.098  0.00  0.00    +0.012 C 
ATOM     16  C   UNL     1      26.032 -21.713 -16.013  0.00  0.00    +0.019 C 
ATOM     17  C   UNL     1      26.376 -21.958 -17.323  0.00  0.00    +0.087 C 
ENDBRANCH  10  14
ENDBRANCH   3   9
BRANCH   4  18
ATOM     18  O   UNL     1      32.056 -23.151 -12.495  0.00  0.00    -0.385 OA
ATOM     19  H   UNL     1      31.439 -23.899 -12.448  0.00  0.00    +0.210 HD
ENDBRANCH   4  18
ENDBRANCH   1   2
BRANCH   1  22
ATOM     20  O   UNL     1      35.704 -22.019 -15.988  0.00  0.00    -0.277 OA
ATOM     21  N   UNL     1      34.703 -22.949 -17.899  0.00  0.00    -0.284 N 
ATOM     22  C   UNL     1      35.158 -22.945 -16.582  0.00  0.00    +0.205 C 
ATOM     23  H   UNL     1      34.292 -23.787 -18.213  0.00  0.00    +0.155 HD
BRANCH  21  25
ATOM     24  F   UNL     1      37.136 -21.940 -18.778  0.00  0.00    -0.203 F 
ATOM     25  C   UNL     1      34.762 -21.891 -18.837  0.00  0.00    +0.078 C 
ATOM     26  C   UNL     1      35.996 -21.416 -19.250  0.00  0.00    +0.155 C 
ATOM     27  C   UNL     1      33.581 -21.353 -19.321  0.00  0.00    +0.018 C 
ATOM     28  C   UNL     1      34.870 -19.819 -20.672  0.00  0.00    +0.061 C 
ATOM     29  C   UNL     1      36.050 -20.373 -20.175  0.00  0.00    +0.046 C 
ATOM     30  C   UNL     1      33.636 -20.309 -20.245  0.00  0.00    +0.017 C 
BRANCH  28  32
ATOM     31  O   UNL     1      35.021 -20.134 -23.543  0.00  0.00    -0.269 OA
ATOM     32  N   UNL     1      34.927 -18.734 -21.632  0.00  0.00    -0.233 N 
ATOM     33  C   UNL     1      34.959 -19.021 -23.022  0.00  0.00    +0.257 C 
ATOM     34  C   UNL     1      34.974 -17.407 -21.200  0.00  0.00    +0.072 C 
ATOM     35  C   UNL     1      34.970 -17.843 -23.944  0.00  0.00    +0.059 C 
ATOM     36  C   UNL     1      35.017 -16.372 -22.045  0.00  0.00    +0.017 C 
ATOM     37  C   UNL     1      35.007 -16.600 -23.459  0.00  0.00    +0.006 C 
ENDBRANCH  28  32
ENDBRANCH  21  25
ENDBRANCH   1  22
TORSDOF 7
ENDMDL
MODEL 6
REMARK VINA RESULT:     -10.8      1.586      2.033
REMARK  Name = 11979006
REMARK  7 active torsions:
REMARK  status: ('A' for Active; 'I' for Inactive)
REMARK    1  A    between atoms: C_1  and  N_2
REMARK    2  A    between atoms: C_1  and  C_22
REMARK    3  A    between atoms: C_3  and  N_9
REMARK    4  A    between atoms: C_4  and  O_18
REMARK    5  A    between atoms: C_10  and  C_14
REMARK    6  A    between atoms: N_21  and  C_25
REMARK    7  A    between atoms: C_28  and  N_32
REMARK                            x       y       z     vdW  Elec       q    Type
REMARK                         _______ _______ _______ _____ _____    ______ ____
ROOT
ATOM      1  C   UNL     1      35.516 -21.251 -20.142  0.00  0.00    +0.010 C 
ENDROOT
BRANCH   1   2
ATOM      2  N   UNL     1      34.905 -21.614 -18.872  0.00  0.00    +0.396 N 
ATOM      3  C   UNL     1      35.003 -22.610 -16.788  0.00  0.00    +0.076 C 
ATOM      4  C   UNL     1      33.880 -23.297 -17.568  0.00  0.00    +0.106 C 
ATOM      5  C   UNL     1      35.893 -22.015 -17.870  0.00  0.00    -0.054 C 
ATOM      6  C   UNL     1      33.987 -22.752 -18.994  0.00  0.00    -0.045 C 
ATOM      7  H   UNL     1      34.411 -20.769 -18.585  0.00  0.00    -0.079 HD
BRANCH   3   9
ATOM      8  O   UNL     1      37.355 -22.019 -15.351  0.00  0.00    -0.270 OA
ATOM      9  N   UNL     1      35.714 -23.519 -15.931  0.00  0.00    -0.302 N 
ATOM     10  C   UNL     1      36.877 -23.150 -15.250  0.00  0.00    +0.252 C 
ATOM     11  H   UNL     1      35.370 -24.434 -15.820  0.00  0.00    +0.150 HD
BRANCH  10  14
ATOM     12 CL   UNL     1      37.685 -26.758 -11.211  0.00  0.00    -0.075 Cl
ATOM     13  S   UNL     1      36.592 -24.683 -13.032  0.00  0.00    -0.071 S 
ATOM     14  C   UNL     1      37.472 -24.181 -14.387  0.00  0.00    +0.084 C 
ATOM     15  C   UNL     1      38.667 -24.792 -14.544  0.00  0.00    +0.012 C 
ATOM     16  C   UNL     1      38.889 -25.734 -13.497  0.00  0.00    +0.019 C 
ATOM     17  C   UNL     1      37.839 -25.776 -12.607  0.00  0.00    +0.087 C 
ENDBRANCH  10  14
ENDBRANCH   3   9
BRANCH   4  18
ATOM     18  O   UNL     1      32.627 -22.954 -16.990  0.00  0.00    -0.385 OA
ATOM     19  H   UNL     1      31.952 -22.910 -17.684  0.00  0.00    +0.210 HD
ENDBRANCH   4  18
ENDBRANCH   1   2
BRANCH   1  22
ATOM     20  O   UNL     1      33.506 -20.012 -20.640  0.00  0.00    -0.277 OA
ATOM     21  N   UNL     1      35.565 -19.290 -21.508  0.00  0.00    -0.284 N 
ATOM     22  C   UNL     1      34.720 -20.126 -20.781  0.00  0.00    +0.205 C 
ATOM     23  H   UNL     1      36.520 -19.531 -21.508  0.00  0.00    +0.155 HD
BRANCH  21  25
ATOM     24  F   UNL     1      35.171 -16.846 -20.250  0.00  0.00    -0.203 F 
ATOM     25  C   UNL     1      35.213 -18.134 -22.245  0.00  0.00    +0.078 C 
ATOM     26  C   UNL     1      35.025 -16.934 -21.580  0.00  0.00    +0.155 C 
ATOM     27  C   UNL     1      35.064 -18.231 -23.619  0.00  0.00    +0.018 C 
ATOM     28  C   UNL     1      34.523 -15.877 -23.694  0.00  0.00    +0.061 C 
ATOM     29  C   UNL     1      34.678 -15.797 -22.310  0.00  0.00    +0.046 C 
ATOM     30  C   UNL     1      34.715 -17.094 -24.348  0.00  0.00    +0.017 C 
BRANCH  28  32
ATOM     31  O   UNL     1      34.492 -13.175 -22.663  0.00  0.00    -0.269 OA
ATOM     32  N   UNL     1      34.161 -14.695 -24.452  0.00  0.00    -0.233 N 
ATOM     33  C   UNL     1      34.225 -13.416 -23.840  0.00  0.00    +0.257 C 
ATOM     34  C   UNL     1      33.728 -14.807 -25.775  0.00  0.00    +0.072 C 
ATOM     35  C   UNL     1      33.880 -12.246 -24.707  0.00  0.00    +0.059 C 
ATOM     36  C   UNL     1      33.394 -13.748 -26.519  0.00  0.00    +0.017 C 
ATOM     37  C   UNL     1      33.481 -12.428 -25.967  0.00  0.00    +0.006 C 
ENDBRANCH  28  32
ENDBRANCH  21  25
ENDBRANCH   1  22
TORSDOF 7
ENDMDL
MODEL 7
REMARK VINA RESULT:     -10.7      4.888      7.076
REMARK  Name = 11979006
REMARK  7 active torsions:
REMARK  status: ('A' for Active; 'I' for Inactive)
REMARK    1  A    between atoms: C_1  and  N_2
REMARK    2  A    between atoms: C_1  and  C_22
REMARK    3  A    between atoms: C_3  and  N_9
REMARK    4  A    between atoms: C_4  and  O_18
REMARK    5  A    between atoms: C_10  and  C_14
REMARK    6  A    between atoms: N_21  and  C_25
REMARK    7  A    between atoms: C_28  and  N_32
REMARK                            x       y       z     vdW  Elec       q    Type
REMARK                         _______ _______ _______ _____ _____    ______ ____
ROOT
ATOM      1  C   UNL     1      36.002 -23.864 -15.440  0.00  0.00    +0.010 C 
ENDROOT
BRANCH   1   2
ATOM      2  N   UNL     1      34.739 -24.394 -14.948  0.00  0.00    +0.396 N 
ATOM      3  C   UNL     1      32.428 -24.414 -14.909  0.00  0.00    +0.076 C 
ATOM      4  C   UNL     1      32.904 -24.121 -13.484  0.00  0.00    +0.106 C 
ATOM      5  C   UNL     1      33.604 -24.001 -15.783  0.00  0.00    -0.054 C 
ATOM      6  C   UNL     1      34.416 -23.916 -13.599  0.00  0.00    -0.045 C 
ATOM      7  H   UNL     1      34.874 -25.404 -14.961  0.00  0.00    -0.079 HD
BRANCH   3   9
ATOM      8  O   UNL     1      29.826 -25.499 -14.903  0.00  0.00    -0.270 OA
ATOM      9  N   UNL     1      31.222 -23.706 -15.242  0.00  0.00    -0.302 N 
ATOM     10  C   UNL     1      29.965 -24.316 -15.215  0.00  0.00    +0.252 C 
ATOM     11  H   UNL     1      31.283 -22.758 -15.499  0.00  0.00    +0.150 HD
BRANCH  10  14
ATOM     12 CL   UNL     1      26.061 -21.650 -17.979  0.00  0.00    -0.075 Cl
ATOM     13  S   UNL     1      28.353 -23.357 -17.174  0.00  0.00    -0.071 S 
ATOM     14  C   UNL     1      28.823 -23.453 -15.551  0.00  0.00    +0.084 C 
ATOM     15  C   UNL     1      28.083 -22.705 -14.703  0.00  0.00    +0.012 C 
ATOM     16  C   UNL     1      27.063 -22.005 -15.411  0.00  0.00    +0.019 C 
ATOM     17  C   UNL     1      27.096 -22.270 -16.762  0.00  0.00    +0.087 C 
ENDBRANCH  10  14
ENDBRANCH   3   9
BRANCH   4  18
ATOM     18  O   UNL     1      32.607 -25.234 -12.651  0.00  0.00    -0.385 OA
ATOM     19  H   UNL     1      33.427 -25.703 -12.434  0.00  0.00    +0.210 HD
ENDBRANCH   4  18
ENDBRANCH   1   2
BRANCH   1  22
ATOM     20  O   UNL     1      35.513 -21.511 -15.653  0.00  0.00    -0.277 OA
ATOM     21  N   UNL     1      35.821 -22.815 -17.581  0.00  0.00    -0.284 N 
ATOM     22  C   UNL     1      35.744 -22.580 -16.210  0.00  0.00    +0.205 C 
ATOM     23  H   UNL     1      36.022 -23.741 -17.852  0.00  0.00    +0.155 HD
BRANCH  21  25
ATOM     24  F   UNL     1      33.287 -22.128 -18.483  0.00  0.00    -0.203 F 
ATOM     25  C   UNL     1      35.644 -21.882 -18.630  0.00  0.00    +0.078 C 
ATOM     26  C   UNL     1      34.363 -21.566 -19.051  0.00  0.00    +0.155 C 
ATOM     27  C   UNL     1      36.760 -21.303 -19.212  0.00  0.00    +0.018 C 
ATOM     28  C   UNL     1      35.305 -20.054 -20.683  0.00  0.00    +0.061 C 
ATOM     29  C   UNL     1      34.193 -20.645 -20.085  0.00  0.00    +0.046 C 
ATOM     30  C   UNL     1      36.589 -20.383 -20.247  0.00  0.00    +0.017 C 
BRANCH  28  32
ATOM     31  O   UNL     1      35.392 -17.178 -20.394  0.00  0.00    -0.269 OA
ATOM     32  N   UNL     1      35.127 -19.098 -21.758  0.00  0.00    -0.233 N 
ATOM     33  C   UNL     1      35.233 -17.707 -21.493  0.00  0.00    +0.257 C 
ATOM     34  C   UNL     1      34.830 -19.533 -23.051  0.00  0.00    +0.072 C 
ATOM     35  C   UNL     1      35.082 -16.793 -22.667  0.00  0.00    +0.059 C 
ATOM     36  C   UNL     1      34.668 -18.693 -24.078  0.00  0.00    +0.017 C 
ATOM     37  C   UNL     1      34.806 -17.281 -23.878  0.00  0.00    +0.006 C 
ENDBRANCH  28  32
ENDBRANCH  21  25
ENDBRANCH   1  22
TORSDOF 7
ENDMDL
MODEL 8
REMARK VINA RESULT:     -10.6      6.545     10.262
REMARK  Name = 11979006
REMARK  7 active torsions:
REMARK  status: ('A' for Active; 'I' for Inactive)
REMARK    1  A    between atoms: C_1  and  N_2
REMARK    2  A    between atoms: C_1  and  C_22
REMARK    3  A    between atoms: C_3  and  N_9
REMARK    4  A    between atoms: C_4  and  O_18
REMARK    5  A    between atoms: C_10  and  C_14
REMARK    6  A    between atoms: N_21  and  C_25
REMARK    7  A    between atoms: C_28  and  N_32
REMARK                            x       y       z     vdW  Elec       q    Type
REMARK                         _______ _______ _______ _____ _____    ______ ____
ROOT
ATOM      1  C   UNL     1      32.037 -12.172 -20.416  0.00  0.00    +0.010 C 
ENDROOT
BRANCH   1   2
ATOM      2  N   UNL     1      32.568 -13.142 -21.362  0.00  0.00    +0.396 N 
ATOM      3  C   UNL     1      33.530 -15.189 -21.840  0.00  0.00    +0.076 C 
ATOM      4  C   UNL     1      34.484 -14.108 -22.353  0.00  0.00    +0.106 C 
ATOM      5  C   UNL     1      32.702 -14.478 -20.779  0.00  0.00    -0.054 C 
ATOM      6  C   UNL     1      33.911 -12.787 -21.837  0.00  0.00    -0.045 C 
ATOM      7  H   UNL     1      31.893 -13.138 -22.125  0.00  0.00    -0.079 HD
BRANCH   3   9
ATOM      8  O   UNL     1      34.870 -17.144 -23.368  0.00  0.00    -0.270 OA
ATOM      9  N   UNL     1      34.224 -16.333 -21.317  0.00  0.00    -0.302 N 
ATOM     10  C   UNL     1      34.867 -17.261 -22.141  0.00  0.00    +0.252 C 
ATOM     11  H   UNL     1      34.249 -16.469 -20.342  0.00  0.00    +0.150 HD
BRANCH  10  14
ATOM     12 CL   UNL     1      35.914 -21.934 -19.487  0.00  0.00    -0.075 Cl
ATOM     13  S   UNL     1      34.630 -19.653 -20.887  0.00  0.00    -0.071 S 
ATOM     14  C   UNL     1      35.561 -18.360 -21.456  0.00  0.00    +0.084 C 
ATOM     15  C   UNL     1      36.887 -18.470 -21.216  0.00  0.00    +0.012 C 
ATOM     16  C   UNL     1      37.172 -19.683 -20.523  0.00  0.00    +0.019 C 
ATOM     17  C   UNL     1      36.035 -20.421 -20.282  0.00  0.00    +0.087 C 
ENDBRANCH  10  14
ENDBRANCH   3   9
BRANCH   4  18
ATOM     18  O   UNL     1      34.500 -14.132 -23.775  0.00  0.00    -0.385 OA
ATOM     19  H   UNL     1      35.148 -13.488 -24.101  0.00  0.00    +0.210 HD
ENDBRANCH   4  18
ENDBRANCH   1   2
BRANCH   1  22
ATOM     20  O   UNL     1      30.374 -10.987 -21.701  0.00  0.00    -0.277 OA
ATOM     21  N   UNL     1      32.400  -9.930 -21.162  0.00  0.00    -0.284 N 
ATOM     22  C   UNL     1      31.482 -10.979 -21.175  0.00  0.00    +0.205 C 
ATOM     23  H   UNL     1      33.245 -10.098 -20.685  0.00  0.00    +0.155 HD
BRANCH  21  25
ATOM     24  F   UNL     1      33.405  -7.655 -19.928  0.00  0.00    -0.203 F 
ATOM     25  C   UNL     1      32.260  -8.652 -21.754  0.00  0.00    +0.078 C 
ATOM     26  C   UNL     1      32.775  -7.542 -21.106  0.00  0.00    +0.155 C 
ATOM     27  C   UNL     1      31.609  -8.541 -22.972  0.00  0.00    +0.018 C 
ATOM     28  C   UNL     1      31.982  -6.154 -22.918  0.00  0.00    +0.061 C 
ATOM     29  C   UNL     1      32.636  -6.284 -21.693  0.00  0.00    +0.046 C 
ATOM     30  C   UNL     1      31.469  -7.283 -23.558  0.00  0.00    +0.017 C 
BRANCH  28  32
ATOM     31  O   UNL     1      30.125  -4.110 -22.062  0.00  0.00    -0.269 OA
ATOM     32  N   UNL     1      31.837  -4.846 -23.527  0.00  0.00    -0.233 N 
ATOM     33  C   UNL     1      30.913  -3.914 -22.986  0.00  0.00    +0.257 C 
ATOM     34  C   UNL     1      32.583  -4.504 -24.656  0.00  0.00    +0.072 C 
ATOM     35  C   UNL     1      30.860  -2.572 -23.645  0.00  0.00    +0.059 C 
ATOM     36  C   UNL     1      32.493  -3.308 -25.247  0.00  0.00    +0.017 C 
ATOM     37  C   UNL     1      31.609  -2.311 -24.718  0.00  0.00    +0.006 C 
ENDBRANCH  28  32
ENDBRANCH  21  25
ENDBRANCH   1  22
TORSDOF 7
ENDMDL
MODEL 9
REMARK VINA RESULT:     -10.5      3.032      4.761
REMARK  Name = 11979006
REMARK  7 active torsions:
REMARK  status: ('A' for Active; 'I' for Inactive)
REMARK    1  A    between atoms: C_1  and  N_2
REMARK    2  A    between atoms: C_1  and  C_22
REMARK    3  A    between atoms: C_3  and  N_9
REMARK    4  A    between atoms: C_4  and  O_18
REMARK    5  A    between atoms: C_10  and  C_14
REMARK    6  A    between atoms: N_21  and  C_25
REMARK    7  A    between atoms: C_28  and  N_32
REMARK                            x       y       z     vdW  Elec       q    Type
REMARK                         _______ _______ _______ _____ _____    ______ ____
ROOT
ATOM      1  C   UNL     1      32.008 -23.908 -15.792  0.00  0.00    +0.010 C 
ENDROOT
BRANCH   1   2
ATOM      2  N   UNL     1      33.027 -23.613 -14.796  0.00  0.00    +0.396 N 
ATOM      3  C   UNL     1      35.191 -23.780 -14.001  0.00  0.00    +0.076 C 
ATOM      4  C   UNL     1      34.269 -24.378 -12.936  0.00  0.00    +0.106 C 
ATOM      5  C   UNL     1      34.381 -23.874 -15.286  0.00  0.00    -0.054 C 
ATOM      6  C   UNL     1      32.885 -24.433 -13.587  0.00  0.00    -0.045 C 
ATOM      7  H   UNL     1      32.893 -22.624 -14.590  0.00  0.00    -0.079 HD
BRANCH   3   9
ATOM      8  O   UNL     1      37.656 -22.631 -14.745  0.00  0.00    -0.270 OA
ATOM      9  N   UNL     1      36.447 -24.473 -14.093  0.00  0.00    -0.302 N 
ATOM     10  C   UNL     1      37.630 -23.832 -14.470  0.00  0.00    +0.252 C 
ATOM     11  H   UNL     1      36.476 -25.434 -13.883  0.00  0.00    +0.150 HD
BRANCH  10  14
ATOM     12 CL   UNL     1      41.526 -27.418 -13.077  0.00  0.00    -0.075 Cl
ATOM     13  S   UNL     1      39.121 -25.680 -13.161  0.00  0.00    -0.071 S 
ATOM     14  C   UNL     1      38.839 -24.668 -14.487  0.00  0.00    +0.084 C 
ATOM     15  C   UNL     1      39.780 -24.730 -15.455  0.00  0.00    +0.012 C 
ATOM     16  C   UNL     1      40.801 -25.660 -15.104  0.00  0.00    +0.019 C 
ATOM     17  C   UNL     1      40.566 -26.248 -13.881  0.00  0.00    +0.087 C 
ENDBRANCH  10  14
ENDBRANCH   3   9
BRANCH   4  18
ATOM     18  O   UNL     1      34.258 -23.532 -11.794  0.00  0.00    -0.385 OA
ATOM     19  H   UNL     1      33.364 -23.509 -11.418  0.00  0.00    +0.210 HD
ENDBRANCH   4  18
ENDBRANCH   1   2
BRANCH   1  22
ATOM     20  O   UNL     1      31.017 -22.047 -16.965  0.00  0.00    -0.277 OA
ATOM     21  N   UNL     1      33.172 -22.775 -17.546  0.00  0.00    -0.284 N 
ATOM     22  C   UNL     1      31.979 -22.797 -16.827  0.00  0.00    +0.205 C 
ATOM     23  H   UNL     1      33.841 -23.454 -17.297  0.00  0.00    +0.155 HD
BRANCH  21  25
ATOM     24  F   UNL     1      35.824 -22.456 -18.303  0.00  0.00    -0.203 F 
ATOM     25  C   UNL     1      33.535 -21.894 -18.593  0.00  0.00    +0.078 C 
ATOM     26  C   UNL     1      34.869 -21.763 -18.940  0.00  0.00    +0.155 C 
ATOM     27  C   UNL     1      32.545 -21.181 -19.248  0.00  0.00    +0.018 C 
ATOM     28  C   UNL     1      34.239 -20.167 -20.641  0.00  0.00    +0.061 C 
ATOM     29  C   UNL     1      35.224 -20.894 -19.971  0.00  0.00    +0.046 C 
ATOM     30  C   UNL     1      32.899 -20.311 -20.279  0.00  0.00    +0.017 C 
BRANCH  28  32
ATOM     31  O   UNL     1      35.087 -17.424 -20.295  0.00  0.00    -0.269 OA
ATOM     32  N   UNL     1      34.608 -19.263 -21.713  0.00  0.00    -0.233 N 
ATOM     33  C   UNL     1      35.047 -17.948 -21.408  0.00  0.00    +0.257 C 
ATOM     34  C   UNL     1      34.513 -19.669 -23.045  0.00  0.00    +0.072 C 
ATOM     35  C   UNL     1      35.453 -17.098 -22.569  0.00  0.00    +0.059 C 
ATOM     36  C   UNL     1      34.851 -18.877 -24.068  0.00  0.00    +0.017 C 
ATOM     37  C   UNL     1      35.343 -17.554 -23.819  0.00  0.00    +0.006 C 
ENDBRANCH  28  32
ENDBRANCH  21  25
ENDBRANCH   1  22
TORSDOF 7
ENDMDL
