MODEL 1
REMARK VINA RESULT:     -12.3      0.000      0.000
REMARK  Name = 52920501
REMARK  9 active torsions:
REMARK  status: ('A' for Active; 'I' for Inactive)
REMARK    1  A    between atoms: N_1  and  C_12
REMARK    2  A    between atoms: C_5  and  O_27
REMARK    3  A    between atoms: C_9  and  C_15
REMARK    4  A    between atoms: C_15  and  S_16
REMARK    5  A    between atoms: S_16  and  N_19
REMARK    6  A    between atoms: N_19  and  C_21
REMARK    7  A    between atoms: C_21  and  C_22
REMARK    8  A    between atoms: C_22  and  N_23
REMARK    9  A    between atoms: O_27  and  C_35
REMARK                            x       y       z     vdW  Elec       q    Type
REMARK                         _______ _______ _______ _____ _____    ______ ____
ROOT
ATOM      1  N   UNL     1      32.698 -22.496 -18.180  0.00  0.00    -0.247 N 
ATOM      2  N   UNL     1      33.383 -22.828 -15.960  0.00  0.00    -0.300 NA
ATOM      3  N   UNL     1      31.162 -23.435 -16.675  0.00  0.00    -0.170 NA
ATOM      4  C   UNL     1      32.400 -22.942 -16.874  0.00  0.00    +0.152 C 
ATOM      5  C   UNL     1      33.063 -23.262 -14.723  0.00  0.00    +0.295 C 
ATOM      6  C   UNL     1      31.832 -23.788 -14.390  0.00  0.00    +0.094 C 
ATOM      7  C   UNL     1      30.911 -23.851 -15.416  0.00  0.00    +0.118 C 
ATOM      8  H   UNL     1      31.952 -22.599 -18.814  0.00  0.00    +0.165 HD
ENDROOT
BRANCH   1  12
ATOM      9  C   UNL     1      34.892 -20.516 -20.410  0.00  0.00    +0.004 C 
ATOM     10  C   UNL     1      33.746 -21.071 -19.843  0.00  0.00    +0.013 C 
ATOM     11  C   UNL     1      36.148 -20.825 -19.888  0.00  0.00    -0.002 C 
ATOM     12  C   UNL     1      33.854 -21.935 -18.753  0.00  0.00    +0.057 C 
ATOM     13  C   UNL     1      36.258 -21.690 -18.799  0.00  0.00    +0.001 C 
ATOM     14  C   UNL     1      35.111 -22.245 -18.232  0.00  0.00    +0.015 C 
BRANCH   9  15
ATOM     15  C   UNL     1      34.775 -19.591 -21.574  0.00  0.00    +0.195 C 
BRANCH  15  16
ATOM     16  S   UNL     1      35.775 -18.176 -21.245  0.00  0.00    +0.045 S 
ATOM     17  O   UNL     1      34.968 -17.197 -20.535  0.00  0.00    -0.157 OA
ATOM     18  O   UNL     1      37.032 -18.638 -20.677  0.00  0.00    -0.157 OA
BRANCH  16  19
ATOM     19  N   UNL     1      36.083 -17.617 -22.832  0.00  0.00    -0.185 NA
ATOM     20  H   UNL     1      36.759 -18.257 -23.249  0.00  0.00    +0.148 HD
BRANCH  19  21
ATOM     21  C   UNL     1      34.959 -17.501 -23.779  0.00  0.00    +0.068 C 
BRANCH  21  22
ATOM     22  C   UNL     1      34.976 -16.117 -24.412  0.00  0.00    -0.058 C 
BRANCH  22  23
ATOM     23  N   UNL     1      33.903 -15.297 -23.864  0.00  0.00    +0.385 N 
ATOM     24  C   UNL     1      34.404 -14.449 -22.781  0.00  0.00    -0.101 C 
ATOM     25  C   UNL     1      33.295 -14.475 -24.912  0.00  0.00    -0.101 C 
ATOM     26  H   UNL     1      33.189 -15.920 -23.485  0.00  0.00    -0.080 HD
ENDBRANCH  22  23
ENDBRANCH  21  22
ENDBRANCH  19  21
ENDBRANCH  16  19
ENDBRANCH  15  16
ENDBRANCH   9  15
ENDBRANCH   1  12
BRANCH   5  27
ATOM     27  O   UNL     1      34.042 -23.167 -13.749  0.00  0.00    -0.427 OA
BRANCH  27  35
ATOM     28  N   UNL     1      39.188 -24.532 -15.057  0.00  0.00    -0.316 N 
ATOM     29  C   UNL     1      37.276 -24.881 -13.960  0.00  0.00    +0.017 C 
ATOM     30  C   UNL     1      37.924 -24.027 -14.857  0.00  0.00    +0.048 C 
ATOM     31  C   UNL     1      39.364 -25.672 -14.321  0.00  0.00    +0.026 C 
ATOM     32  C   UNL     1      38.197 -25.914 -13.631  0.00  0.00    +0.012 C 
ATOM     33  C   UNL     1      35.952 -24.589 -13.581  0.00  0.00    +0.039 C 
ATOM     34  C   UNL     1      37.308 -22.891 -15.394  0.00  0.00    +0.018 C 
ATOM     35  C   UNL     1      35.324 -23.456 -14.111  0.00  0.00    +0.148 C 
ATOM     36  C   UNL     1      35.993 -22.621 -15.003  0.00  0.00    +0.039 C 
ATOM     37  C   UNL     1      40.635 -26.417 -14.352  0.00  0.00    +0.047 C 
ATOM     38  H   UNL     1      39.869 -24.131 -15.645  0.00  0.00    +0.152 HD
ENDBRANCH  27  35
ENDBRANCH   5  27
TORSDOF 9
ENDMDL
MODEL 2
REMARK VINA RESULT:     -12.1      2.701     10.072
REMARK  Name = 52920501
REMARK  9 active torsions:
REMARK  status: ('A' for Active; 'I' for Inactive)
REMARK    1  A    between atoms: N_1  and  C_12
REMARK    2  A    between atoms: C_5  and  O_27
REMARK    3  A    between atoms: C_9  and  C_15
REMARK    4  A    between atoms: C_15  and  S_16
REMARK    5  A    between atoms: S_16  and  N_19
REMARK    6  A    between atoms: N_19  and  C_21
REMARK    7  A    between atoms: C_21  and  C_22
REMARK    8  A    between atoms: C_22  and  N_23
REMARK    9  A    between atoms: O_27  and  C_35
REMARK                            x       y       z     vdW  Elec       q    Type
REMARK                         _______ _______ _______ _____ _____    ______ ____
ROOT
ATOM      1  N   UNL     1      34.386 -22.743 -17.300  0.00  0.00    -0.247 N 
ATOM      2  N   UNL     1      35.150 -21.250 -18.941  0.00  0.00    -0.300 NA
ATOM      3  N   UNL     1      32.845 -21.950 -18.882  0.00  0.00    -0.170 NA
ATOM      4  C   UNL     1      34.114 -21.941 -18.430  0.00  0.00    +0.152 C 
ATOM      5  C   UNL     1      34.855 -20.496 -20.020  0.00  0.00    +0.295 C 
ATOM      6  C   UNL     1      33.596 -20.418 -20.580  0.00  0.00    +0.094 C 
ATOM      7  C   UNL     1      32.620 -21.174 -19.963  0.00  0.00    +0.118 C 
ATOM      8  H   UNL     1      33.601 -23.229 -16.960  0.00  0.00    +0.165 HD
ENDROOT
BRANCH   1  12
ATOM      9  C   UNL     1      36.752 -24.219 -14.864  0.00  0.00    +0.004 C 
ATOM     10  C   UNL     1      35.587 -23.983 -15.593  0.00  0.00    +0.013 C 
ATOM     11  C   UNL     1      37.892 -23.451 -15.104  0.00  0.00    -0.002 C 
ATOM     12  C   UNL     1      35.561 -22.981 -16.563  0.00  0.00    +0.057 C 
ATOM     13  C   UNL     1      37.867 -22.449 -16.074  0.00  0.00    +0.001 C 
ATOM     14  C   UNL     1      36.702 -22.214 -16.803  0.00  0.00    +0.015 C 
BRANCH   9  15
ATOM     15  C   UNL     1      36.778 -25.290 -13.827  0.00  0.00    +0.195 C 
BRANCH  15  16
ATOM     16  S   UNL     1      36.319 -24.566 -12.286  0.00  0.00    +0.045 S 
ATOM     17  O   UNL     1      37.059 -25.230 -11.226  0.00  0.00    -0.157 OA
ATOM     18  O   UNL     1      36.390 -23.120 -12.432  0.00  0.00    -0.157 OA
BRANCH  16  19
ATOM     19  N   UNL     1      34.670 -25.010 -12.194  0.00  0.00    -0.185 NA
ATOM     20  H   UNL     1      34.449 -25.137 -11.206  0.00  0.00    +0.148 HD
BRANCH  19  21
ATOM     21  C   UNL     1      33.653 -24.099 -12.750  0.00  0.00    +0.068 C 
BRANCH  21  22
ATOM     22  C   UNL     1      32.601 -24.913 -13.490  0.00  0.00    -0.058 C 
BRANCH  22  23
ATOM     23  N   UNL     1      31.398 -24.116 -13.696  0.00  0.00    +0.385 N 
ATOM     24  C   UNL     1      31.635 -23.076 -14.700  0.00  0.00    -0.101 C 
ATOM     25  C   UNL     1      30.278 -24.966 -14.102  0.00  0.00    -0.101 C 
ATOM     26  H   UNL     1      31.160 -23.665 -12.813  0.00  0.00    -0.080 HD
ENDBRANCH  22  23
ENDBRANCH  21  22
ENDBRANCH  19  21
ENDBRANCH  16  19
ENDBRANCH  15  16
ENDBRANCH   9  15
ENDBRANCH   1  12
BRANCH   5  27
ATOM     27  O   UNL     1      35.888 -19.765 -20.582  0.00  0.00    -0.427 OA
BRANCH  27  35
ATOM     28  N   UNL     1      34.541 -15.633 -23.924  0.00  0.00    -0.316 N 
ATOM     29  C   UNL     1      34.945 -16.475 -21.897  0.00  0.00    +0.017 C 
ATOM     30  C   UNL     1      34.891 -16.785 -23.258  0.00  0.00    +0.048 C 
ATOM     31  C   UNL     1      34.371 -14.606 -23.034  0.00  0.00    +0.026 C 
ATOM     32  C   UNL     1      34.614 -15.097 -21.771  0.00  0.00    +0.012 C 
ATOM     33  C   UNL     1      35.284 -17.490 -20.982  0.00  0.00    +0.039 C 
ATOM     34  C   UNL     1      35.162 -18.067 -23.751  0.00  0.00    +0.018 C 
ATOM     35  C   UNL     1      35.558 -18.777 -21.461  0.00  0.00    +0.148 C 
ATOM     36  C   UNL     1      35.497 -19.059 -22.824  0.00  0.00    +0.039 C 
ATOM     37  C   UNL     1      33.992 -13.256 -23.486  0.00  0.00    +0.047 C 
ATOM     38  H   UNL     1      34.429 -15.557 -24.899  0.00  0.00    +0.152 HD
ENDBRANCH  27  35
ENDBRANCH   5  27
TORSDOF 9
ENDMDL
MODEL 3
REMARK VINA RESULT:     -11.5      2.916     10.670
REMARK  Name = 52920501
REMARK  9 active torsions:
REMARK  status: ('A' for Active; 'I' for Inactive)
REMARK    1  A    between atoms: N_1  and  C_12
REMARK    2  A    between atoms: C_5  and  O_27
REMARK    3  A    between atoms: C_9  and  C_15
REMARK    4  A    between atoms: C_15  and  S_16
REMARK    5  A    between atoms: S_16  and  N_19
REMARK    6  A    between atoms: N_19  and  C_21
REMARK    7  A    between atoms: C_21  and  C_22
REMARK    8  A    between atoms: C_22  and  N_23
REMARK    9  A    between atoms: O_27  and  C_35
REMARK                            x       y       z     vdW  Elec       q    Type
REMARK                         _______ _______ _______ _____ _____    ______ ____
ROOT
ATOM      1  N   UNL     1      34.251 -22.453 -17.879  0.00  0.00    -0.247 N 
ATOM      2  N   UNL     1      35.035 -20.808 -19.357  0.00  0.00    -0.300 NA
ATOM      3  N   UNL     1      32.788 -21.660 -19.534  0.00  0.00    -0.170 NA
ATOM      4  C   UNL     1      34.013 -21.598 -18.977  0.00  0.00    +0.152 C 
ATOM      5  C   UNL     1      34.774 -20.005 -20.409  0.00  0.00    +0.295 C 
ATOM      6  C   UNL     1      33.561 -19.972 -21.067  0.00  0.00    +0.094 C 
ATOM      7  C   UNL     1      32.596 -20.830 -20.581  0.00  0.00    +0.118 C 
ATOM      8  H   UNL     1      33.476 -23.011 -17.637  0.00  0.00    +0.165 HD
ENDROOT
BRANCH   1  12
ATOM      9  C   UNL     1      36.431 -23.774 -15.195  0.00  0.00    +0.004 C 
ATOM     10  C   UNL     1      35.314 -23.567 -16.004  0.00  0.00    +0.013 C 
ATOM     11  C   UNL     1      37.612 -23.075 -15.445  0.00  0.00    -0.002 C 
ATOM     12  C   UNL     1      35.377 -22.662 -17.063  0.00  0.00    +0.057 C 
ATOM     13  C   UNL     1      37.676 -22.170 -16.504  0.00  0.00    +0.001 C 
ATOM     14  C   UNL     1      36.558 -21.963 -17.313  0.00  0.00    +0.015 C 
BRANCH   9  15
ATOM     15  C   UNL     1      36.363 -24.743 -14.063  0.00  0.00    +0.195 C 
BRANCH  15  16
ATOM     16  S   UNL     1      37.257 -26.189 -14.532  0.00  0.00    +0.045 S 
ATOM     17  O   UNL     1      36.375 -27.046 -15.307  0.00  0.00    -0.157 OA
ATOM     18  O   UNL     1      38.535 -25.766 -15.084  0.00  0.00    -0.157 OA
BRANCH  16  19
ATOM     19  N   UNL     1      37.549 -26.904 -13.005  0.00  0.00    -0.185 NA
ATOM     20  H   UNL     1      38.554 -27.061 -12.936  0.00  0.00    +0.148 HD
BRANCH  19  21
ATOM     21  C   UNL     1      37.140 -26.179 -11.788  0.00  0.00    +0.068 C 
BRANCH  21  22
ATOM     22  C   UNL     1      38.108 -25.032 -11.538  0.00  0.00    -0.058 C 
BRANCH  22  23
ATOM     23  N   UNL     1      37.456 -23.980 -10.768  0.00  0.00    +0.385 N 
ATOM     24  C   UNL     1      37.507 -22.706 -11.490  0.00  0.00    -0.101 C 
ATOM     25  C   UNL     1      36.068 -24.340 -10.473  0.00  0.00    -0.101 C 
ATOM     26  H   UNL     1      37.958 -23.873  -9.887  0.00  0.00    -0.080 HD
ENDBRANCH  22  23
ENDBRANCH  21  22
ENDBRANCH  19  21
ENDBRANCH  16  19
ENDBRANCH  15  16
ENDBRANCH   9  15
ENDBRANCH   1  12
BRANCH   5  27
ATOM     27  O   UNL     1      35.794 -19.173 -20.837  0.00  0.00    -0.427 OA
BRANCH  27  35
ATOM     28  N   UNL     1      34.413 -14.814 -23.861  0.00  0.00    -0.316 N 
ATOM     29  C   UNL     1      34.770 -15.816 -21.901  0.00  0.00    +0.017 C 
ATOM     30  C   UNL     1      34.783 -16.007 -23.284  0.00  0.00    +0.048 C 
ATOM     31  C   UNL     1      34.166 -13.877 -22.894  0.00  0.00    +0.026 C 
ATOM     32  C   UNL     1      34.378 -14.468 -21.669  0.00  0.00    +0.012 C 
ATOM     33  C   UNL     1      35.114 -16.896 -21.063  0.00  0.00    +0.039 C 
ATOM     34  C   UNL     1      35.126 -17.228 -23.874  0.00  0.00    +0.018 C 
ATOM     35  C   UNL     1      35.459 -18.123 -21.640  0.00  0.00    +0.148 C 
ATOM     36  C   UNL     1      35.464 -18.285 -23.024  0.00  0.00    +0.039 C 
ATOM     37  C   UNL     1      33.749 -12.507 -23.242  0.00  0.00    +0.047 C 
ATOM     38  H   UNL     1      34.337 -14.656 -24.830  0.00  0.00    +0.152 HD
ENDBRANCH  27  35
ENDBRANCH   5  27
TORSDOF 9
ENDMDL
MODEL 4
REMARK VINA RESULT:     -11.5      2.044      5.408
REMARK  Name = 52920501
REMARK  9 active torsions:
REMARK  status: ('A' for Active; 'I' for Inactive)
REMARK    1  A    between atoms: N_1  and  C_12
REMARK    2  A    between atoms: C_5  and  O_27
REMARK    3  A    between atoms: C_9  and  C_15
REMARK    4  A    between atoms: C_15  and  S_16
REMARK    5  A    between atoms: S_16  and  N_19
REMARK    6  A    between atoms: N_19  and  C_21
REMARK    7  A    between atoms: C_21  and  C_22
REMARK    8  A    between atoms: C_22  and  N_23
REMARK    9  A    between atoms: O_27  and  C_35
REMARK                            x       y       z     vdW  Elec       q    Type
REMARK                         _______ _______ _______ _____ _____    ______ ____
ROOT
ATOM      1  N   UNL     1      36.105 -23.380 -16.144  0.00  0.00    -0.247 N 
ATOM      2  N   UNL     1      34.565 -23.502 -14.379  0.00  0.00    -0.300 NA
ATOM      3  N   UNL     1      36.821 -24.308 -14.112  0.00  0.00    -0.170 NA
ATOM      4  C   UNL     1      35.816 -23.748 -14.813  0.00  0.00    +0.152 C 
ATOM      5  C   UNL     1      34.323 -23.867 -13.102  0.00  0.00    +0.295 C 
ATOM      6  C   UNL     1      35.265 -24.449 -12.280  0.00  0.00    +0.094 C 
ATOM      7  C   UNL     1      36.509 -24.648 -12.844  0.00  0.00    +0.118 C 
ATOM      8  H   UNL     1      37.030 -23.577 -16.419  0.00  0.00    +0.165 HD
ENDROOT
BRANCH   1  12
ATOM      9  C   UNL     1      35.178 -21.447 -19.163  0.00  0.00    +0.004 C 
ATOM     10  C   UNL     1      35.947 -22.037 -18.160  0.00  0.00    +0.013 C 
ATOM     11  C   UNL     1      33.792 -21.604 -19.163  0.00  0.00    -0.002 C 
ATOM     12  C   UNL     1      35.330 -22.784 -17.157  0.00  0.00    +0.057 C 
ATOM     13  C   UNL     1      33.174 -22.351 -18.159  0.00  0.00    +0.001 C 
ATOM     14  C   UNL     1      33.944 -22.941 -17.156  0.00  0.00    +0.015 C 
BRANCH   9  15
ATOM     15  C   UNL     1      35.838 -20.649 -20.236  0.00  0.00    +0.195 C 
BRANCH  15  16
ATOM     16  S   UNL     1      34.602 -19.657 -21.012  0.00  0.00    +0.045 S 
ATOM     17  O   UNL     1      34.606 -19.948 -22.437  0.00  0.00    -0.157 OA
ATOM     18  O   UNL     1      33.375 -19.789 -20.243  0.00  0.00    -0.157 OA
BRANCH  16  19
ATOM     19  N   UNL     1      35.229 -18.088 -20.750  0.00  0.00    -0.185 NA
ATOM     20  H   UNL     1      36.140 -18.200 -20.305  0.00  0.00    +0.148 HD
BRANCH  19  21
ATOM     21  C   UNL     1      35.420 -17.193 -21.905  0.00  0.00    +0.068 C 
BRANCH  21  22
ATOM     22  C   UNL     1      34.708 -15.874 -21.642  0.00  0.00    -0.058 C 
BRANCH  22  23
ATOM     23  N   UNL     1      34.139 -15.351 -22.878  0.00  0.00    +0.385 N 
ATOM     24  C   UNL     1      34.396 -13.914 -22.997  0.00  0.00    -0.101 C 
ATOM     25  C   UNL     1      34.683 -16.061 -24.037  0.00  0.00    -0.101 C 
ATOM     26  H   UNL     1      33.130 -15.499 -22.851  0.00  0.00    -0.080 HD
ENDBRANCH  22  23
ENDBRANCH  21  22
ENDBRANCH  19  21
ENDBRANCH  16  19
ENDBRANCH  15  16
ENDBRANCH   9  15
ENDBRANCH   1  12
BRANCH   5  27
ATOM     27  O   UNL     1      33.051 -23.634 -12.610  0.00  0.00    -0.427 OA
BRANCH  27  35
ATOM     28  N   UNL     1      28.799 -24.518 -15.956  0.00  0.00    -0.316 N 
ATOM     29  C   UNL     1      30.299 -23.179 -14.990  0.00  0.00    +0.017 C 
ATOM     30  C   UNL     1      29.859 -24.501 -15.079  0.00  0.00    +0.048 C 
ATOM     31  C   UNL     1      28.552 -23.256 -16.425  0.00  0.00    +0.026 C 
ATOM     32  C   UNL     1      29.465 -22.404 -15.844  0.00  0.00    +0.012 C 
ATOM     33  C   UNL     1      31.388 -22.880 -14.148  0.00  0.00    +0.039 C 
ATOM     34  C   UNL     1      30.457 -25.545 -14.364  0.00  0.00    +0.018 C 
ATOM     35  C   UNL     1      31.996 -23.914 -13.427  0.00  0.00    +0.148 C 
ATOM     36  C   UNL     1      31.536 -25.225 -13.535  0.00  0.00    +0.039 C 
ATOM     37  C   UNL     1      27.463 -22.992 -17.383  0.00  0.00    +0.047 C 
ATOM     38  H   UNL     1      28.290 -25.322 -16.211  0.00  0.00    +0.152 HD
ENDBRANCH  27  35
ENDBRANCH   5  27
TORSDOF 9
ENDMDL
MODEL 5
REMARK VINA RESULT:     -11.3      3.400      9.104
REMARK  Name = 52920501
REMARK  9 active torsions:
REMARK  status: ('A' for Active; 'I' for Inactive)
REMARK    1  A    between atoms: N_1  and  C_12
REMARK    2  A    between atoms: C_5  and  O_27
REMARK    3  A    between atoms: C_9  and  C_15
REMARK    4  A    between atoms: C_15  and  S_16
REMARK    5  A    between atoms: S_16  and  N_19
REMARK    6  A    between atoms: N_19  and  C_21
REMARK    7  A    between atoms: C_21  and  C_22
REMARK    8  A    between atoms: C_22  and  N_23
REMARK    9  A    between atoms: O_27  and  C_35
REMARK                            x       y       z     vdW  Elec       q    Type
REMARK                         _______ _______ _______ _____ _____    ______ ____
ROOT
ATOM      1  N   UNL     1      34.689 -23.367 -14.243  0.00  0.00    -0.247 N 
ATOM      2  N   UNL     1      33.463 -23.000 -16.209  0.00  0.00    -0.300 NA
ATOM      3  N   UNL     1      32.349 -23.281 -14.091  0.00  0.00    -0.170 NA
ATOM      4  C   UNL     1      33.439 -23.208 -14.879  0.00  0.00    +0.152 C 
ATOM      5  C   UNL     1      32.252 -22.853 -16.784  0.00  0.00    +0.295 C 
ATOM      6  C   UNL     1      31.061 -22.907 -16.089  0.00  0.00    +0.094 C 
ATOM      7  C   UNL     1      31.172 -23.125 -14.731  0.00  0.00    +0.118 C 
ATOM      8  H   UNL     1      34.624 -23.517 -13.272  0.00  0.00    +0.165 HD
ENDROOT
BRANCH   1  12
ATOM      9  C   UNL     1      38.088 -24.503 -15.175  0.00  0.00    +0.004 C 
ATOM     10  C   UNL     1      36.778 -24.518 -14.697  0.00  0.00    +0.013 C 
ATOM     11  C   UNL     1      38.632 -23.322 -15.681  0.00  0.00    -0.002 C 
ATOM     12  C   UNL     1      36.011 -23.353 -14.725  0.00  0.00    +0.057 C 
ATOM     13  C   UNL     1      37.866 -22.156 -15.709  0.00  0.00    +0.001 C 
ATOM     14  C   UNL     1      36.555 -22.172 -15.231  0.00  0.00    +0.015 C 
BRANCH   9  15
ATOM     15  C   UNL     1      38.907 -25.749 -15.145  0.00  0.00    +0.195 C 
BRANCH  15  16
ATOM     16  S   UNL     1      40.195 -25.523 -13.961  0.00  0.00    +0.045 S 
ATOM     17  O   UNL     1      40.705 -26.830 -13.580  0.00  0.00    -0.157 OA
ATOM     18  O   UNL     1      41.100 -24.505 -14.472  0.00  0.00    -0.157 OA
BRANCH  16  19
ATOM     19  N   UNL     1      39.323 -24.849 -12.653  0.00  0.00    -0.185 NA
ATOM     20  H   UNL     1      38.674 -24.167 -13.046  0.00  0.00    +0.148 HD
BRANCH  19  21
ATOM     21  C   UNL     1      38.534 -25.743 -11.785  0.00  0.00    +0.068 C 
BRANCH  21  22
ATOM     22  C   UNL     1      37.103 -25.232 -11.705  0.00  0.00    -0.058 C 
BRANCH  22  23
ATOM     23  N   UNL     1      36.985 -24.222 -10.660  0.00  0.00    +0.385 N 
ATOM     24  C   UNL     1      37.098 -22.877 -11.228  0.00  0.00    -0.101 C 
ATOM     25  C   UNL     1      35.715 -24.365  -9.945  0.00  0.00    -0.101 C 
ATOM     26  H   UNL     1      37.748 -24.359  -9.997  0.00  0.00    -0.080 HD
ENDBRANCH  22  23
ENDBRANCH  21  22
ENDBRANCH  19  21
ENDBRANCH  16  19
ENDBRANCH  15  16
ENDBRANCH   9  15
ENDBRANCH   1  12
BRANCH   5  27
ATOM     27  O   UNL     1      32.225 -22.636 -18.151  0.00  0.00    -0.427 OA
BRANCH  27  35
ATOM     28  N   UNL     1      36.444 -20.089 -20.554  0.00  0.00    -0.316 N 
ATOM     29  C   UNL     1      34.260 -20.377 -20.201  0.00  0.00    +0.017 C 
ATOM     30  C   UNL     1      35.530 -20.845 -19.856  0.00  0.00    +0.048 C 
ATOM     31  C   UNL     1      35.800 -19.161 -21.326  0.00  0.00    +0.026 C 
ATOM     32  C   UNL     1      34.446 -19.315 -21.130  0.00  0.00    +0.012 C 
ATOM     33  C   UNL     1      33.131 -20.987 -19.621  0.00  0.00    +0.039 C 
ATOM     34  C   UNL     1      35.727 -21.898 -18.956  0.00  0.00    +0.018 C 
ATOM     35  C   UNL     1      33.313 -22.041 -18.718  0.00  0.00    +0.148 C 
ATOM     36  C   UNL     1      34.591 -22.488 -18.392  0.00  0.00    +0.039 C 
ATOM     37  C   UNL     1      36.548 -18.219 -22.177  0.00  0.00    +0.047 C 
ATOM     38  H   UNL     1      37.422 -20.199 -20.504  0.00  0.00    +0.152 HD
ENDBRANCH  27  35
ENDBRANCH   5  27
TORSDOF 9
ENDMDL
MODEL 6
REMARK VINA RESULT:     -11.2      3.325     12.222
REMARK  Name = 52920501
REMARK  9 active torsions:
REMARK  status: ('A' for Active; 'I' for Inactive)
REMARK    1  A    between atoms: N_1  and  C_12
REMARK    2  A    between atoms: C_5  and  O_27
REMARK    3  A    between atoms: C_9  and  C_15
REMARK    4  A    between atoms: C_15  and  S_16
REMARK    5  A    between atoms: S_16  and  N_19
REMARK    6  A    between atoms: N_19  and  C_21
REMARK    7  A    between atoms: C_21  and  C_22
REMARK    8  A    between atoms: C_22  and  N_23
REMARK    9  A    between atoms: O_27  and  C_35
REMARK                            x       y       z     vdW  Elec       q    Type
REMARK                         _______ _______ _______ _____ _____    ______ ____
ROOT
ATOM      1  N   UNL     1      35.446 -17.961 -23.835  0.00  0.00    -0.247 N 
ATOM      2  N   UNL     1      34.347 -16.021 -23.103  0.00  0.00    -0.300 NA
ATOM      3  N   UNL     1      34.592 -16.492 -25.454  0.00  0.00    -0.170 NA
ATOM      4  C   UNL     1      34.761 -16.766 -24.145  0.00  0.00    +0.152 C 
ATOM      5  C   UNL     1      33.698 -14.886 -23.437  0.00  0.00    +0.295 C 
ATOM      6  C   UNL     1      33.460 -14.492 -24.737  0.00  0.00    +0.094 C 
ATOM      7  C   UNL     1      33.935 -15.343 -25.715  0.00  0.00    +0.118 C 
ATOM      8  H   UNL     1      35.729 -18.473 -24.627  0.00  0.00    +0.165 HD
ENDROOT
BRANCH   1  12
ATOM      9  C   UNL     1      35.218 -19.919 -20.701  0.00  0.00    +0.004 C 
ATOM     10  C   UNL     1      34.865 -19.321 -21.910  0.00  0.00    +0.013 C 
ATOM     11  C   UNL     1      36.508 -19.758 -20.194  0.00  0.00    -0.002 C 
ATOM     12  C   UNL     1      35.801 -18.564 -22.614  0.00  0.00    +0.057 C 
ATOM     13  C   UNL     1      37.445 -19.000 -20.897  0.00  0.00    +0.001 C 
ATOM     14  C   UNL     1      37.091 -18.403 -22.107  0.00  0.00    +0.015 C 
BRANCH   9  15
ATOM     15  C   UNL     1      34.217 -20.730 -19.949  0.00  0.00    +0.195 C 
BRANCH  15  16
ATOM     16  S   UNL     1      35.069 -22.074 -19.188  0.00  0.00    +0.045 S 
ATOM     17  O   UNL     1      35.824 -22.779 -20.211  0.00  0.00    -0.157 OA
ATOM     18  O   UNL     1      35.741 -21.564 -18.004  0.00  0.00    -0.157 OA
BRANCH  16  19
ATOM     19  N   UNL     1      33.757 -23.046 -18.678  0.00  0.00    -0.185 NA
ATOM     20  H   UNL     1      33.855 -23.949 -19.142  0.00  0.00    +0.148 HD
BRANCH  19  21
ATOM     21  C   UNL     1      33.587 -23.317 -17.239  0.00  0.00    +0.068 C 
BRANCH  21  22
ATOM     22  C   UNL     1      32.198 -22.871 -16.805  0.00  0.00    -0.058 C 
BRANCH  22  23
ATOM     23  N   UNL     1      32.011 -23.114 -15.380  0.00  0.00    +0.385 N 
ATOM     24  C   UNL     1      30.904 -24.047 -15.156  0.00  0.00    -0.101 C 
ATOM     25  C   UNL     1      33.241 -23.633 -14.779  0.00  0.00    -0.101 C 
ATOM     26  H   UNL     1      31.782 -22.226 -14.933  0.00  0.00    -0.080 HD
ENDBRANCH  22  23
ENDBRANCH  21  22
ENDBRANCH  19  21
ENDBRANCH  16  19
ENDBRANCH  15  16
ENDBRANCH   9  15
ENDBRANCH   1  12
BRANCH   5  27
ATOM     27  O   UNL     1      33.251 -14.087 -22.398  0.00  0.00    -0.427 OA
BRANCH  27  35
ATOM     28  N   UNL     1      32.842  -8.665 -23.102  0.00  0.00    -0.316 N 
ATOM     29  C   UNL     1      32.221 -10.577 -22.136  0.00  0.00    +0.017 C 
ATOM     30  C   UNL     1      33.096 -10.017 -23.069  0.00  0.00    +0.048 C 
ATOM     31  C   UNL     1      31.840  -8.350 -22.225  0.00  0.00    +0.026 C 
ATOM     32  C   UNL     1      31.434  -9.514 -21.612  0.00  0.00    +0.012 C 
ATOM     33  C   UNL     1      32.272 -11.966 -21.906  0.00  0.00    +0.039 C 
ATOM     34  C   UNL     1      34.024 -10.780 -23.786  0.00  0.00    +0.018 C 
ATOM     35  C   UNL     1      33.195 -12.742 -22.616  0.00  0.00    +0.148 C 
ATOM     36  C   UNL     1      34.057 -12.156 -23.541  0.00  0.00    +0.039 C 
ATOM     37  C   UNL     1      31.370  -6.962 -22.064  0.00  0.00    +0.047 C 
ATOM     38  H   UNL     1      33.314  -8.016 -23.674  0.00  0.00    +0.152 HD
ENDBRANCH  27  35
ENDBRANCH   5  27
TORSDOF 9
ENDMDL
MODEL 7
REMARK VINA RESULT:     -11.1      2.851     11.093
REMARK  Name = 52920501
REMARK  9 active torsions:
REMARK  status: ('A' for Active; 'I' for Inactive)
REMARK    1  A    between atoms: N_1  and  C_12
REMARK    2  A    between atoms: C_5  and  O_27
REMARK    3  A    between atoms: C_9  and  C_15
REMARK    4  A    between atoms: C_15  and  S_16
REMARK    5  A    between atoms: S_16  and  N_19
REMARK    6  A    between atoms: N_19  and  C_21
REMARK    7  A    between atoms: C_21  and  C_22
REMARK    8  A    between atoms: C_22  and  N_23
REMARK    9  A    between atoms: O_27  and  C_35
REMARK                            x       y       z     vdW  Elec       q    Type
REMARK                         _______ _______ _______ _____ _____    ______ ____
ROOT
ATOM      1  N   UNL     1      35.149 -21.379 -20.721  0.00  0.00    -0.247 N 
ATOM      2  N   UNL     1      35.110 -19.039 -20.556  0.00  0.00    -0.300 NA
ATOM      3  N   UNL     1      35.128 -20.128 -22.706  0.00  0.00    -0.170 NA
ATOM      4  C   UNL     1      35.128 -20.120 -21.358  0.00  0.00    +0.152 C 
ATOM      5  C   UNL     1      35.090 -17.853 -21.198  0.00  0.00    +0.295 C 
ATOM      6  C   UNL     1      35.088 -17.725 -22.572  0.00  0.00    +0.094 C 
ATOM      7  C   UNL     1      35.108 -18.908 -23.282  0.00  0.00    +0.118 C 
ATOM      8  H   UNL     1      35.161 -22.140 -21.345  0.00  0.00    +0.165 HD
ENDROOT
BRANCH   1  12
ATOM      9  C   UNL     1      36.341 -22.072 -17.284  0.00  0.00    +0.004 C 
ATOM     10  C   UNL     1      36.336 -21.695 -18.627  0.00  0.00    +0.013 C 
ATOM     11  C   UNL     1      35.165 -22.515 -16.680  0.00  0.00    -0.002 C 
ATOM     12  C   UNL     1      35.155 -21.760 -19.366  0.00  0.00    +0.057 C 
ATOM     13  C   UNL     1      33.983 -22.581 -17.419  0.00  0.00    +0.001 C 
ATOM     14  C   UNL     1      33.978 -22.203 -18.762  0.00  0.00    +0.015 C 
BRANCH   9  15
ATOM     15  C   UNL     1      37.605 -22.002 -16.495  0.00  0.00    +0.195 C 
BRANCH  15  16
ATOM     16  S   UNL     1      37.491 -23.177 -15.184  0.00  0.00    +0.045 S 
ATOM     17  O   UNL     1      37.369 -22.455 -13.928  0.00  0.00    -0.157 OA
ATOM     18  O   UNL     1      36.494 -24.168 -15.557  0.00  0.00    -0.157 OA
BRANCH  16  19
ATOM     19  N   UNL     1      39.032 -23.914 -15.270  0.00  0.00    -0.185 NA
ATOM     20  H   UNL     1      39.666 -23.346 -14.708  0.00  0.00    +0.148 HD
BRANCH  19  21
ATOM     21  C   UNL     1      39.183 -25.308 -14.815  0.00  0.00    +0.068 C 
BRANCH  21  22
ATOM     22  C   UNL     1      39.105 -25.352 -13.296  0.00  0.00    -0.058 C 
BRANCH  22  23
ATOM     23  N   UNL     1      38.159 -26.374 -12.867  0.00  0.00    +0.385 N 
ATOM     24  C   UNL     1      37.128 -25.794 -12.004  0.00  0.00    -0.101 C 
ATOM     25  C   UNL     1      37.543 -27.026 -14.025  0.00  0.00    -0.101 C 
ATOM     26  H   UNL     1      38.671 -27.077 -12.333  0.00  0.00    -0.080 HD
ENDBRANCH  22  23
ENDBRANCH  21  22
ENDBRANCH  19  21
ENDBRANCH  16  19
ENDBRANCH  15  16
ENDBRANCH   9  15
ENDBRANCH   1  12
BRANCH   5  27
ATOM     27  O   UNL     1      35.070 -16.712 -20.415  0.00  0.00    -0.427 OA
BRANCH  27  35
ATOM     28  N   UNL     1      32.551 -12.219 -22.295  0.00  0.00    -0.316 N 
ATOM     29  C   UNL     1      32.898 -13.775 -20.733  0.00  0.00    +0.017 C 
ATOM     30  C   UNL     1      33.287 -13.345 -22.004  0.00  0.00    +0.048 C 
ATOM     31  C   UNL     1      31.712 -11.922 -21.255  0.00  0.00    +0.026 C 
ATOM     32  C   UNL     1      31.903 -12.867 -20.273  0.00  0.00    +0.012 C 
ATOM     33  C   UNL     1      33.505 -14.923 -20.189  0.00  0.00    +0.039 C 
ATOM     34  C   UNL     1      34.257 -14.011 -22.761  0.00  0.00    +0.018 C 
ATOM     35  C   UNL     1      34.478 -15.599 -20.935  0.00  0.00    +0.148 C 
ATOM     36  C   UNL     1      34.846 -15.149 -22.201  0.00  0.00    +0.039 C 
ATOM     37  C   UNL     1      30.808 -10.758 -21.308  0.00  0.00    +0.047 C 
ATOM     38  H   UNL     1      32.618 -11.702 -23.130  0.00  0.00    +0.152 HD
ENDBRANCH  27  35
ENDBRANCH   5  27
TORSDOF 9
ENDMDL
MODEL 8
REMARK VINA RESULT:     -11.0      5.644     13.940
REMARK  Name = 52920501
REMARK  9 active torsions:
REMARK  status: ('A' for Active; 'I' for Inactive)
REMARK    1  A    between atoms: N_1  and  C_12
REMARK    2  A    between atoms: C_5  and  O_27
REMARK    3  A    between atoms: C_9  and  C_15
REMARK    4  A    between atoms: C_15  and  S_16
REMARK    5  A    between atoms: S_16  and  N_19
REMARK    6  A    between atoms: N_19  and  C_21
REMARK    7  A    between atoms: C_21  and  C_22
REMARK    8  A    between atoms: C_22  and  N_23
REMARK    9  A    between atoms: O_27  and  C_35
REMARK                            x       y       z     vdW  Elec       q    Type
REMARK                         _______ _______ _______ _____ _____    ______ ____
ROOT
ATOM      1  N   UNL     1      32.871 -14.052 -20.499  0.00  0.00    -0.247 N 
ATOM      2  N   UNL     1      32.559 -12.078 -21.728  0.00  0.00    -0.300 NA
ATOM      3  N   UNL     1      31.703 -12.288 -19.485  0.00  0.00    -0.170 NA
ATOM      4  C   UNL     1      32.352 -12.741 -20.575  0.00  0.00    +0.152 C 
ATOM      5  C   UNL     1      32.049 -10.829 -21.765  0.00  0.00    +0.295 C 
ATOM      6  C   UNL     1      31.364 -10.249 -20.718  0.00  0.00    +0.094 C 
ATOM      7  C   UNL     1      31.220 -11.033 -19.592  0.00  0.00    +0.118 C 
ATOM      8  H   UNL     1      32.697 -14.499 -19.639  0.00  0.00    +0.165 HD
ENDROOT
BRANCH   1  12
ATOM      9  C   UNL     1      35.142 -16.643 -21.856  0.00  0.00    +0.004 C 
ATOM     10  C   UNL     1      34.431 -15.857 -20.950  0.00  0.00    +0.013 C 
ATOM     11  C   UNL     1      35.014 -16.415 -23.227  0.00  0.00    -0.002 C 
ATOM     12  C   UNL     1      33.590 -14.845 -21.413  0.00  0.00    +0.057 C 
ATOM     13  C   UNL     1      34.173 -15.403 -23.691  0.00  0.00    +0.001 C 
ATOM     14  C   UNL     1      33.462 -14.618 -22.783  0.00  0.00    +0.015 C 
BRANCH   9  15
ATOM     15  C   UNL     1      36.040 -17.725 -21.360  0.00  0.00    +0.195 C 
BRANCH  15  16
ATOM     16  S   UNL     1      35.106 -19.220 -21.302  0.00  0.00    +0.045 S 
ATOM     17  O   UNL     1      33.848 -18.951 -20.625  0.00  0.00    -0.157 OA
ATOM     18  O   UNL     1      35.110 -19.803 -22.634  0.00  0.00    -0.157 OA
BRANCH  16  19
ATOM     19  N   UNL     1      36.097 -20.187 -20.297  0.00  0.00    -0.185 NA
ATOM     20  H   UNL     1      36.348 -19.618 -19.488  0.00  0.00    +0.148 HD
BRANCH  19  21
ATOM     21  C   UNL     1      35.564 -21.460 -19.780  0.00  0.00    +0.068 C 
BRANCH  21  22
ATOM     22  C   UNL     1      36.096 -21.692 -18.373  0.00  0.00    -0.058 C 
BRANCH  22  23
ATOM     23  N   UNL     1      35.316 -22.726 -17.703  0.00  0.00    +0.385 N 
ATOM     24  C   UNL     1      35.568 -22.707 -16.260  0.00  0.00    -0.101 C 
ATOM     25  C   UNL     1      33.888 -22.551 -17.971  0.00  0.00    -0.101 C 
ATOM     26  H   UNL     1      35.607 -23.632 -18.071  0.00  0.00    -0.080 HD
ENDBRANCH  22  23
ENDBRANCH  21  22
ENDBRANCH  19  21
ENDBRANCH  16  19
ENDBRANCH  15  16
ENDBRANCH   9  15
ENDBRANCH   1  12
BRANCH   5  27
ATOM     27  O   UNL     1      32.237 -10.106 -22.931  0.00  0.00    -0.427 OA
BRANCH  27  35
ATOM     28  N   UNL     1      32.465  -4.643 -22.534  0.00  0.00    -0.316 N 
ATOM     29  C   UNL     1      31.349  -6.549 -22.847  0.00  0.00    +0.017 C 
ATOM     30  C   UNL     1      32.613  -6.009 -22.599  0.00  0.00    +0.048 C 
ATOM     31  C   UNL     1      31.155  -4.299 -22.732  0.00  0.00    +0.026 C 
ATOM     32  C   UNL     1      30.439  -5.459 -22.929  0.00  0.00    +0.012 C 
ATOM     33  C   UNL     1      31.219  -7.947 -22.961  0.00  0.00    +0.039 C 
ATOM     34  C   UNL     1      33.758  -6.802 -22.458  0.00  0.00    +0.018 C 
ATOM     35  C   UNL     1      32.355  -8.752 -22.822  0.00  0.00    +0.148 C 
ATOM     36  C   UNL     1      33.604  -8.187 -22.575  0.00  0.00    +0.039 C 
ATOM     37  C   UNL     1      30.720  -2.891 -22.714  0.00  0.00    +0.047 C 
ATOM     38  H   UNL     1      33.196  -4.003 -22.368  0.00  0.00    +0.152 HD
ENDBRANCH  27  35
ENDBRANCH   5  27
TORSDOF 9
ENDMDL
MODEL 9
REMARK VINA RESULT:     -10.9      2.557     10.544
REMARK  Name = 52920501
REMARK  9 active torsions:
REMARK  status: ('A' for Active; 'I' for Inactive)
REMARK    1  A    between atoms: N_1  and  C_12
REMARK    2  A    between atoms: C_5  and  O_27
REMARK    3  A    between atoms: C_9  and  C_15
REMARK    4  A    between atoms: C_15  and  S_16
REMARK    5  A    between atoms: S_16  and  N_19
REMARK    6  A    between atoms: N_19  and  C_21
REMARK    7  A    between atoms: C_21  and  C_22
REMARK    8  A    between atoms: C_22  and  N_23
REMARK    9  A    between atoms: O_27  and  C_35
REMARK                            x       y       z     vdW  Elec       q    Type
REMARK                         _______ _______ _______ _____ _____    ______ ____
ROOT
ATOM      1  N   UNL     1      34.373 -22.357 -17.787  0.00  0.00    -0.247 N 
ATOM      2  N   UNL     1      35.075 -20.724 -19.318  0.00  0.00    -0.300 NA
ATOM      3  N   UNL     1      32.902 -21.749 -19.511  0.00  0.00    -0.170 NA
ATOM      4  C   UNL     1      34.104 -21.571 -18.928  0.00  0.00    +0.152 C 
ATOM      5  C   UNL     1      34.784 -19.989 -20.412  0.00  0.00    +0.295 C 
ATOM      6  C   UNL     1      33.591 -20.076 -21.100  0.00  0.00    +0.094 C 
ATOM      7  C   UNL     1      32.678 -20.982 -20.599  0.00  0.00    +0.118 C 
ATOM      8  H   UNL     1      33.636 -22.961 -17.538  0.00  0.00    +0.165 HD
ENDROOT
BRANCH   1  12
ATOM      9  C   UNL     1      36.426 -22.892 -14.753  0.00  0.00    +0.004 C 
ATOM     10  C   UNL     1      35.320 -22.804 -15.597  0.00  0.00    +0.013 C 
ATOM     11  C   UNL     1      37.703 -22.620 -15.246  0.00  0.00    -0.002 C 
ATOM     12  C   UNL     1      35.489 -22.446 -16.934  0.00  0.00    +0.057 C 
ATOM     13  C   UNL     1      37.873 -22.262 -16.584  0.00  0.00    +0.001 C 
ATOM     14  C   UNL     1      36.765 -22.174 -17.427  0.00  0.00    +0.015 C 
BRANCH   9  15
ATOM     15  C   UNL     1      36.245 -23.276 -13.324  0.00  0.00    +0.195 C 
BRANCH  15  16
ATOM     16  S   UNL     1      34.966 -24.489 -13.246  0.00  0.00    +0.045 S 
ATOM     17  O   UNL     1      34.739 -24.831 -11.852  0.00  0.00    -0.157 OA
ATOM     18  O   UNL     1      33.862 -24.029 -14.075  0.00  0.00    -0.157 OA
BRANCH  16  19
ATOM     19  N   UNL     1      35.714 -25.805 -14.041  0.00  0.00    -0.185 NA
ATOM     20  H   UNL     1      35.908 -25.506 -14.997  0.00  0.00    +0.148 HD
BRANCH  19  21
ATOM     21  C   UNL     1      36.971 -26.349 -13.495  0.00  0.00    +0.068 C 
BRANCH  21  22
ATOM     22  C   UNL     1      38.058 -26.261 -14.556  0.00  0.00    -0.058 C 
BRANCH  22  23
ATOM     23  N   UNL     1      39.182 -25.473 -14.064  0.00  0.00    +0.385 N 
ATOM     24  C   UNL     1      39.016 -25.172 -12.641  0.00  0.00    -0.101 C 
ATOM     25  C   UNL     1      40.445 -26.178 -14.290  0.00  0.00    -0.101 C 
ATOM     26  H   UNL     1      39.204 -24.594 -14.581  0.00  0.00    -0.080 HD
ENDBRANCH  22  23
ENDBRANCH  21  22
ENDBRANCH  19  21
ENDBRANCH  16  19
ENDBRANCH  15  16
ENDBRANCH   9  15
ENDBRANCH   1  12
BRANCH   5  27
ATOM     27  O   UNL     1      35.752 -19.102 -20.852  0.00  0.00    -0.427 OA
BRANCH  27  35
ATOM     28  N   UNL     1      34.107 -14.819 -23.853  0.00  0.00    -0.316 N 
ATOM     29  C   UNL     1      34.839 -16.917 -23.651  0.00  0.00    +0.017 C 
ATOM     30  C   UNL     1      34.487 -15.771 -22.935  0.00  0.00    +0.048 C 
ATOM     31  C   UNL     1      34.205 -15.321 -25.122  0.00  0.00    +0.026 C 
ATOM     32  C   UNL     1      34.656 -16.619 -25.030  0.00  0.00    +0.012 C 
ATOM     33  C   UNL     1      35.271 -18.055 -22.942  0.00  0.00    +0.039 C 
ATOM     34  C   UNL     1      34.547 -15.706 -21.538  0.00  0.00    +0.018 C 
ATOM     35  C   UNL     1      35.335 -18.005 -21.545  0.00  0.00    +0.148 C 
ATOM     36  C   UNL     1      34.979 -16.848 -20.856  0.00  0.00    +0.039 C 
ATOM     37  C   UNL     1      33.857 -14.504 -26.299  0.00  0.00    +0.047 C 
ATOM     38  H   UNL     1      33.807 -13.908 -23.629  0.00  0.00    +0.152 HD
ENDBRANCH  27  35
ENDBRANCH   5  27
TORSDOF 9
ENDMDL
