MODEL 1
REMARK VINA RESULT:     -12.4      0.000      0.000
REMARK  Name = 15985904
REMARK  7 active torsions:
REMARK  status: ('A' for Active; 'I' for Inactive)
REMARK    1  A    between atoms: N_1  and  S_6
REMARK    2  A    between atoms: C_4  and  C_21
REMARK    3  A    between atoms: S_6  and  C_9
REMARK    4  A    between atoms: C_10  and  C_17
REMARK    5  A    between atoms: C_22  and  C_25
REMARK    6  A    between atoms: N_24  and  C_27
REMARK    7  A    between atoms: C_28  and  N_33
REMARK                            x       y       z     vdW  Elec       q    Type
REMARK                         _______ _______ _______ _____ _____    ______ ____
ROOT
ATOM      1  N   UNL     1      35.661 -19.854 -21.097  0.00  0.00    -0.167 N 
ATOM      2  C   UNL     1      36.623 -20.250 -20.263  0.00  0.00    +0.089 C 
ATOM      3  C   UNL     1      34.440 -20.275 -20.765  0.00  0.00    +0.089 C 
ATOM      4  C   UNL     1      35.986 -20.996 -19.295  0.00  0.00    +0.018 C 
ATOM      5  C   UNL     1      34.605 -21.012 -19.613  0.00  0.00    +0.019 C 
ENDROOT
BRANCH   1   6
ATOM      6  S   UNL     1      35.970 -18.880 -22.491  0.00  0.00    +0.080 S 
ATOM      7  O   UNL     1      35.321 -19.623 -23.556  0.00  0.00    -0.149 OA
ATOM      8  O   UNL     1      37.397 -18.617 -22.483  0.00  0.00    -0.149 OA
BRANCH   6   9
ATOM      9  C   UNL     1      35.135 -17.373 -22.205  0.00  0.00    +0.126 C 
ATOM     10  C   UNL     1      33.799 -14.967 -21.749  0.00  0.00    +0.003 C 
ATOM     11  C   UNL     1      34.915 -16.935 -20.900  0.00  0.00    +0.020 C 
ATOM     12  C   UNL     1      34.687 -16.608 -23.283  0.00  0.00    +0.020 C 
ATOM     13  C   UNL     1      34.247 -15.732 -20.672  0.00  0.00    +0.001 C 
ATOM     14  C   UNL     1      34.019 -15.406 -23.054  0.00  0.00    +0.001 C 
BRANCH  10  17
ATOM     15  N   UNL     1      31.982 -12.157 -20.514  0.00  0.00    -0.208 N 
ATOM     16  N   UNL     1      32.193 -11.657 -21.744  0.00  0.00    -0.176 NA
ATOM     17  C   UNL     1      33.112 -13.728 -21.514  0.00  0.00    +0.037 C 
ATOM     18  C   UNL     1      32.514 -13.398 -20.325  0.00  0.00    +0.086 C 
ATOM     19  C   UNL     1      32.885 -12.624 -22.349  0.00  0.00    +0.119 C 
ATOM     20  C   UNL     1      31.249 -11.382 -19.542  0.00  0.00    +0.140 C 
ENDBRANCH  10  17
ENDBRANCH   6   9
ENDBRANCH   1   6
BRANCH   4  21
ATOM     21  C   UNL     1      36.624 -21.616 -18.201  0.00  0.00    +0.006 C 
ATOM     22  C   UNL     1      36.054 -22.263 -17.145  0.00  0.00    +0.058 C 
BRANCH  22  25
ATOM     23  O   UNL     1      38.029 -22.486 -15.840  0.00  0.00    -0.270 OA
ATOM     24  N   UNL     1      36.186 -23.871 -15.396  0.00  0.00    -0.279 N 
ATOM     25  C   UNL     1      36.886 -22.871 -16.058  0.00  0.00    +0.250 C 
ATOM     26  H   UNL     1      35.269 -24.045 -15.713  0.00  0.00    +0.155 HD
BRANCH  24  27
ATOM     27  C   UNL     1      36.641 -24.668 -14.318  0.00  0.00    +0.064 C 
ATOM     28  C   UNL     1      36.754 -26.042 -14.462  0.00  0.00    +0.055 C 
ATOM     29  C   UNL     1      36.967 -24.039 -13.127  0.00  0.00    +0.016 C 
ATOM     30  C   UNL     1      37.205 -26.806 -13.386  0.00  0.00    +0.015 C 
ATOM     31  C   UNL     1      37.417 -24.804 -12.051  0.00  0.00    +0.001 C 
ATOM     32  C   UNL     1      37.536 -26.188 -12.180  0.00  0.00    +0.001 C 
BRANCH  28  33
ATOM     33  N   UNL     1      36.426 -26.690 -15.673  0.00  0.00    -0.356 N 
ATOM     34  H   UNL     1      36.112 -27.623 -15.662  0.00  0.00    +0.142 HD
ATOM     35  H   UNL     1      36.510 -26.209 -16.528  0.00  0.00    +0.142 HD
ENDBRANCH  28  33
ENDBRANCH  24  27
ENDBRANCH  22  25
ENDBRANCH   4  21
TORSDOF 7
ENDMDL
MODEL 2
REMARK VINA RESULT:     -12.3      2.909     12.193
REMARK  Name = 15985904
REMARK  7 active torsions:
REMARK  status: ('A' for Active; 'I' for Inactive)
REMARK    1  A    between atoms: N_1  and  S_6
REMARK    2  A    between atoms: C_4  and  C_21
REMARK    3  A    between atoms: S_6  and  C_9
REMARK    4  A    between atoms: C_10  and  C_17
REMARK    5  A    between atoms: C_22  and  C_25
REMARK    6  A    between atoms: N_24  and  C_27
REMARK    7  A    between atoms: C_28  and  N_33
REMARK                            x       y       z     vdW  Elec       q    Type
REMARK                         _______ _______ _______ _____ _____    ______ ____
ROOT
ATOM      1  N   UNL     1      35.080 -17.380 -22.084  0.00  0.00    -0.167 N 
ATOM      2  C   UNL     1      35.043 -16.385 -22.971  0.00  0.00    +0.089 C 
ATOM      3  C   UNL     1      34.776 -17.015 -20.838  0.00  0.00    +0.089 C 
ATOM      4  C   UNL     1      34.684 -15.266 -22.253  0.00  0.00    +0.018 C 
ATOM      5  C   UNL     1      34.516 -15.664 -20.903  0.00  0.00    +0.019 C 
ENDROOT
BRANCH   1   6
ATOM      6  S   UNL     1      35.486 -19.005 -22.513  0.00  0.00    +0.080 S 
ATOM      7  O   UNL     1      36.931 -18.953 -22.644  0.00  0.00    -0.149 OA
ATOM      8  O   UNL     1      34.617 -19.352 -23.622  0.00  0.00    -0.149 OA
BRANCH   6   9
ATOM      9  C   UNL     1      35.034 -19.981 -21.138  0.00  0.00    +0.126 C 
ATOM     10  C   UNL     1      34.312 -21.542 -18.941  0.00  0.00    +0.003 C 
ATOM     11  C   UNL     1      36.019 -20.597 -20.366  0.00  0.00    +0.020 C 
ATOM     12  C   UNL     1      33.688 -20.145 -20.810  0.00  0.00    +0.020 C 
ATOM     13  C   UNL     1      35.658 -21.378 -19.269  0.00  0.00    +0.001 C 
ATOM     14  C   UNL     1      33.327 -20.925 -19.713  0.00  0.00    +0.001 C 
BRANCH  10  17
ATOM     15  N   UNL     1      34.087 -23.543 -15.997  0.00  0.00    -0.208 N 
ATOM     16  N   UNL     1      32.768 -23.529 -16.257  0.00  0.00    -0.176 NA
ATOM     17  C   UNL     1      33.941 -22.345 -17.811  0.00  0.00    +0.037 C 
ATOM     18  C   UNL     1      34.835 -22.847 -16.900  0.00  0.00    +0.086 C 
ATOM     19  C   UNL     1      32.687 -22.794 -17.368  0.00  0.00    +0.119 C 
ATOM     20  C   UNL     1      34.583 -24.256 -14.844  0.00  0.00    +0.140 C 
ENDBRANCH  10  17
ENDBRANCH   6   9
ENDBRANCH   1   6
BRANCH   4  21
ATOM     21  C   UNL     1      34.523 -13.973 -22.794  0.00  0.00    +0.006 C 
ATOM     22  C   UNL     1      34.112 -13.626 -24.047  0.00  0.00    +0.058 C 
BRANCH  22  25
ATOM     23  O   UNL     1      33.772 -11.882 -25.627  0.00  0.00    -0.270 OA
ATOM     24  N   UNL     1      34.168 -11.344 -23.376  0.00  0.00    -0.279 N 
ATOM     25  C   UNL     1      33.994 -12.192 -24.462  0.00  0.00    +0.250 C 
ATOM     26  H   UNL     1      34.340 -11.777 -22.508  0.00  0.00    +0.155 HD
BRANCH  24  27
ATOM     27  C   UNL     1      34.126  -9.929 -23.377  0.00  0.00    +0.064 C 
ATOM     28  C   UNL     1      33.043  -9.260 -22.830  0.00  0.00    +0.055 C 
ATOM     29  C   UNL     1      35.192  -9.240 -23.934  0.00  0.00    +0.016 C 
ATOM     30  C   UNL     1      33.025  -7.865 -22.842  0.00  0.00    +0.015 C 
ATOM     31  C   UNL     1      35.174  -7.846 -23.946  0.00  0.00    +0.001 C 
ATOM     32  C   UNL     1      34.090  -7.158 -23.400  0.00  0.00    +0.001 C 
BRANCH  28  33
ATOM     33  N   UNL     1      31.954  -9.954 -22.258  0.00  0.00    -0.356 N 
ATOM     34  H   UNL     1      31.048  -9.573 -22.306  0.00  0.00    +0.142 HD
ATOM     35  H   UNL     1      32.101 -10.819 -21.813  0.00  0.00    +0.142 HD
ENDBRANCH  28  33
ENDBRANCH  24  27
ENDBRANCH  22  25
ENDBRANCH   4  21
TORSDOF 7
ENDMDL
MODEL 3
REMARK VINA RESULT:     -11.4      2.703     12.160
REMARK  Name = 15985904
REMARK  7 active torsions:
REMARK  status: ('A' for Active; 'I' for Inactive)
REMARK    1  A    between atoms: N_1  and  S_6
REMARK    2  A    between atoms: C_4  and  C_21
REMARK    3  A    between atoms: S_6  and  C_9
REMARK    4  A    between atoms: C_10  and  C_17
REMARK    5  A    between atoms: C_22  and  C_25
REMARK    6  A    between atoms: N_24  and  C_27
REMARK    7  A    between atoms: C_28  and  N_33
REMARK                            x       y       z     vdW  Elec       q    Type
REMARK                         _______ _______ _______ _____ _____    ______ ____
ROOT
ATOM      1  N   UNL     1      35.157 -17.202 -21.826  0.00  0.00    -0.167 N 
ATOM      2  C   UNL     1      34.982 -16.192 -22.678  0.00  0.00    +0.089 C 
ATOM      3  C   UNL     1      34.904 -16.896 -20.553  0.00  0.00    +0.089 C 
ATOM      4  C   UNL     1      34.578 -15.125 -21.905  0.00  0.00    +0.018 C 
ATOM      5  C   UNL     1      34.529 -15.571 -20.561  0.00  0.00    +0.019 C 
ENDROOT
BRANCH   1   6
ATOM      6  S   UNL     1      35.669 -18.775 -22.329  0.00  0.00    +0.080 S 
ATOM      7  O   UNL     1      37.110 -18.630 -22.429  0.00  0.00    -0.149 OA
ATOM      8  O   UNL     1      34.840 -19.116 -23.470  0.00  0.00    -0.149 OA
BRANCH   6   9
ATOM      9  C   UNL     1      35.255 -19.846 -21.014  0.00  0.00    +0.126 C 
ATOM     10  C   UNL     1      34.595 -21.557 -18.912  0.00  0.00    +0.003 C 
ATOM     11  C   UNL     1      33.918 -20.135 -20.744  0.00  0.00    +0.020 C 
ATOM     12  C   UNL     1      36.262 -20.414 -20.233  0.00  0.00    +0.020 C 
ATOM     13  C   UNL     1      33.587 -20.990 -19.693  0.00  0.00    +0.001 C 
ATOM     14  C   UNL     1      35.932 -21.268 -19.182  0.00  0.00    +0.001 C 
BRANCH  10  17
ATOM     15  N   UNL     1      34.414 -23.618 -16.006  0.00  0.00    -0.208 N 
ATOM     16  N   UNL     1      33.156 -23.851 -16.420  0.00  0.00    -0.176 NA
ATOM     17  C   UNL     1      34.254 -22.437 -17.829  0.00  0.00    +0.037 C 
ATOM     18  C   UNL     1      35.115 -22.776 -16.817  0.00  0.00    +0.086 C 
ATOM     19  C   UNL     1      33.066 -23.124 -17.536  0.00  0.00    +0.119 C 
ATOM     20  C   UNL     1      34.898 -24.244 -14.798  0.00  0.00    +0.140 C 
ENDBRANCH  10  17
ENDBRANCH   6   9
ENDBRANCH   1   6
BRANCH   4  21
ATOM     21  C   UNL     1      34.276 -13.838 -22.396  0.00  0.00    +0.006 C 
ATOM     22  C   UNL     1      34.395 -13.368 -23.670  0.00  0.00    +0.058 C 
BRANCH  22  25
ATOM     23  O   UNL     1      34.167 -11.530 -25.162  0.00  0.00    -0.270 OA
ATOM     24  N   UNL     1      33.532 -11.284 -22.916  0.00  0.00    -0.279 N 
ATOM     25  C   UNL     1      34.025 -11.961 -24.023  0.00  0.00    +0.250 C 
ATOM     26  H   UNL     1      33.490 -11.795 -22.074  0.00  0.00    +0.155 HD
BRANCH  24  27
ATOM     27  C   UNL     1      33.083  -9.942 -22.859  0.00  0.00    +0.064 C 
ATOM     28  C   UNL     1      31.908  -9.624 -22.196  0.00  0.00    +0.055 C 
ATOM     29  C   UNL     1      33.847  -8.966 -23.480  0.00  0.00    +0.016 C 
ATOM     30  C   UNL     1      31.486  -8.295 -22.154  0.00  0.00    +0.015 C 
ATOM     31  C   UNL     1      33.424  -7.638 -23.438  0.00  0.00    +0.001 C 
ATOM     32  C   UNL     1      32.244  -7.302 -22.775  0.00  0.00    +0.001 C 
BRANCH  28  33
ATOM     33  N   UNL     1      31.125 -10.612 -21.559  0.00  0.00    -0.356 N 
ATOM     34  H   UNL     1      31.161 -11.545 -21.873  0.00  0.00    +0.142 HD
ATOM     35  H   UNL     1      30.545 -10.369 -20.803  0.00  0.00    +0.142 HD
ENDBRANCH  28  33
ENDBRANCH  24  27
ENDBRANCH  22  25
ENDBRANCH   4  21
TORSDOF 7
ENDMDL
MODEL 4
REMARK VINA RESULT:     -11.0      2.687      3.075
REMARK  Name = 15985904
REMARK  7 active torsions:
REMARK  status: ('A' for Active; 'I' for Inactive)
REMARK    1  A    between atoms: N_1  and  S_6
REMARK    2  A    between atoms: C_4  and  C_21
REMARK    3  A    between atoms: S_6  and  C_9
REMARK    4  A    between atoms: C_10  and  C_17
REMARK    5  A    between atoms: C_22  and  C_25
REMARK    6  A    between atoms: N_24  and  C_27
REMARK    7  A    between atoms: C_28  and  N_33
REMARK                            x       y       z     vdW  Elec       q    Type
REMARK                         _______ _______ _______ _____ _____    ______ ____
ROOT
ATOM      1  N   UNL     1      35.935 -19.695 -21.197  0.00  0.00    -0.167 N 
ATOM      2  C   UNL     1      34.842 -20.376 -20.854  0.00  0.00    +0.089 C 
ATOM      3  C   UNL     1      36.947 -19.814 -20.337  0.00  0.00    +0.089 C 
ATOM      4  C   UNL     1      35.155 -21.001 -19.667  0.00  0.00    +0.018 C 
ATOM      5  C   UNL     1      36.487 -20.645 -19.340  0.00  0.00    +0.019 C 
ENDROOT
BRANCH   1   6
ATOM      6  S   UNL     1      36.032 -18.738 -22.633  0.00  0.00    +0.080 S 
ATOM      7  O   UNL     1      35.299 -19.533 -23.602  0.00  0.00    -0.149 OA
ATOM      8  O   UNL     1      37.436 -18.411 -22.798  0.00  0.00    -0.149 OA
BRANCH   6   9
ATOM      9  C   UNL     1      35.166 -17.264 -22.275  0.00  0.00    +0.126 C 
ATOM     10  C   UNL     1      33.781 -14.911 -21.704  0.00  0.00    +0.003 C 
ATOM     11  C   UNL     1      34.918 -16.905 -20.951  0.00  0.00    +0.020 C 
ATOM     12  C   UNL     1      34.721 -16.446 -23.314  0.00  0.00    +0.020 C 
ATOM     13  C   UNL     1      34.226 -15.729 -20.665  0.00  0.00    +0.001 C 
ATOM     14  C   UNL     1      34.029 -15.270 -23.028  0.00  0.00    +0.001 C 
BRANCH  10  17
ATOM     15  N   UNL     1      31.984 -12.163 -20.311  0.00  0.00    -0.208 N 
ATOM     16  N   UNL     1      32.037 -11.674 -21.562  0.00  0.00    -0.176 NA
ATOM     17  C   UNL     1      33.068 -13.700 -21.409  0.00  0.00    +0.037 C 
ATOM     18  C   UNL     1      32.588 -13.377 -20.166  0.00  0.00    +0.086 C 
ATOM     19  C   UNL     1      32.703 -12.621 -22.228  0.00  0.00    +0.119 C 
ATOM     20  C   UNL     1      31.326 -11.405 -19.273  0.00  0.00    +0.140 C 
ENDBRANCH  10  17
ENDBRANCH   6   9
ENDBRANCH   1   6
BRANCH   4  21
ATOM     21  C   UNL     1      34.284 -21.836 -18.936  0.00  0.00    +0.006 C 
ATOM     22  C   UNL     1      34.517 -22.473 -17.753  0.00  0.00    +0.058 C 
BRANCH  22  25
ATOM     23  O   UNL     1      32.875 -24.193 -17.741  0.00  0.00    -0.270 OA
ATOM     24  N   UNL     1      33.312 -22.997 -15.770  0.00  0.00    -0.279 N 
ATOM     25  C   UNL     1      33.472 -23.330 -17.108  0.00  0.00    +0.250 C 
ATOM     26  H   UNL     1      33.883 -22.270 -15.429  0.00  0.00    +0.155 HD
BRANCH  24  27
ATOM     27  C   UNL     1      32.422 -23.585 -14.838  0.00  0.00    +0.064 C 
ATOM     28  C   UNL     1      32.871 -24.554 -13.955  0.00  0.00    +0.055 C 
ATOM     29  C   UNL     1      31.101 -23.165 -14.837  0.00  0.00    +0.016 C 
ATOM     30  C   UNL     1      31.975 -25.118 -13.047  0.00  0.00    +0.015 C 
ATOM     31  C   UNL     1      30.205 -23.729 -13.929  0.00  0.00    +0.001 C 
ATOM     32  C   UNL     1      30.642 -24.706 -13.035  0.00  0.00    +0.001 C 
BRANCH  28  33
ATOM     33  N   UNL     1      34.215 -24.985 -13.949  0.00  0.00    -0.356 N 
ATOM     34  H   UNL     1      34.662 -25.214 -14.796  0.00  0.00    +0.142 HD
ATOM     35  H   UNL     1      34.706 -25.057 -13.099  0.00  0.00    +0.142 HD
ENDBRANCH  28  33
ENDBRANCH  24  27
ENDBRANCH  22  25
ENDBRANCH   4  21
TORSDOF 7
ENDMDL
MODEL 5
REMARK VINA RESULT:     -10.8      4.495      9.987
REMARK  Name = 15985904
REMARK  7 active torsions:
REMARK  status: ('A' for Active; 'I' for Inactive)
REMARK    1  A    between atoms: N_1  and  S_6
REMARK    2  A    between atoms: C_4  and  C_21
REMARK    3  A    between atoms: S_6  and  C_9
REMARK    4  A    between atoms: C_10  and  C_17
REMARK    5  A    between atoms: C_22  and  C_25
REMARK    6  A    between atoms: N_24  and  C_27
REMARK    7  A    between atoms: C_28  and  N_33
REMARK                            x       y       z     vdW  Elec       q    Type
REMARK                         _______ _______ _______ _____ _____    ______ ____
ROOT
ATOM      1  N   UNL     1      36.301 -23.416 -15.342  0.00  0.00    -0.167 N 
ATOM      2  C   UNL     1      35.951 -22.807 -16.475  0.00  0.00    +0.089 C 
ATOM      3  C   UNL     1      37.480 -23.030 -14.853  0.00  0.00    +0.089 C 
ATOM      4  C   UNL     1      36.985 -21.943 -16.762  0.00  0.00    +0.018 C 
ATOM      5  C   UNL     1      37.953 -22.085 -15.736  0.00  0.00    +0.019 C 
ENDROOT
BRANCH   1   6
ATOM      6  S   UNL     1      35.311 -24.606 -14.572  0.00  0.00    +0.080 S 
ATOM      7  O   UNL     1      35.661 -24.460 -13.170  0.00  0.00    -0.149 OA
ATOM      8  O   UNL     1      35.530 -25.839 -15.305  0.00  0.00    -0.149 OA
BRANCH   6   9
ATOM      9  C   UNL     1      33.664 -24.094 -14.844  0.00  0.00    +0.126 C 
ATOM     10  C   UNL     1      31.032 -23.276 -15.279  0.00  0.00    +0.003 C 
ATOM     11  C   UNL     1      32.727 -24.183 -13.815  0.00  0.00    +0.020 C 
ATOM     12  C   UNL     1      33.285 -23.595 -16.090  0.00  0.00    +0.020 C 
ATOM     13  C   UNL     1      31.411 -23.775 -14.032  0.00  0.00    +0.001 C 
ATOM     14  C   UNL     1      31.970 -23.187 -16.308  0.00  0.00    +0.001 C 
BRANCH  10  17
ATOM     15  N   UNL     1      27.797 -22.413 -16.510  0.00  0.00    -0.208 N 
ATOM     16  N   UNL     1      27.555 -22.075 -15.231  0.00  0.00    -0.176 NA
ATOM     17  C   UNL     1      29.678 -22.856 -15.503  0.00  0.00    +0.037 C 
ATOM     18  C   UNL     1      29.058 -22.888 -16.725  0.00  0.00    +0.086 C 
ATOM     19  C   UNL     1      28.710 -22.350 -14.622  0.00  0.00    +0.119 C 
ATOM     20  C   UNL     1      26.760 -22.256 -17.501  0.00  0.00    +0.140 C 
ENDBRANCH  10  17
ENDBRANCH   6   9
ENDBRANCH   1   6
BRANCH   4  21
ATOM     21  C   UNL     1      37.038 -21.087 -17.882  0.00  0.00    +0.006 C 
ATOM     22  C   UNL     1      36.327 -21.167 -19.042  0.00  0.00    +0.058 C 
BRANCH  22  25
ATOM     23  O   UNL     1      37.573 -19.584 -20.305  0.00  0.00    -0.270 OA
ATOM     24  N   UNL     1      35.340 -20.023 -20.880  0.00  0.00    -0.279 N 
ATOM     25  C   UNL     1      36.507 -20.165 -20.141  0.00  0.00    +0.250 C 
ATOM     26  H   UNL     1      34.575 -20.577 -20.600  0.00  0.00    +0.155 HD
BRANCH  24  27
ATOM     27  C   UNL     1      35.126 -19.172 -21.992  0.00  0.00    +0.064 C 
ATOM     28  C   UNL     1      35.151 -17.796 -21.835  0.00  0.00    +0.055 C 
ATOM     29  C   UNL     1      34.895 -19.753 -23.229  0.00  0.00    +0.016 C 
ATOM     30  C   UNL     1      34.937 -16.978 -22.945  0.00  0.00    +0.015 C 
ATOM     31  C   UNL     1      34.682 -18.935 -24.338  0.00  0.00    +0.001 C 
ATOM     32  C   UNL     1      34.702 -17.548 -24.197  0.00  0.00    +0.001 C 
BRANCH  28  33
ATOM     33  N   UNL     1      35.388 -17.197 -20.579  0.00  0.00    -0.356 N 
ATOM     34  H   UNL     1      34.711 -17.263 -19.867  0.00  0.00    +0.142 HD
ATOM     35  H   UNL     1      36.229 -16.714 -20.414  0.00  0.00    +0.142 HD
ENDBRANCH  28  33
ENDBRANCH  24  27
ENDBRANCH  22  25
ENDBRANCH   4  21
TORSDOF 7
ENDMDL
MODEL 6
REMARK VINA RESULT:     -10.8      5.103      8.915
REMARK  Name = 15985904
REMARK  7 active torsions:
REMARK  status: ('A' for Active; 'I' for Inactive)
REMARK    1  A    between atoms: N_1  and  S_6
REMARK    2  A    between atoms: C_4  and  C_21
REMARK    3  A    between atoms: S_6  and  C_9
REMARK    4  A    between atoms: C_10  and  C_17
REMARK    5  A    between atoms: C_22  and  C_25
REMARK    6  A    between atoms: N_24  and  C_27
REMARK    7  A    between atoms: C_28  and  N_33
REMARK                            x       y       z     vdW  Elec       q    Type
REMARK                         _______ _______ _______ _____ _____    ______ ____
ROOT
ATOM      1  N   UNL     1      32.482 -12.006 -21.373  0.00  0.00    -0.167 N 
ATOM      2  C   UNL     1      32.647 -13.271 -20.985  0.00  0.00    +0.089 C 
ATOM      3  C   UNL     1      33.073 -11.707 -22.530  0.00  0.00    +0.089 C 
ATOM      4  C   UNL     1      33.411 -13.861 -21.967  0.00  0.00    +0.018 C 
ATOM      5  C   UNL     1      33.681 -12.871 -22.945  0.00  0.00    +0.019 C 
ENDROOT
BRANCH   1   6
ATOM      6  S   UNL     1      31.580 -10.853 -20.454  0.00  0.00    +0.080 S 
ATOM      7  O   UNL     1      32.294 -10.816 -19.190  0.00  0.00    -0.149 OA
ATOM      8  O   UNL     1      30.192 -11.265 -20.552  0.00  0.00    -0.149 OA
BRANCH   6   9
ATOM      9  C   UNL     1      31.760  -9.335 -21.298  0.00  0.00    +0.126 C 
ATOM     10  C   UNL     1      32.046  -6.910 -22.647  0.00  0.00    +0.003 C 
ATOM     11  C   UNL     1      32.578  -8.337 -20.771  0.00  0.00    +0.020 C 
ATOM     12  C   UNL     1      31.086  -9.122 -22.501  0.00  0.00    +0.020 C 
ATOM     13  C   UNL     1      32.721  -7.124 -21.445  0.00  0.00    +0.001 C 
ATOM     14  C   UNL     1      31.229  -7.909 -23.175  0.00  0.00    +0.001 C 
BRANCH  10  17
ATOM     15  N   UNL     1      32.022  -3.547 -23.837  0.00  0.00    -0.208 N 
ATOM     16  N   UNL     1      32.762  -4.045 -24.843  0.00  0.00    -0.176 NA
ATOM     17  C   UNL     1      32.194  -5.662 -23.341  0.00  0.00    +0.037 C 
ATOM     18  C   UNL     1      31.656  -4.477 -22.909  0.00  0.00    +0.086 C 
ATOM     19  C   UNL     1      32.863  -5.340 -24.531  0.00  0.00    +0.119 C 
ATOM     20  C   UNL     1      31.692  -2.142 -23.818  0.00  0.00    +0.140 C 
ENDBRANCH  10  17
ENDBRANCH   6   9
ENDBRANCH   1   6
BRANCH   4  21
ATOM     21  C   UNL     1      33.830 -15.208 -21.969  0.00  0.00    +0.006 C 
ATOM     22  C   UNL     1      34.632 -15.844 -22.870  0.00  0.00    +0.058 C 
BRANCH  22  25
ATOM     23  O   UNL     1      35.258 -17.985 -23.693  0.00  0.00    -0.270 OA
ATOM     24  N   UNL     1      34.939 -17.678 -21.388  0.00  0.00    -0.279 N 
ATOM     25  C   UNL     1      34.981 -17.292 -22.720  0.00  0.00    +0.250 C 
ATOM     26  H   UNL     1      34.695 -16.979 -20.738  0.00  0.00    +0.155 HD
BRANCH  24  27
ATOM     27  C   UNL     1      35.208 -18.964 -20.857  0.00  0.00    +0.064 C 
ATOM     28  C   UNL     1      36.514 -19.381 -20.660  0.00  0.00    +0.055 C 
ATOM     29  C   UNL     1      34.135 -19.782 -20.543  0.00  0.00    +0.016 C 
ATOM     30  C   UNL     1      36.754 -20.651 -20.136  0.00  0.00    +0.015 C 
ATOM     31  C   UNL     1      34.374 -21.052 -20.019  0.00  0.00    +0.001 C 
ATOM     32  C   UNL     1      35.684 -21.487 -19.816  0.00  0.00    +0.001 C 
BRANCH  28  33
ATOM     33  N   UNL     1      37.613 -18.552 -20.975  0.00  0.00    -0.356 N 
ATOM     34  H   UNL     1      37.577 -17.967 -21.767  0.00  0.00    +0.142 HD
ATOM     35  H   UNL     1      38.415 -18.558 -20.405  0.00  0.00    +0.142 HD
ENDBRANCH  28  33
ENDBRANCH  24  27
ENDBRANCH  22  25
ENDBRANCH   4  21
TORSDOF 7
ENDMDL
MODEL 7
REMARK VINA RESULT:     -10.7      2.824     11.509
REMARK  Name = 15985904
REMARK  7 active torsions:
REMARK  status: ('A' for Active; 'I' for Inactive)
REMARK    1  A    between atoms: N_1  and  S_6
REMARK    2  A    between atoms: C_4  and  C_21
REMARK    3  A    between atoms: S_6  and  C_9
REMARK    4  A    between atoms: C_10  and  C_17
REMARK    5  A    between atoms: C_22  and  C_25
REMARK    6  A    between atoms: N_24  and  C_27
REMARK    7  A    between atoms: C_28  and  N_33
REMARK                            x       y       z     vdW  Elec       q    Type
REMARK                         _______ _______ _______ _____ _____    ______ ____
ROOT
ATOM      1  N   UNL     1      34.603 -21.399 -19.552  0.00  0.00    -0.167 N 
ATOM      2  C   UNL     1      34.057 -20.503 -20.374  0.00  0.00    +0.089 C 
ATOM      3  C   UNL     1      35.929 -21.307 -19.444  0.00  0.00    +0.089 C 
ATOM      4  C   UNL     1      35.109 -19.753 -20.852  0.00  0.00    +0.018 C 
ATOM      5  C   UNL     1      36.293 -20.262 -20.263  0.00  0.00    +0.019 C 
ENDROOT
BRANCH   1   6
ATOM      6  S   UNL     1      33.672 -22.580 -18.700  0.00  0.00    +0.080 S 
ATOM      7  O   UNL     1      33.814 -23.764 -19.528  0.00  0.00    -0.149 OA
ATOM      8  O   UNL     1      32.386 -21.960 -18.442  0.00  0.00    -0.149 OA
BRANCH   6   9
ATOM      9  C   UNL     1      34.486 -22.805 -17.171  0.00  0.00    +0.126 C 
ATOM     10  C   UNL     1      35.785 -23.164 -14.729  0.00  0.00    +0.003 C 
ATOM     11  C   UNL     1      33.812 -23.398 -16.104  0.00  0.00    +0.020 C 
ATOM     12  C   UNL     1      35.809 -22.392 -17.018  0.00  0.00    +0.020 C 
ATOM     13  C   UNL     1      34.462 -23.578 -14.883  0.00  0.00    +0.001 C 
ATOM     14  C   UNL     1      36.459 -22.571 -15.797  0.00  0.00    +0.001 C 
BRANCH  10  17
ATOM     15  N   UNL     1      36.787 -23.654 -11.340  0.00  0.00    -0.208 N 
ATOM     16  N   UNL     1      38.031 -23.596 -11.846  0.00  0.00    -0.176 NA
ATOM     17  C   UNL     1      36.454 -23.349 -13.472  0.00  0.00    +0.037 C 
ATOM     18  C   UNL     1      35.804 -23.512 -12.275  0.00  0.00    +0.086 C 
ATOM     19  C   UNL     1      37.819 -23.409 -13.151  0.00  0.00    +0.119 C 
ATOM     20  C   UNL     1      36.599 -23.854  -9.923  0.00  0.00    +0.140 C 
ENDBRANCH  10  17
ENDBRANCH   6   9
ENDBRANCH   1   6
BRANCH   4  21
ATOM     21  C   UNL     1      34.992 -18.679 -21.760  0.00  0.00    +0.006 C 
ATOM     22  C   UNL     1      34.898 -18.728 -23.119  0.00  0.00    +0.058 C 
BRANCH  22  25
ATOM     23  O   UNL     1      35.019 -17.482 -25.141  0.00  0.00    -0.270 OA
ATOM     24  N   UNL     1      34.377 -16.407 -23.156  0.00  0.00    -0.279 N 
ATOM     25  C   UNL     1      34.778 -17.481 -23.939  0.00  0.00    +0.250 C 
ATOM     26  H   UNL     1      34.229 -16.595 -22.200  0.00  0.00    +0.155 HD
BRANCH  24  27
ATOM     27  C   UNL     1      34.158 -15.072 -23.575  0.00  0.00    +0.064 C 
ATOM     28  C   UNL     1      34.322 -14.022 -22.686  0.00  0.00    +0.055 C 
ATOM     29  C   UNL     1      33.780 -14.850 -24.890  0.00  0.00    +0.016 C 
ATOM     30  C   UNL     1      34.100 -12.716 -23.122  0.00  0.00    +0.015 C 
ATOM     31  C   UNL     1      33.558 -13.544 -25.326  0.00  0.00    +0.001 C 
ATOM     32  C   UNL     1      33.718 -12.477 -24.442  0.00  0.00    +0.001 C 
BRANCH  28  33
ATOM     33  N   UNL     1      34.710 -14.240 -21.345  0.00  0.00    -0.356 N 
ATOM     34  H   UNL     1      34.894 -13.473 -20.756  0.00  0.00    +0.142 HD
ATOM     35  H   UNL     1      34.795 -15.158 -21.000  0.00  0.00    +0.142 HD
ENDBRANCH  28  33
ENDBRANCH  24  27
ENDBRANCH  22  25
ENDBRANCH   4  21
TORSDOF 7
ENDMDL
MODEL 8
REMARK VINA RESULT:     -10.3      4.369      9.963
REMARK  Name = 15985904
REMARK  7 active torsions:
REMARK  status: ('A' for Active; 'I' for Inactive)
REMARK    1  A    between atoms: N_1  and  S_6
REMARK    2  A    between atoms: C_4  and  C_21
REMARK    3  A    between atoms: S_6  and  C_9
REMARK    4  A    between atoms: C_10  and  C_17
REMARK    5  A    between atoms: C_22  and  C_25
REMARK    6  A    between atoms: N_24  and  C_27
REMARK    7  A    between atoms: C_28  and  N_33
REMARK                            x       y       z     vdW  Elec       q    Type
REMARK                         _______ _______ _______ _____ _____    ______ ____
ROOT
ATOM      1  N   UNL     1      36.403 -23.250 -15.512  0.00  0.00    -0.167 N 
ATOM      2  C   UNL     1      36.076 -22.691 -16.677  0.00  0.00    +0.089 C 
ATOM      3  C   UNL     1      37.521 -22.770 -14.968  0.00  0.00    +0.089 C 
ATOM      4  C   UNL     1      37.060 -21.761 -16.928  0.00  0.00    +0.018 C 
ATOM      5  C   UNL     1      37.975 -21.811 -15.846  0.00  0.00    +0.019 C 
ENDROOT
BRANCH   1   6
ATOM      6  S   UNL     1      35.458 -24.493 -14.769  0.00  0.00    +0.080 S 
ATOM      7  O   UNL     1      35.829 -24.388 -13.369  0.00  0.00    -0.149 OA
ATOM      8  O   UNL     1      35.695 -25.692 -15.550  0.00  0.00    -0.149 OA
BRANCH   6   9
ATOM      9  C   UNL     1      33.793 -24.015 -14.994  0.00  0.00    +0.126 C 
ATOM     10  C   UNL     1      31.135 -23.250 -15.354  0.00  0.00    +0.003 C 
ATOM     11  C   UNL     1      33.348 -23.611 -16.253  0.00  0.00    +0.020 C 
ATOM     12  C   UNL     1      32.909 -24.035 -13.916  0.00  0.00    +0.020 C 
ATOM     13  C   UNL     1      32.019 -23.229 -16.433  0.00  0.00    +0.001 C 
ATOM     14  C   UNL     1      31.580 -23.653 -14.095  0.00  0.00    +0.001 C 
BRANCH  10  17
ATOM     15  N   UNL     1      27.856 -22.433 -16.496  0.00  0.00    -0.208 N 
ATOM     16  N   UNL     1      27.633 -22.129 -15.206  0.00  0.00    -0.176 NA
ATOM     17  C   UNL     1      29.767 -22.856 -15.540  0.00  0.00    +0.037 C 
ATOM     18  C   UNL     1      29.121 -22.874 -16.749  0.00  0.00    +0.086 C 
ATOM     19  C   UNL     1      28.807 -22.391 -14.627  0.00  0.00    +0.119 C 
ATOM     20  C   UNL     1      26.794 -22.278 -17.462  0.00  0.00    +0.140 C 
ENDBRANCH  10  17
ENDBRANCH   6   9
ENDBRANCH   1   6
BRANCH   4  21
ATOM     21  C   UNL     1      37.116 -20.927 -18.064  0.00  0.00    +0.006 C 
ATOM     22  C   UNL     1      36.299 -20.928 -19.155  0.00  0.00    +0.058 C 
BRANCH  22  25
ATOM     23  O   UNL     1      37.579 -19.870 -20.857  0.00  0.00    -0.270 OA
ATOM     24  N   UNL     1      35.337 -19.251 -20.542  0.00  0.00    -0.279 N 
ATOM     25  C   UNL     1      36.500 -19.964 -20.283  0.00  0.00    +0.250 C 
ATOM     26  H   UNL     1      34.560 -19.462 -19.974  0.00  0.00    +0.155 HD
BRANCH  24  27
ATOM     27  C   UNL     1      35.141 -18.256 -21.530  0.00  0.00    +0.064 C 
ATOM     28  C   UNL     1      35.092 -18.600 -22.872  0.00  0.00    +0.055 C 
ATOM     29  C   UNL     1      35.001 -16.940 -21.119  0.00  0.00    +0.016 C 
ATOM     30  C   UNL     1      34.898 -17.602 -23.826  0.00  0.00    +0.015 C 
ATOM     31  C   UNL     1      34.808 -15.942 -22.073  0.00  0.00    +0.001 C 
ATOM     32  C   UNL     1      34.757 -16.273 -23.427  0.00  0.00    +0.001 C 
BRANCH  28  33
ATOM     33  N   UNL     1      35.232 -19.939 -23.299  0.00  0.00    -0.356 N 
ATOM     34  H   UNL     1      35.776 -20.148 -24.093  0.00  0.00    +0.142 HD
ATOM     35  H   UNL     1      34.786 -20.663 -22.803  0.00  0.00    +0.142 HD
ENDBRANCH  28  33
ENDBRANCH  24  27
ENDBRANCH  22  25
ENDBRANCH   4  21
TORSDOF 7
ENDMDL
MODEL 9
REMARK VINA RESULT:     -10.1      4.664     13.820
REMARK  Name = 15985904
REMARK  7 active torsions:
REMARK  status: ('A' for Active; 'I' for Inactive)
REMARK    1  A    between atoms: N_1  and  S_6
REMARK    2  A    between atoms: C_4  and  C_21
REMARK    3  A    between atoms: S_6  and  C_9
REMARK    4  A    between atoms: C_10  and  C_17
REMARK    5  A    between atoms: C_22  and  C_25
REMARK    6  A    between atoms: N_24  and  C_27
REMARK    7  A    between atoms: C_28  and  N_33
REMARK                            x       y       z     vdW  Elec       q    Type
REMARK                         _______ _______ _______ _____ _____    ______ ____
ROOT
ATOM      1  N   UNL     1      33.981 -14.235 -24.215  0.00  0.00    -0.167 N 
ATOM      2  C   UNL     1      34.349 -13.016 -24.609  0.00  0.00    +0.089 C 
ATOM      3  C   UNL     1      33.229 -14.251 -23.114  0.00  0.00    +0.089 C 
ATOM      4  C   UNL     1      33.794 -12.150 -23.693  0.00  0.00    +0.018 C 
ATOM      5  C   UNL     1      33.086 -12.932 -22.747  0.00  0.00    +0.019 C 
ENDROOT
BRANCH   1   6
ATOM      6  S   UNL     1      34.439 -15.672 -25.059  0.00  0.00    +0.080 S 
ATOM      7  O   UNL     1      35.686 -15.289 -25.696  0.00  0.00    -0.149 OA
ATOM      8  O   UNL     1      33.270 -16.077 -25.817  0.00  0.00    -0.149 OA
BRANCH   6   9
ATOM      9  C   UNL     1      34.731 -16.870 -23.823  0.00  0.00    +0.126 C 
ATOM     10  C   UNL     1      35.198 -18.784 -21.848  0.00  0.00    +0.003 C 
ATOM     11  C   UNL     1      35.063 -16.470 -22.529  0.00  0.00    +0.020 C 
ATOM     12  C   UNL     1      34.632 -18.228 -24.129  0.00  0.00    +0.020 C 
ATOM     13  C   UNL     1      35.297 -17.427 -21.541  0.00  0.00    +0.001 C 
ATOM     14  C   UNL     1      34.866 -19.184 -23.142  0.00  0.00    +0.001 C 
BRANCH  10  17
ATOM     15  N   UNL     1      35.099 -21.353 -19.374  0.00  0.00    -0.208 N 
ATOM     16  N   UNL     1      36.419 -21.120 -19.280  0.00  0.00    -0.176 NA
ATOM     17  C   UNL     1      35.439 -19.769 -20.831  0.00  0.00    +0.037 C 
ATOM     18  C   UNL     1      34.464 -20.568 -20.292  0.00  0.00    +0.086 C 
ATOM     19  C   UNL     1      36.620 -20.149 -20.174  0.00  0.00    +0.119 C 
ATOM     20  C   UNL     1      34.488 -22.363 -18.543  0.00  0.00    +0.140 C 
ENDBRANCH  10  17
ENDBRANCH   6   9
ENDBRANCH   1   6
BRANCH   4  21
ATOM     21  C   UNL     1      33.927 -10.746 -23.722  0.00  0.00    +0.006 C 
ATOM     22  C   UNL     1      33.291  -9.820 -22.949  0.00  0.00    +0.058 C 
BRANCH  22  25
ATOM     23  O   UNL     1      34.661  -7.876 -22.901  0.00  0.00    -0.270 OA
ATOM     24  N   UNL     1      32.402  -7.686 -23.511  0.00  0.00    -0.279 N 
ATOM     25  C   UNL     1      33.551  -8.354 -23.111  0.00  0.00    +0.250 C 
ATOM     26  H   UNL     1      31.595  -8.239 -23.632  0.00  0.00    +0.155 HD
BRANCH  24  27
ATOM     27  C   UNL     1      32.258  -6.300 -23.764  0.00  0.00    +0.064 C 
ATOM     28  C   UNL     1      31.469  -5.515 -22.939  0.00  0.00    +0.055 C 
ATOM     29  C   UNL     1      32.924  -5.758 -24.852  0.00  0.00    +0.016 C 
ATOM     30  C   UNL     1      31.342  -4.153 -23.208  0.00  0.00    +0.015 C 
ATOM     31  C   UNL     1      32.797  -4.396 -25.121  0.00  0.00    +0.001 C 
ATOM     32  C   UNL     1      32.006  -3.593 -24.300  0.00  0.00    +0.001 C 
BRANCH  28  33
ATOM     33  N   UNL     1      30.788  -6.060 -21.827  0.00  0.00    -0.356 N 
ATOM     34  H   UNL     1      31.062  -5.814 -20.914  0.00  0.00    +0.142 HD
ATOM     35  H   UNL     1      30.041  -6.685 -21.965  0.00  0.00    +0.142 HD
ENDBRANCH  28  33
ENDBRANCH  24  27
ENDBRANCH  22  25
ENDBRANCH   4  21
TORSDOF 7
ENDMDL
