MODEL 1
REMARK VINA RESULT:     -11.9      0.000      0.000
REMARK  Name = 9823454
REMARK  7 active torsions:
REMARK  status: ('A' for Active; 'I' for Inactive)
REMARK    1  A    between atoms: C_1  and  C_4
REMARK    2  A    between atoms: C_1  and  N_8
REMARK    3  A    between atoms: C_1  and  C_23
REMARK    4  A    between atoms: N_3  and  O_6
REMARK    5  A    between atoms: N_8  and  S_10
REMARK    6  A    between atoms: S_10  and  C_13
REMARK    7  A    between atoms: C_23  and  C_24
REMARK                            x       y       z     vdW  Elec       q    Type
REMARK                         _______ _______ _______ _____ _____    ______ ____
ROOT
ATOM      1  C   UNL     1      34.767 -24.226 -13.055  0.00  0.00    +0.158 C 
ENDROOT
BRANCH   1   4
ATOM      2  O   UNL     1      35.323 -24.512 -10.721  0.00  0.00    -0.272 OA
ATOM      3  N   UNL     1      36.416 -25.803 -12.292  0.00  0.00    -0.196 N 
ATOM      4  C   UNL     1      35.515 -24.849 -11.888  0.00  0.00    +0.260 C 
ATOM      5  H   UNL     1      36.536 -26.041 -13.240  0.00  0.00    +0.182 HD
BRANCH   3   6
ATOM      6  O   UNL     1      37.154 -26.418 -11.271  0.00  0.00    -0.295 OA
ATOM      7  H   UNL     1      38.037 -26.646 -11.604  0.00  0.00    +0.241 HD
ENDBRANCH   3   6
ENDBRANCH   1   4
BRANCH   1   8
ATOM      8  N   UNL     1      35.698 -23.232 -13.641  0.00  0.00    -0.172 NA
ATOM      9  H   UNL     1      35.136 -22.428 -13.917  0.00  0.00    +0.149 HD
BRANCH   8  10
ATOM     10  S   UNL     1      36.648 -23.653 -14.985  0.00  0.00    +0.061 S 
ATOM     11  O   UNL     1      36.681 -25.097 -15.119  0.00  0.00    -0.153 OA
ATOM     12  O   UNL     1      37.884 -22.895 -14.939  0.00  0.00    -0.153 OA
BRANCH  10  13
ATOM     13  C   UNL     1      35.694 -23.004 -16.323  0.00  0.00    +0.122 C 
ATOM     14  C   UNL     1      36.325 -22.253 -17.301  0.00  0.00    +0.020 C 
ATOM     15  C   UNL     1      35.581 -21.730 -18.371  0.00  0.00    +0.001 C 
ATOM     16  C   UNL     1      34.337 -23.257 -16.369  0.00  0.00    +0.020 C 
ATOM     17  C   UNL     1      34.189 -21.979 -18.434  0.00  0.00    +0.000 C 
ATOM     18  C   UNL     1      33.583 -22.744 -17.426  0.00  0.00    +0.001 C 
ATOM     19  C   UNL     1      36.188 -20.964 -19.379  0.00  0.00    +0.000 C 
ATOM     20  C   UNL     1      33.445 -21.454 -19.503  0.00  0.00    +0.000 C 
ATOM     21  C   UNL     1      35.433 -20.451 -20.435  0.00  0.00    +0.000 C 
ATOM     22  C   UNL     1      34.066 -20.696 -20.497  0.00  0.00    +0.000 C 
ENDBRANCH  10  13
ENDBRANCH   8  10
ENDBRANCH   1   8
BRANCH   1  23
ATOM     23  C   UNL     1      33.484 -23.522 -12.582  0.00  0.00    +0.053 C 
BRANCH  23  24
ATOM     24  C   UNL     1      32.280 -23.884 -13.385  0.00  0.00    -0.020 C 
ATOM     25  C   UNL     1      31.653 -22.920 -14.176  0.00  0.00    -0.004 C 
ATOM     26  C   UNL     1      30.518 -23.246 -14.938  0.00  0.00    -0.000 C 
ATOM     27  C   UNL     1      31.783 -25.183 -13.345  0.00  0.00    -0.004 C 
ATOM     28  C   UNL     1      30.013 -24.567 -14.896  0.00  0.00    -0.000 C 
ATOM     29  C   UNL     1      30.657 -25.524 -14.095  0.00  0.00    -0.000 C 
ATOM     30  C   UNL     1      29.875 -22.288 -15.738  0.00  0.00    -0.000 C 
ATOM     31  C   UNL     1      28.879 -24.893 -15.658  0.00  0.00    -0.000 C 
ATOM     32  C   UNL     1      28.749 -22.629 -16.489  0.00  0.00    -0.000 C 
ATOM     33  C   UNL     1      28.252 -23.928 -16.448  0.00  0.00    -0.000 C 
ENDBRANCH  23  24
ENDBRANCH   1  23
TORSDOF 7
ENDMDL
MODEL 2
REMARK VINA RESULT:     -11.7      1.549      6.036
REMARK  Name = 9823454
REMARK  7 active torsions:
REMARK  status: ('A' for Active; 'I' for Inactive)
REMARK    1  A    between atoms: C_1  and  C_4
REMARK    2  A    between atoms: C_1  and  N_8
REMARK    3  A    between atoms: C_1  and  C_23
REMARK    4  A    between atoms: N_3  and  O_6
REMARK    5  A    between atoms: N_8  and  S_10
REMARK    6  A    between atoms: S_10  and  C_13
REMARK    7  A    between atoms: C_23  and  C_24
REMARK                            x       y       z     vdW  Elec       q    Type
REMARK                         _______ _______ _______ _____ _____    ______ ____
ROOT
ATOM      1  C   UNL     1      36.035 -22.532 -15.245  0.00  0.00    +0.158 C 
ENDROOT
BRANCH   1   4
ATOM      2  O   UNL     1      37.679 -22.802 -13.495  0.00  0.00    -0.272 OA
ATOM      3  N   UNL     1      38.022 -23.861 -15.518  0.00  0.00    -0.196 N 
ATOM      4  C   UNL     1      37.322 -23.069 -14.641  0.00  0.00    +0.260 C 
ATOM      5  H   UNL     1      37.696 -24.048 -16.428  0.00  0.00    +0.182 HD
BRANCH   3   6
ATOM      6  O   UNL     1      39.228 -24.388 -15.036  0.00  0.00    -0.295 OA
ATOM      7  H   UNL     1      39.737 -24.756 -15.775  0.00  0.00    +0.241 HD
ENDBRANCH   3   6
ENDBRANCH   1   4
BRANCH   1   8
ATOM      8  N   UNL     1      35.011 -22.657 -14.180  0.00  0.00    -0.172 NA
ATOM      9  H   UNL     1      35.339 -22.104 -13.389  0.00  0.00    +0.149 HD
BRANCH   8  10
ATOM     10  S   UNL     1      34.607 -24.191 -13.573  0.00  0.00    +0.061 S 
ATOM     11  O   UNL     1      34.738 -24.189 -12.129  0.00  0.00    -0.153 OA
ATOM     12  O   UNL     1      35.283 -25.200 -14.366  0.00  0.00    -0.153 OA
BRANCH  10  13
ATOM     13  C   UNL     1      32.887 -24.296 -13.964  0.00  0.00    +0.122 C 
ATOM     14  C   UNL     1      32.351 -23.423 -14.896  0.00  0.00    +0.020 C 
ATOM     15  C   UNL     1      30.986 -23.493 -15.218  0.00  0.00    +0.001 C 
ATOM     16  C   UNL     1      32.109 -25.246 -13.333  0.00  0.00    +0.020 C 
ATOM     17  C   UNL     1      30.173 -24.461 -14.580  0.00  0.00    +0.000 C 
ATOM     18  C   UNL     1      30.750 -25.330 -13.641  0.00  0.00    +0.001 C 
ATOM     19  C   UNL     1      30.409 -22.623 -16.157  0.00  0.00    +0.000 C 
ATOM     20  C   UNL     1      28.808 -24.530 -14.901  0.00  0.00    +0.000 C 
ATOM     21  C   UNL     1      29.050 -22.707 -16.464  0.00  0.00    +0.000 C 
ATOM     22  C   UNL     1      28.252 -23.658 -15.838  0.00  0.00    +0.000 C 
ENDBRANCH  10  13
ENDBRANCH   8  10
ENDBRANCH   1   8
BRANCH   1  23
ATOM     23  C   UNL     1      35.611 -23.353 -16.474  0.00  0.00    +0.053 C 
BRANCH  23  24
ATOM     24  C   UNL     1      35.172 -22.513 -17.626  0.00  0.00    -0.020 C 
ATOM     25  C   UNL     1      36.107 -21.758 -18.336  0.00  0.00    -0.004 C 
ATOM     26  C   UNL     1      35.709 -20.962 -19.422  0.00  0.00    -0.000 C 
ATOM     27  C   UNL     1      33.830 -22.482 -17.991  0.00  0.00    -0.004 C 
ATOM     28  C   UNL     1      34.344 -20.931 -19.794  0.00  0.00    -0.000 C 
ATOM     29  C   UNL     1      33.417 -21.697 -19.068  0.00  0.00    -0.000 C 
ATOM     30  C   UNL     1      36.637 -20.197 -20.147  0.00  0.00    -0.000 C 
ATOM     31  C   UNL     1      33.946 -20.135 -20.880  0.00  0.00    -0.000 C 
ATOM     32  C   UNL     1      36.224 -19.412 -21.225  0.00  0.00    -0.000 C 
ATOM     33  C   UNL     1      34.881 -19.380 -21.589  0.00  0.00    -0.000 C 
ENDBRANCH  23  24
ENDBRANCH   1  23
TORSDOF 7
ENDMDL
MODEL 3
REMARK VINA RESULT:     -10.7      1.330      1.987
REMARK  Name = 9823454
REMARK  7 active torsions:
REMARK  status: ('A' for Active; 'I' for Inactive)
REMARK    1  A    between atoms: C_1  and  C_4
REMARK    2  A    between atoms: C_1  and  N_8
REMARK    3  A    between atoms: C_1  and  C_23
REMARK    4  A    between atoms: N_3  and  O_6
REMARK    5  A    between atoms: N_8  and  S_10
REMARK    6  A    between atoms: S_10  and  C_13
REMARK    7  A    between atoms: C_23  and  C_24
REMARK                            x       y       z     vdW  Elec       q    Type
REMARK                         _______ _______ _______ _____ _____    ______ ____
ROOT
ATOM      1  C   UNL     1      35.322 -25.349 -14.457  0.00  0.00    +0.158 C 
ENDROOT
BRANCH   1   4
ATOM      2  O   UNL     1      36.954 -25.416 -12.675  0.00  0.00    -0.272 OA
ATOM      3  N   UNL     1      37.407 -26.537 -14.642  0.00  0.00    -0.196 N 
ATOM      4  C   UNL     1      36.636 -25.761 -13.812  0.00  0.00    +0.260 C 
ATOM      5  H   UNL     1      37.112 -26.788 -15.547  0.00  0.00    +0.182 HD
BRANCH   3   6
ATOM      6  O   UNL     1      38.642 -26.949 -14.122  0.00  0.00    -0.295 OA
ATOM      7  H   UNL     1      38.851 -27.836 -14.452  0.00  0.00    +0.241 HD
ENDBRANCH   3   6
ENDBRANCH   1   4
BRANCH   1   8
ATOM      8  N   UNL     1      35.697 -24.589 -15.673  0.00  0.00    -0.172 NA
ATOM      9  H   UNL     1      36.236 -25.222 -16.263  0.00  0.00    +0.149 HD
BRANCH   8  10
ATOM     10  S   UNL     1      36.601 -23.159 -15.531  0.00  0.00    +0.061 S 
ATOM     11  O   UNL     1      38.016 -23.477 -15.563  0.00  0.00    -0.153 OA
ATOM     12  O   UNL     1      36.056 -22.368 -14.443  0.00  0.00    -0.153 OA
BRANCH  10  13
ATOM     13  C   UNL     1      36.197 -22.320 -17.032  0.00  0.00    +0.122 C 
ATOM     14  C   UNL     1      34.871 -22.239 -17.425  0.00  0.00    +0.020 C 
ATOM     15  C   UNL     1      34.533 -21.576 -18.616  0.00  0.00    +0.001 C 
ATOM     16  C   UNL     1      37.209 -21.760 -17.786  0.00  0.00    +0.020 C 
ATOM     17  C   UNL     1      35.558 -20.997 -19.401  0.00  0.00    +0.000 C 
ATOM     18  C   UNL     1      36.891 -21.097 -18.972  0.00  0.00    +0.001 C 
ATOM     19  C   UNL     1      33.199 -21.476 -19.045  0.00  0.00    +0.000 C 
ATOM     20  C   UNL     1      35.220 -20.335 -20.592  0.00  0.00    +0.000 C 
ATOM     21  C   UNL     1      32.881 -20.814 -20.232  0.00  0.00    +0.000 C 
ATOM     22  C   UNL     1      33.889 -20.244 -21.003  0.00  0.00    +0.000 C 
ENDBRANCH  10  13
ENDBRANCH   8  10
ENDBRANCH   1   8
BRANCH   1  23
ATOM     23  C   UNL     1      34.497 -24.455 -13.517  0.00  0.00    +0.053 C 
BRANCH  23  24
ATOM     24  C   UNL     1      33.042 -24.438 -13.843  0.00  0.00    -0.020 C 
ATOM     25  C   UNL     1      32.561 -23.596 -14.847  0.00  0.00    -0.004 C 
ATOM     26  C   UNL     1      31.193 -23.569 -15.166  0.00  0.00    -0.000 C 
ATOM     27  C   UNL     1      32.163 -25.263 -13.147  0.00  0.00    -0.004 C 
ATOM     28  C   UNL     1      30.301 -24.408 -14.457  0.00  0.00    -0.000 C 
ATOM     29  C   UNL     1      30.802 -25.249 -13.451  0.00  0.00    -0.000 C 
ATOM     30  C   UNL     1      30.693 -22.727 -16.172  0.00  0.00    -0.000 C 
ATOM     31  C   UNL     1      28.933 -24.380 -14.776  0.00  0.00    -0.000 C 
ATOM     32  C   UNL     1      29.331 -22.713 -16.476  0.00  0.00    -0.000 C 
ATOM     33  C   UNL     1      28.454 -23.537 -15.779  0.00  0.00    -0.000 C 
ENDBRANCH  23  24
ENDBRANCH   1  23
TORSDOF 7
ENDMDL
MODEL 4
REMARK VINA RESULT:     -10.6     12.681     15.755
REMARK  Name = 9823454
REMARK  7 active torsions:
REMARK  status: ('A' for Active; 'I' for Inactive)
REMARK    1  A    between atoms: C_1  and  C_4
REMARK    2  A    between atoms: C_1  and  N_8
REMARK    3  A    between atoms: C_1  and  C_23
REMARK    4  A    between atoms: N_3  and  O_6
REMARK    5  A    between atoms: N_8  and  S_10
REMARK    6  A    between atoms: S_10  and  C_13
REMARK    7  A    between atoms: C_23  and  C_24
REMARK                            x       y       z     vdW  Elec       q    Type
REMARK                         _______ _______ _______ _____ _____    ______ ____
ROOT
ATOM      1  C   UNL     1      32.137 -10.547 -21.307  0.00  0.00    +0.158 C 
ENDROOT
BRANCH   1   4
ATOM      2  O   UNL     1      30.113 -11.244 -20.187  0.00  0.00    -0.272 OA
ATOM      3  N   UNL     1      31.957 -10.692 -18.912  0.00  0.00    -0.196 N 
ATOM      4  C   UNL     1      31.281 -10.872 -20.094  0.00  0.00    +0.260 C 
ATOM      5  H   UNL     1      32.895 -10.392 -18.886  0.00  0.00    +0.182 HD
BRANCH   3   6
ATOM      6  O   UNL     1      31.230 -10.962 -17.745  0.00  0.00    -0.295 OA
ATOM      7  H   UNL     1      30.778 -10.156 -17.452  0.00  0.00    +0.241 HD
ENDBRANCH   3   6
ENDBRANCH   1   4
BRANCH   1   8
ATOM      8  N   UNL     1      31.651  -9.235 -21.798  0.00  0.00    -0.172 NA
ATOM      9  H   UNL     1      31.859  -9.197 -22.796  0.00  0.00    +0.149 HD
BRANCH   8  10
ATOM     10  S   UNL     1      32.252  -7.801 -21.116  0.00  0.00    +0.061 S 
ATOM     11  O   UNL     1      33.145  -8.126 -20.020  0.00  0.00    -0.153 OA
ATOM     12  O   UNL     1      31.148  -6.883 -20.910  0.00  0.00    -0.153 OA
BRANCH  10  13
ATOM     13  C   UNL     1      33.226  -7.149 -22.438  0.00  0.00    +0.122 C 
ATOM     14  C   UNL     1      32.654  -6.243 -23.315  0.00  0.00    +0.020 C 
ATOM     15  C   UNL     1      33.415  -5.715 -24.372  0.00  0.00    +0.001 C 
ATOM     16  C   UNL     1      34.540  -7.553 -22.571  0.00  0.00    +0.020 C 
ATOM     17  C   UNL     1      34.763  -6.120 -24.523  0.00  0.00    +0.000 C 
ATOM     18  C   UNL     1      35.310  -7.039 -23.615  0.00  0.00    +0.001 C 
ATOM     19  C   UNL     1      32.867  -4.796 -25.281  0.00  0.00    +0.000 C 
ATOM     20  C   UNL     1      35.523  -5.593 -25.580  0.00  0.00    +0.000 C 
ATOM     21  C   UNL     1      33.637  -4.282 -26.325  0.00  0.00    +0.000 C 
ATOM     22  C   UNL     1      34.962  -4.679 -26.473  0.00  0.00    +0.000 C 
ENDBRANCH  10  13
ENDBRANCH   8  10
ENDBRANCH   1   8
BRANCH   1  23
ATOM     23  C   UNL     1      31.971 -11.609 -22.407  0.00  0.00    +0.053 C 
BRANCH  23  24
ATOM     24  C   UNL     1      32.712 -12.873 -22.126  0.00  0.00    -0.020 C 
ATOM     25  C   UNL     1      33.193 -13.650 -23.180  0.00  0.00    -0.004 C 
ATOM     26  C   UNL     1      33.892 -14.842 -22.932  0.00  0.00    -0.000 C 
ATOM     27  C   UNL     1      32.924 -13.276 -20.811  0.00  0.00    -0.004 C 
ATOM     28  C   UNL     1      34.108 -15.251 -21.594  0.00  0.00    -0.000 C 
ATOM     29  C   UNL     1      33.618 -14.457 -20.546  0.00  0.00    -0.000 C 
ATOM     30  C   UNL     1      34.382 -15.636 -23.981  0.00  0.00    -0.000 C 
ATOM     31  C   UNL     1      34.807 -16.443 -21.346  0.00  0.00    -0.000 C 
ATOM     32  C   UNL     1      35.076 -16.818 -23.716  0.00  0.00    -0.000 C 
ATOM     33  C   UNL     1      35.287 -17.220 -22.401  0.00  0.00    -0.000 C 
ENDBRANCH  23  24
ENDBRANCH   1  23
TORSDOF 7
ENDMDL
MODEL 5
REMARK VINA RESULT:     -10.4      8.664     11.886
REMARK  Name = 9823454
REMARK  7 active torsions:
REMARK  status: ('A' for Active; 'I' for Inactive)
REMARK    1  A    between atoms: C_1  and  C_4
REMARK    2  A    between atoms: C_1  and  N_8
REMARK    3  A    between atoms: C_1  and  C_23
REMARK    4  A    between atoms: N_3  and  O_6
REMARK    5  A    between atoms: N_8  and  S_10
REMARK    6  A    between atoms: S_10  and  C_13
REMARK    7  A    between atoms: C_23  and  C_24
REMARK                            x       y       z     vdW  Elec       q    Type
REMARK                         _______ _______ _______ _____ _____    ______ ____
ROOT
ATOM      1  C   UNL     1      34.429 -16.388 -23.164  0.00  0.00    +0.158 C 
ENDROOT
BRANCH   1   4
ATOM      2  O   UNL     1      34.932 -17.280 -25.353  0.00  0.00    -0.272 OA
ATOM      3  N   UNL     1      33.878 -15.232 -25.201  0.00  0.00    -0.196 N 
ATOM      4  C   UNL     1      34.447 -16.369 -24.684  0.00  0.00    +0.260 C 
ATOM      5  H   UNL     1      33.501 -14.527 -24.626  0.00  0.00    +0.182 HD
BRANCH   3   6
ATOM      6  O   UNL     1      33.866 -15.135 -26.600  0.00  0.00    -0.295 OA
ATOM      7  H   UNL     1      34.197 -14.264 -26.866  0.00  0.00    +0.241 HD
ENDBRANCH   3   6
ENDBRANCH   1   4
BRANCH   1   8
ATOM      8  N   UNL     1      34.054 -15.013 -22.754  0.00  0.00    -0.172 NA
ATOM      9  H   UNL     1      34.846 -14.412 -22.979  0.00  0.00    +0.149 HD
BRANCH   8  10
ATOM     10  S   UNL     1      33.642 -14.697 -21.137  0.00  0.00    +0.061 S 
ATOM     11  O   UNL     1      34.850 -14.597 -20.341  0.00  0.00    -0.153 OA
ATOM     12  O   UNL     1      32.579 -15.602 -20.741  0.00  0.00    -0.153 OA
BRANCH  10  13
ATOM     13  C   UNL     1      32.929 -13.084 -21.251  0.00  0.00    +0.122 C 
ATOM     14  C   UNL     1      33.369 -12.219 -22.239  0.00  0.00    +0.020 C 
ATOM     15  C   UNL     1      32.813 -10.934 -22.343  0.00  0.00    +0.001 C 
ATOM     16  C   UNL     1      31.947 -12.716 -20.353  0.00  0.00    +0.020 C 
ATOM     17  C   UNL     1      31.805 -10.540 -21.431  0.00  0.00    +0.000 C 
ATOM     18  C   UNL     1      31.383 -11.442 -20.442  0.00  0.00    +0.001 C 
ATOM     19  C   UNL     1      33.236 -10.031 -23.332  0.00  0.00    +0.000 C 
ATOM     20  C   UNL     1      31.250  -9.254 -21.534  0.00  0.00    +0.000 C 
ATOM     21  C   UNL     1      32.673  -8.757 -23.420  0.00  0.00    +0.000 C 
ATOM     22  C   UNL     1      31.682  -8.370 -22.524  0.00  0.00    +0.000 C 
ENDBRANCH  10  13
ENDBRANCH   8  10
ENDBRANCH   1   8
BRANCH   1  23
ATOM     23  C   UNL     1      35.813 -16.743 -22.595  0.00  0.00    +0.053 C 
BRANCH  23  24
ATOM     24  C   UNL     1      35.815 -17.992 -21.781  0.00  0.00    -0.020 C 
ATOM     25  C   UNL     1      34.608 -18.583 -21.404  0.00  0.00    -0.004 C 
ATOM     26  C   UNL     1      34.594 -19.759 -20.637  0.00  0.00    -0.000 C 
ATOM     27  C   UNL     1      37.022 -18.569 -21.396  0.00  0.00    -0.004 C 
ATOM     28  C   UNL     1      35.822 -20.345 -20.247  0.00  0.00    -0.000 C 
ATOM     29  C   UNL     1      37.026 -19.738 -20.635  0.00  0.00    -0.000 C 
ATOM     30  C   UNL     1      33.388 -20.366 -20.250  0.00  0.00    -0.000 C 
ATOM     31  C   UNL     1      35.807 -21.522 -19.480  0.00  0.00    -0.000 C 
ATOM     32  C   UNL     1      33.393 -21.535 -19.488  0.00  0.00    -0.000 C 
ATOM     33  C   UNL     1      34.600 -22.111 -19.104  0.00  0.00    -0.000 C 
ENDBRANCH  23  24
ENDBRANCH   1  23
TORSDOF 7
ENDMDL
MODEL 6
REMARK VINA RESULT:     -10.4      1.733      5.687
REMARK  Name = 9823454
REMARK  7 active torsions:
REMARK  status: ('A' for Active; 'I' for Inactive)
REMARK    1  A    between atoms: C_1  and  C_4
REMARK    2  A    between atoms: C_1  and  N_8
REMARK    3  A    between atoms: C_1  and  C_23
REMARK    4  A    between atoms: N_3  and  O_6
REMARK    5  A    between atoms: N_8  and  S_10
REMARK    6  A    between atoms: S_10  and  C_13
REMARK    7  A    between atoms: C_23  and  C_24
REMARK                            x       y       z     vdW  Elec       q    Type
REMARK                         _______ _______ _______ _____ _____    ______ ____
ROOT
ATOM      1  C   UNL     1      36.850 -25.093 -13.761  0.00  0.00    +0.158 C 
ENDROOT
BRANCH   1   4
ATOM      2  O   UNL     1      38.522 -26.291 -15.030  0.00  0.00    -0.272 OA
ATOM      3  N   UNL     1      36.292 -26.703 -15.460  0.00  0.00    -0.196 N 
ATOM      4  C   UNL     1      37.330 -26.087 -14.806  0.00  0.00    +0.260 C 
ATOM      5  H   UNL     1      35.350 -26.508 -15.247  0.00  0.00    +0.182 HD
BRANCH   3   6
ATOM      6  O   UNL     1      36.654 -27.628 -16.449  0.00  0.00    -0.295 OA
ATOM      7  H   UNL     1      35.903 -28.213 -16.635  0.00  0.00    +0.241 HD
ENDBRANCH   3   6
ENDBRANCH   1   4
BRANCH   1   8
ATOM      8  N   UNL     1      35.374 -25.057 -13.894  0.00  0.00    -0.172 NA
ATOM      9  H   UNL     1      35.168 -24.560 -14.760  0.00  0.00    +0.149 HD
BRANCH   8  10
ATOM     10  S   UNL     1      34.433 -24.337 -12.678  0.00  0.00    +0.061 S 
ATOM     11  O   UNL     1      34.797 -22.938 -12.550  0.00  0.00    -0.153 OA
ATOM     12  O   UNL     1      34.435 -25.201 -11.512  0.00  0.00    -0.153 OA
BRANCH  10  13
ATOM     13  C   UNL     1      32.812 -24.417 -13.375  0.00  0.00    +0.122 C 
ATOM     14  C   UNL     1      32.441 -23.488 -14.333  0.00  0.00    +0.020 C 
ATOM     15  C   UNL     1      31.156 -23.537 -14.897  0.00  0.00    +0.001 C 
ATOM     16  C   UNL     1      31.944 -25.404 -12.953  0.00  0.00    +0.020 C 
ATOM     17  C   UNL     1      30.254 -24.543 -14.475  0.00  0.00    +0.000 C 
ATOM     18  C   UNL     1      30.663 -25.469 -13.503  0.00  0.00    +0.001 C 
ATOM     19  C   UNL     1      30.747 -22.610 -15.870  0.00  0.00    +0.000 C 
ATOM     20  C   UNL     1      28.968 -24.592 -15.039  0.00  0.00    +0.000 C 
ATOM     21  C   UNL     1      29.465 -22.674 -16.419  0.00  0.00    +0.000 C 
ATOM     22  C   UNL     1      28.579 -23.663 -16.005  0.00  0.00    +0.000 C 
ENDBRANCH  10  13
ENDBRANCH   8  10
ENDBRANCH   1   8
BRANCH   1  23
ATOM     23  C   UNL     1      37.431 -23.693 -14.015  0.00  0.00    +0.053 C 
BRANCH  23  24
ATOM     24  C   UNL     1      37.015 -23.108 -15.323  0.00  0.00    -0.020 C 
ATOM     25  C   UNL     1      35.694 -23.233 -15.755  0.00  0.00    -0.004 C 
ATOM     26  C   UNL     1      35.287 -22.688 -16.984  0.00  0.00    -0.000 C 
ATOM     27  C   UNL     1      37.945 -22.438 -16.112  0.00  0.00    -0.004 C 
ATOM     28  C   UNL     1      36.233 -22.006 -17.786  0.00  0.00    -0.000 C 
ATOM     29  C   UNL     1      37.558 -21.890 -17.335  0.00  0.00    -0.000 C 
ATOM     30  C   UNL     1      33.962 -22.806 -17.434  0.00  0.00    -0.000 C 
ATOM     31  C   UNL     1      35.827 -21.461 -19.014  0.00  0.00    -0.000 C 
ATOM     32  C   UNL     1      33.575 -22.258 -18.658  0.00  0.00    -0.000 C 
ATOM     33  C   UNL     1      34.506 -21.588 -19.446  0.00  0.00    -0.000 C 
ENDBRANCH  23  24
ENDBRANCH   1  23
TORSDOF 7
ENDMDL
MODEL 7
REMARK VINA RESULT:     -10.3      2.134      3.278
REMARK  Name = 9823454
REMARK  7 active torsions:
REMARK  status: ('A' for Active; 'I' for Inactive)
REMARK    1  A    between atoms: C_1  and  C_4
REMARK    2  A    between atoms: C_1  and  N_8
REMARK    3  A    between atoms: C_1  and  C_23
REMARK    4  A    between atoms: N_3  and  O_6
REMARK    5  A    between atoms: N_8  and  S_10
REMARK    6  A    between atoms: S_10  and  C_13
REMARK    7  A    between atoms: C_23  and  C_24
REMARK                            x       y       z     vdW  Elec       q    Type
REMARK                         _______ _______ _______ _____ _____    ______ ____
ROOT
ATOM      1  C   UNL     1      34.586 -24.221 -15.600  0.00  0.00    +0.158 C 
ENDROOT
BRANCH   1   4
ATOM      2  O   UNL     1      36.698 -23.186 -15.043  0.00  0.00    -0.272 OA
ATOM      3  N   UNL     1      36.608 -25.482 -15.265  0.00  0.00    -0.196 N 
ATOM      4  C   UNL     1      36.070 -24.219 -15.269  0.00  0.00    +0.260 C 
ATOM      5  H   UNL     1      36.066 -26.283 -15.452  0.00  0.00    +0.182 HD
BRANCH   3   6
ATOM      6  O   UNL     1      37.977 -25.562 -14.977  0.00  0.00    -0.295 OA
ATOM      7  H   UNL     1      38.453 -25.886 -15.758  0.00  0.00    +0.241 HD
ENDBRANCH   3   6
ENDBRANCH   1   4
BRANCH   1   8
ATOM      8  N   UNL     1      34.335 -22.945 -16.312  0.00  0.00    -0.172 NA
ATOM      9  H   UNL     1      33.738 -22.382 -15.707  0.00  0.00    +0.149 HD
BRANCH   8  10
ATOM     10  S   UNL     1      33.605 -22.962 -17.845  0.00  0.00    +0.061 S 
ATOM     11  O   UNL     1      32.298 -22.337 -17.765  0.00  0.00    -0.153 OA
ATOM     12  O   UNL     1      33.746 -24.289 -18.415  0.00  0.00    -0.153 OA
BRANCH  10  13
ATOM     13  C   UNL     1      34.665 -21.890 -18.766  0.00  0.00    +0.122 C 
ATOM     14  C   UNL     1      34.130 -21.122 -19.786  0.00  0.00    +0.020 C 
ATOM     15  C   UNL     1      34.959 -20.266 -20.528  0.00  0.00    +0.001 C 
ATOM     16  C   UNL     1      36.009 -21.838 -18.452  0.00  0.00    +0.020 C 
ATOM     17  C   UNL     1      36.339 -20.200 -20.219  0.00  0.00    +0.000 C 
ATOM     18  C   UNL     1      36.848 -20.992 -19.178  0.00  0.00    +0.001 C 
ATOM     19  C   UNL     1      34.450 -19.473 -21.570  0.00  0.00    +0.000 C 
ATOM     20  C   UNL     1      37.169 -19.344 -20.962  0.00  0.00    +0.000 C 
ATOM     21  C   UNL     1      35.289 -18.628 -22.297  0.00  0.00    +0.000 C 
ATOM     22  C   UNL     1      36.645 -18.563 -21.993  0.00  0.00    +0.000 C 
ENDBRANCH  10  13
ENDBRANCH   8  10
ENDBRANCH   1   8
BRANCH   1  23
ATOM     23  C   UNL     1      33.731 -24.283 -14.324  0.00  0.00    +0.053 C 
BRANCH  23  24
ATOM     24  C   UNL     1      32.351 -23.748 -14.510  0.00  0.00    -0.020 C 
ATOM     25  C   UNL     1      31.452 -24.410 -15.347  0.00  0.00    -0.004 C 
ATOM     26  C   UNL     1      30.150 -23.918 -15.532  0.00  0.00    -0.000 C 
ATOM     27  C   UNL     1      31.960 -22.588 -13.847  0.00  0.00    -0.004 C 
ATOM     28  C   UNL     1      29.753 -22.739 -14.857  0.00  0.00    -0.000 C 
ATOM     29  C   UNL     1      30.670 -22.086 -14.018  0.00  0.00    -0.000 C 
ATOM     30  C   UNL     1      29.233 -24.572 -16.371  0.00  0.00    -0.000 C 
ATOM     31  C   UNL     1      28.450 -22.248 -15.042  0.00  0.00    -0.000 C 
ATOM     32  C   UNL     1      27.942 -24.070 -16.543  0.00  0.00    -0.000 C 
ATOM     33  C   UNL     1      27.553 -22.910 -15.881  0.00  0.00    -0.000 C 
ENDBRANCH  23  24
ENDBRANCH   1  23
TORSDOF 7
ENDMDL
MODEL 8
REMARK VINA RESULT:     -10.2     14.256     17.225
REMARK  Name = 9823454
REMARK  7 active torsions:
REMARK  status: ('A' for Active; 'I' for Inactive)
REMARK    1  A    between atoms: C_1  and  C_4
REMARK    2  A    between atoms: C_1  and  N_8
REMARK    3  A    between atoms: C_1  and  C_23
REMARK    4  A    between atoms: N_3  and  O_6
REMARK    5  A    between atoms: N_8  and  S_10
REMARK    6  A    between atoms: S_10  and  C_13
REMARK    7  A    between atoms: C_23  and  C_24
REMARK                            x       y       z     vdW  Elec       q    Type
REMARK                         _______ _______ _______ _____ _____    ______ ____
ROOT
ATOM      1  C   UNL     1      32.868  -9.046 -21.844  0.00  0.00    +0.158 C 
ENDROOT
BRANCH   1   4
ATOM      2  O   UNL     1      31.443  -7.236 -21.114  0.00  0.00    -0.272 OA
ATOM      3  N   UNL     1      33.353  -7.707 -19.905  0.00  0.00    -0.196 N 
ATOM      4  C   UNL     1      32.460  -7.903 -20.929  0.00  0.00    +0.260 C 
ATOM      5  H   UNL     1      34.156  -8.266 -19.795  0.00  0.00    +0.182 HD
BRANCH   3   6
ATOM      6  O   UNL     1      33.050  -6.660 -19.022  0.00  0.00    -0.295 OA
ATOM      7  H   UNL     1      33.289  -5.814 -19.431  0.00  0.00    +0.241 HD
ENDBRANCH   3   6
ENDBRANCH   1   4
BRANCH   1   8
ATOM      8  N   UNL     1      33.079  -8.435 -23.177  0.00  0.00    -0.172 NA
ATOM      9  H   UNL     1      32.904  -9.164 -23.868  0.00  0.00    +0.149 HD
BRANCH   8  10
ATOM     10  S   UNL     1      34.581  -7.743 -23.563  0.00  0.00    +0.061 S 
ATOM     11  O   UNL     1      35.280  -8.600 -24.503  0.00  0.00    -0.153 OA
ATOM     12  O   UNL     1      35.231  -7.325 -22.335  0.00  0.00    -0.153 OA
BRANCH  10  13
ATOM     13  C   UNL     1      34.099  -6.275 -24.418  0.00  0.00    +0.122 C 
ATOM     14  C   UNL     1      32.967  -5.593 -24.004  0.00  0.00    +0.020 C 
ATOM     15  C   UNL     1      32.570  -4.424 -24.674  0.00  0.00    +0.001 C 
ATOM     16  C   UNL     1      34.859  -5.834 -25.483  0.00  0.00    +0.020 C 
ATOM     17  C   UNL     1      33.337  -3.958 -25.768  0.00  0.00    +0.000 C 
ATOM     18  C   UNL     1      34.479  -4.674 -26.160  0.00  0.00    +0.001 C 
ATOM     19  C   UNL     1      31.427  -3.708 -24.282  0.00  0.00    +0.000 C 
ATOM     20  C   UNL     1      32.939  -2.790 -26.438  0.00  0.00    +0.000 C 
ATOM     21  C   UNL     1      31.046  -2.548 -24.959  0.00  0.00    +0.000 C 
ATOM     22  C   UNL     1      31.801  -2.090 -26.034  0.00  0.00    +0.000 C 
ENDBRANCH  10  13
ENDBRANCH   8  10
ENDBRANCH   1   8
BRANCH   1  23
ATOM     23  C   UNL     1      31.764 -10.113 -21.928  0.00  0.00    +0.053 C 
BRANCH  23  24
ATOM     24  C   UNL     1      32.240 -11.486 -21.593  0.00  0.00    -0.020 C 
ATOM     25  C   UNL     1      33.090 -12.164 -22.468  0.00  0.00    -0.004 C 
ATOM     26  C   UNL     1      33.547 -13.457 -22.166  0.00  0.00    -0.000 C 
ATOM     27  C   UNL     1      31.837 -12.091 -20.406  0.00  0.00    -0.004 C 
ATOM     28  C   UNL     1      33.137 -14.071 -20.959  0.00  0.00    -0.000 C 
ATOM     29  C   UNL     1      32.282 -13.375 -20.090  0.00  0.00    -0.000 C 
ATOM     30  C   UNL     1      34.402 -14.153 -23.036  0.00  0.00    -0.000 C 
ATOM     31  C   UNL     1      33.594 -15.365 -20.657  0.00  0.00    -0.000 C 
ATOM     32  C   UNL     1      34.847 -15.438 -22.720  0.00  0.00    -0.000 C 
ATOM     33  C   UNL     1      34.442 -16.042 -21.534  0.00  0.00    -0.000 C 
ENDBRANCH  23  24
ENDBRANCH   1  23
TORSDOF 7
ENDMDL
MODEL 9
REMARK VINA RESULT:     -10.1      1.254      2.312
REMARK  Name = 9823454
REMARK  7 active torsions:
REMARK  status: ('A' for Active; 'I' for Inactive)
REMARK    1  A    between atoms: C_1  and  C_4
REMARK    2  A    between atoms: C_1  and  N_8
REMARK    3  A    between atoms: C_1  and  C_23
REMARK    4  A    between atoms: N_3  and  O_6
REMARK    5  A    between atoms: N_8  and  S_10
REMARK    6  A    between atoms: S_10  and  C_13
REMARK    7  A    between atoms: C_23  and  C_24
REMARK                            x       y       z     vdW  Elec       q    Type
REMARK                         _______ _______ _______ _____ _____    ______ ____
ROOT
ATOM      1  C   UNL     1      35.095 -24.962 -12.737  0.00  0.00    +0.158 C 
ENDROOT
BRANCH   1   4
ATOM      2  O   UNL     1      36.802 -26.040 -11.409  0.00  0.00    -0.272 OA
ATOM      3  N   UNL     1      35.772 -24.150 -10.576  0.00  0.00    -0.196 N 
ATOM      4  C   UNL     1      35.989 -25.124 -11.519  0.00  0.00    +0.260 C 
ATOM      5  H   UNL     1      35.109 -23.433 -10.706  0.00  0.00    +0.182 HD
BRANCH   3   6
ATOM      6  O   UNL     1      36.553 -24.237  -9.415  0.00  0.00    -0.295 OA
ATOM      7  H   UNL     1      37.353 -24.752  -9.602  0.00  0.00    +0.241 HD
ENDBRANCH   3   6
ENDBRANCH   1   4
BRANCH   1   8
ATOM      8  N   UNL     1      36.013 -24.919 -13.901  0.00  0.00    -0.172 NA
ATOM      9  H   UNL     1      36.465 -25.831 -13.954  0.00  0.00    +0.149 HD
BRANCH   8  10
ATOM     10  S   UNL     1      37.247 -23.754 -13.962  0.00  0.00    +0.061 S 
ATOM     11  O   UNL     1      38.533 -24.418 -14.060  0.00  0.00    -0.153 OA
ATOM     12  O   UNL     1      37.011 -22.769 -12.923  0.00  0.00    -0.153 OA
BRANCH  10  13
ATOM     13  C   UNL     1      36.923 -22.961 -15.507  0.00  0.00    +0.122 C 
ATOM     14  C   UNL     1      35.691 -23.137 -16.113  0.00  0.00    +0.020 C 
ATOM     15  C   UNL     1      35.418 -22.514 -17.342  0.00  0.00    +0.001 C 
ATOM     16  C   UNL     1      37.906 -22.179 -16.083  0.00  0.00    +0.020 C 
ATOM     17  C   UNL     1      36.414 -21.710 -17.946  0.00  0.00    +0.000 C 
ATOM     18  C   UNL     1      37.652 -21.552 -17.303  0.00  0.00    +0.001 C 
ATOM     19  C   UNL     1      34.180 -22.671 -17.984  0.00  0.00    +0.000 C 
ATOM     20  C   UNL     1      36.142 -21.087 -19.175  0.00  0.00    +0.000 C 
ATOM     21  C   UNL     1      33.926 -22.045 -19.206  0.00  0.00    +0.000 C 
ATOM     22  C   UNL     1      34.905 -21.255 -19.799  0.00  0.00    +0.000 C 
ENDBRANCH  10  13
ENDBRANCH   8  10
ENDBRANCH   1   8
BRANCH   1  23
ATOM     23  C   UNL     1      34.285 -23.657 -12.663  0.00  0.00    +0.053 C 
BRANCH  23  24
ATOM     24  C   UNL     1      33.077 -23.660 -13.538  0.00  0.00    -0.020 C 
ATOM     25  C   UNL     1      32.049 -24.575 -13.307  0.00  0.00    -0.004 C 
ATOM     26  C   UNL     1      30.906 -24.590 -14.121  0.00  0.00    -0.000 C 
ATOM     27  C   UNL     1      32.975 -22.749 -14.585  0.00  0.00    -0.004 C 
ATOM     28  C   UNL     1      30.803 -23.663 -15.186  0.00  0.00    -0.000 C 
ATOM     29  C   UNL     1      31.846 -22.750 -15.404  0.00  0.00    -0.000 C 
ATOM     30  C   UNL     1      29.863 -25.504 -13.902  0.00  0.00    -0.000 C 
ATOM     31  C   UNL     1      29.659 -23.678 -16.001  0.00  0.00    -0.000 C 
ATOM     32  C   UNL     1      28.733 -25.505 -14.722  0.00  0.00    -0.000 C 
ATOM     33  C   UNL     1      28.632 -24.594 -15.769  0.00  0.00    -0.000 C 
ENDBRANCH  23  24
ENDBRANCH   1  23
TORSDOF 7
ENDMDL
