MODEL 1
REMARK VINA RESULT:     -11.0      0.000      0.000
REMARK  Name = 5312137
REMARK  3 active torsions:
REMARK  status: ('A' for Active; 'I' for Inactive)
REMARK    1  A    between atoms: C_3  and  C_20
REMARK    2  A    between atoms: C_7  and  S_23
REMARK    3  A    between atoms: S_23  and  N_26
REMARK                            x       y       z     vdW  Elec       q    Type
REMARK                         _______ _______ _______ _____ _____    ______ ____
ROOT
ATOM      1  O   UNL     1      32.786 -20.676 -20.439  0.00  0.00    -0.270 OA
ATOM      2  N   UNL     1      32.614 -22.087 -18.552  0.00  0.00    -0.280 N 
ATOM      3  C   UNL     1      35.677 -20.633 -19.731  0.00  0.00    +0.019 C 
ATOM      4  C   UNL     1      34.700 -21.303 -19.073  0.00  0.00    +0.056 C 
ATOM      5  C   UNL     1      34.814 -22.146 -17.887  0.00  0.00    +0.019 C 
ATOM      6  C   UNL     1      33.520 -22.595 -17.614  0.00  0.00    +0.051 C 
ATOM      7  C   UNL     1      35.611 -23.366 -16.002  0.00  0.00    +0.122 C 
ATOM      8  C   UNL     1      35.876 -22.522 -17.087  0.00  0.00    +0.021 C 
ATOM      9  C   UNL     1      33.258 -21.276 -19.491  0.00  0.00    +0.250 C 
ATOM     10  C   UNL     1      33.235 -23.427 -16.549  0.00  0.00    +0.016 C 
ATOM     11  C   UNL     1      34.303 -23.813 -15.736  0.00  0.00    +0.021 C 
ATOM     12  H   UNL     1      31.647 -22.275 -18.550  0.00  0.00    +0.155 HD
ENDROOT
BRANCH   3  20
ATOM     13  N   UNL     1      35.399 -18.478 -20.701  0.00  0.00    -0.316 N 
ATOM     14  C   UNL     1      35.227 -17.886 -21.922  0.00  0.00    +0.021 C 
ATOM     15  C   UNL     1      35.207 -18.874 -22.886  0.00  0.00    -0.012 C 
ATOM     16  C   UNL     1      35.057 -16.428 -22.151  0.00  0.00    +0.041 C 
ATOM     17  C   UNL     1      35.051 -18.573 -24.335  0.00  0.00    +0.027 C 
ATOM     18  C   UNL     1      35.238 -16.115 -23.650  0.00  0.00    +0.006 C 
ATOM     19  C   UNL     1      34.522 -17.141 -24.551  0.00  0.00    +0.005 C 
ATOM     20  C   UNL     1      35.494 -19.836 -20.871  0.00  0.00    +0.048 C 
ATOM     21  C   UNL     1      35.380 -20.111 -22.218  0.00  0.00    +0.011 C 
ATOM     22  H   UNL     1      35.446 -18.004 -19.839  0.00  0.00    +0.152 HD
ENDBRANCH   3  20
BRANCH   7  23
ATOM     23  S   UNL     1      36.921 -23.870 -14.962  0.00  0.00    +0.063 S 
ATOM     24  O   UNL     1      37.023 -25.324 -15.034  0.00  0.00    -0.153 OA
ATOM     25  O   UNL     1      38.096 -23.072 -15.292  0.00  0.00    -0.153 OA
BRANCH  23  26
ATOM     26  N   UNL     1      36.370 -23.428 -13.382  0.00  0.00    -0.153 NA
ATOM     27  C   UNL     1      35.351 -24.299 -12.742  0.00  0.00    +0.115 C 
ATOM     28  C   UNL     1      37.384 -22.950 -12.409  0.00  0.00    +0.115 C 
ENDBRANCH  23  26
ENDBRANCH   7  23
TORSDOF 3
ENDMDL
MODEL 2
REMARK VINA RESULT:      -9.8      2.139      3.081
REMARK  Name = 5312137
REMARK  3 active torsions:
REMARK  status: ('A' for Active; 'I' for Inactive)
REMARK    1  A    between atoms: C_3  and  C_20
REMARK    2  A    between atoms: C_7  and  S_23
REMARK    3  A    between atoms: S_23  and  N_26
REMARK                            x       y       z     vdW  Elec       q    Type
REMARK                         _______ _______ _______ _____ _____    ______ ____
ROOT
ATOM      1  O   UNL     1      33.148 -22.088 -18.109  0.00  0.00    -0.270 OA
ATOM      2  N   UNL     1      32.981 -23.358 -16.125  0.00  0.00    -0.280 N 
ATOM      3  C   UNL     1      36.062 -22.137 -17.503  0.00  0.00    +0.019 C 
ATOM      4  C   UNL     1      35.080 -22.713 -16.768  0.00  0.00    +0.056 C 
ATOM      5  C   UNL     1      35.199 -23.479 -15.532  0.00  0.00    +0.019 C 
ATOM      6  C   UNL     1      33.896 -23.846 -15.185  0.00  0.00    +0.051 C 
ATOM      7  C   UNL     1      36.007 -24.607 -13.595  0.00  0.00    +0.122 C 
ATOM      8  C   UNL     1      36.271 -23.852 -14.744  0.00  0.00    +0.021 C 
ATOM      9  C   UNL     1      33.627 -22.645 -17.139  0.00  0.00    +0.250 C 
ATOM     10  C   UNL     1      33.613 -24.590 -14.057  0.00  0.00    +0.016 C 
ATOM     11  C   UNL     1      34.690 -24.972 -13.255  0.00  0.00    +0.021 C 
ATOM     12  H   UNL     1      32.007 -23.500 -16.078  0.00  0.00    +0.155 HD
ENDROOT
BRANCH   3  20
ATOM     13  N   UNL     1      36.857 -20.530 -19.069  0.00  0.00    -0.316 N 
ATOM     14  C   UNL     1      36.488 -19.930 -20.240  0.00  0.00    +0.021 C 
ATOM     15  C   UNL     1      35.255 -20.424 -20.615  0.00  0.00    -0.012 C 
ATOM     16  C   UNL     1      37.277 -18.895 -20.958  0.00  0.00    +0.041 C 
ATOM     17  C   UNL     1      34.565 -19.991 -21.860  0.00  0.00    +0.027 C 
ATOM     18  C   UNL     1      36.721 -18.716 -22.384  0.00  0.00    +0.006 C 
ATOM     19  C   UNL     1      35.180 -18.688 -22.411  0.00  0.00    +0.005 C 
ATOM     20  C   UNL     1      35.875 -21.411 -18.689  0.00  0.00    +0.048 C 
ATOM     21  C   UNL     1      34.869 -21.366 -19.631  0.00  0.00    +0.011 C 
ATOM     22  H   UNL     1      37.693 -20.358 -18.577  0.00  0.00    +0.152 HD
ENDBRANCH   3  20
BRANCH   7  23
ATOM     23  S   UNL     1      37.330 -25.104 -12.567  0.00  0.00    +0.063 S 
ATOM     24  O   UNL     1      38.226 -23.964 -12.399  0.00  0.00    -0.153 OA
ATOM     25  O   UNL     1      36.769 -25.730 -11.376  0.00  0.00    -0.153 OA
BRANCH  23  26
ATOM     26  N   UNL     1      38.136 -26.311 -13.508  0.00  0.00    -0.153 NA
ATOM     27  C   UNL     1      37.292 -27.229 -14.316  0.00  0.00    +0.115 C 
ATOM     28  C   UNL     1      39.369 -25.909 -14.231  0.00  0.00    +0.115 C 
ENDBRANCH  23  26
ENDBRANCH   7  23
TORSDOF 3
ENDMDL
MODEL 3
REMARK VINA RESULT:      -9.4      1.735      2.654
REMARK  Name = 5312137
REMARK  3 active torsions:
REMARK  status: ('A' for Active; 'I' for Inactive)
REMARK    1  A    between atoms: C_3  and  C_20
REMARK    2  A    between atoms: C_7  and  S_23
REMARK    3  A    between atoms: S_23  and  N_26
REMARK                            x       y       z     vdW  Elec       q    Type
REMARK                         _______ _______ _______ _____ _____    ______ ____
ROOT
ATOM      1  O   UNL     1      33.139 -21.992 -18.283  0.00  0.00    -0.270 OA
ATOM      2  N   UNL     1      32.985 -23.296 -16.319  0.00  0.00    -0.280 N 
ATOM      3  C   UNL     1      36.058 -22.059 -17.701  0.00  0.00    +0.019 C 
ATOM      4  C   UNL     1      35.080 -22.645 -16.968  0.00  0.00    +0.056 C 
ATOM      5  C   UNL     1      35.207 -23.433 -15.747  0.00  0.00    +0.019 C 
ATOM      6  C   UNL     1      33.906 -23.802 -15.395  0.00  0.00    +0.051 C 
ATOM      7  C   UNL     1      36.028 -24.596 -13.836  0.00  0.00    +0.122 C 
ATOM      8  C   UNL     1      36.285 -23.822 -14.974  0.00  0.00    +0.021 C 
ATOM      9  C   UNL     1      33.624 -22.567 -17.326  0.00  0.00    +0.250 C 
ATOM     10  C   UNL     1      33.631 -24.565 -14.278  0.00  0.00    +0.016 C 
ATOM     11  C   UNL     1      34.714 -24.963 -13.492  0.00  0.00    +0.021 C 
ATOM     12  H   UNL     1      32.011 -23.436 -16.266  0.00  0.00    +0.155 HD
ENDROOT
BRANCH   3  20
ATOM     13  N   UNL     1      36.851 -20.440 -19.256  0.00  0.00    -0.316 N 
ATOM     14  C   UNL     1      36.473 -19.817 -20.412  0.00  0.00    +0.021 C 
ATOM     15  C   UNL     1      35.227 -20.287 -20.774  0.00  0.00    -0.012 C 
ATOM     16  C   UNL     1      37.266 -18.783 -21.126  0.00  0.00    +0.041 C 
ATOM     17  C   UNL     1      34.524 -19.824 -22.001  0.00  0.00    +0.027 C 
ATOM     18  C   UNL     1      36.690 -18.574 -22.541  0.00  0.00    +0.006 C 
ATOM     19  C   UNL     1      35.149 -18.523 -22.542  0.00  0.00    +0.005 C 
ATOM     20  C   UNL     1      35.862 -21.312 -18.873  0.00  0.00    +0.048 C 
ATOM     21  C   UNL     1      34.842 -21.238 -19.799  0.00  0.00    +0.011 C 
ATOM     22  H   UNL     1      37.698 -20.288 -18.775  0.00  0.00    +0.152 HD
ENDBRANCH   3  20
BRANCH   7  23
ATOM     23  S   UNL     1      37.359 -25.113 -12.828  0.00  0.00    +0.063 S 
ATOM     24  O   UNL     1      37.191 -26.536 -12.551  0.00  0.00    -0.153 OA
ATOM     25  O   UNL     1      38.600 -24.666 -13.449  0.00  0.00    -0.153 OA
BRANCH  23  26
ATOM     26  N   UNL     1      37.116 -24.228 -11.361  0.00  0.00    -0.153 NA
ATOM     27  C   UNL     1      37.366 -22.764 -11.394  0.00  0.00    +0.115 C 
ATOM     28  C   UNL     1      35.927 -24.571 -10.541  0.00  0.00    +0.115 C 
ENDBRANCH  23  26
ENDBRANCH   7  23
TORSDOF 3
ENDMDL
MODEL 4
REMARK VINA RESULT:      -9.4      7.648     12.120
REMARK  Name = 5312137
REMARK  3 active torsions:
REMARK  status: ('A' for Active; 'I' for Inactive)
REMARK    1  A    between atoms: C_3  and  C_20
REMARK    2  A    between atoms: C_7  and  S_23
REMARK    3  A    between atoms: S_23  and  N_26
REMARK                            x       y       z     vdW  Elec       q    Type
REMARK                         _______ _______ _______ _____ _____    ______ ____
ROOT
ATOM      1  O   UNL     1      32.617 -15.042 -20.544  0.00  0.00    -0.270 OA
ATOM      2  N   UNL     1      31.710 -12.938 -19.967  0.00  0.00    -0.280 N 
ATOM      3  C   UNL     1      33.827 -13.530 -22.805  0.00  0.00    +0.019 C 
ATOM      4  C   UNL     1      33.029 -13.020 -21.835  0.00  0.00    +0.056 C 
ATOM      5  C   UNL     1      32.577 -11.645 -21.659  0.00  0.00    +0.019 C 
ATOM      6  C   UNL     1      31.779 -11.651 -20.511  0.00  0.00    +0.051 C 
ATOM      7  C   UNL     1      32.178  -9.308 -21.895  0.00  0.00    +0.122 C 
ATOM      8  C   UNL     1      32.787 -10.477 -22.366  0.00  0.00    +0.021 C 
ATOM      9  C   UNL     1      32.454 -13.849 -20.723  0.00  0.00    +0.250 C 
ATOM     10  C   UNL     1      31.169 -10.510 -20.029  0.00  0.00    +0.016 C 
ATOM     11  C   UNL     1      31.377  -9.325 -20.737  0.00  0.00    +0.021 C 
ATOM     12  H   UNL     1      31.202 -13.173 -19.156  0.00  0.00    +0.155 HD
ENDROOT
BRANCH   3  20
ATOM     13  N   UNL     1      34.838 -15.452 -21.832  0.00  0.00    -0.316 N 
ATOM     14  C   UNL     1      35.142 -16.750 -22.136  0.00  0.00    +0.021 C 
ATOM     15  C   UNL     1      34.726 -17.005 -23.427  0.00  0.00    -0.012 C 
ATOM     16  C   UNL     1      35.837 -17.702 -21.231  0.00  0.00    +0.041 C 
ATOM     17  C   UNL     1      34.891 -18.336 -24.073  0.00  0.00    +0.027 C 
ATOM     18  C   UNL     1      35.693 -19.136 -21.779  0.00  0.00    +0.006 C 
ATOM     19  C   UNL     1      35.908 -19.203 -23.304  0.00  0.00    +0.005 C 
ATOM     20  C   UNL     1      34.224 -14.871 -22.913  0.00  0.00    +0.048 C 
ATOM     21  C   UNL     1      34.140 -15.813 -23.918  0.00  0.00    +0.011 C 
ATOM     22  H   UNL     1      35.029 -15.007 -20.974  0.00  0.00    +0.152 HD
ENDBRANCH   3  20
BRANCH   7  23
ATOM     23  S   UNL     1      32.415  -7.805 -22.755  0.00  0.00    +0.063 S 
ATOM     24  O   UNL     1      33.849  -7.548 -22.833  0.00  0.00    -0.153 OA
ATOM     25  O   UNL     1      31.650  -7.867 -23.995  0.00  0.00    -0.153 OA
BRANCH  23  26
ATOM     26  N   UNL     1      31.693  -6.629 -21.711  0.00  0.00    -0.153 NA
ATOM     27  C   UNL     1      32.547  -6.040 -20.648  0.00  0.00    +0.115 C 
ATOM     28  C   UNL     1      30.797  -5.619 -22.329  0.00  0.00    +0.115 C 
ENDBRANCH  23  26
ENDBRANCH   7  23
TORSDOF 3
ENDMDL
MODEL 5
REMARK VINA RESULT:      -9.2     13.245     18.425
REMARK  Name = 5312137
REMARK  3 active torsions:
REMARK  status: ('A' for Active; 'I' for Inactive)
REMARK    1  A    between atoms: C_3  and  C_20
REMARK    2  A    between atoms: C_7  and  S_23
REMARK    3  A    between atoms: S_23  and  N_26
REMARK                            x       y       z     vdW  Elec       q    Type
REMARK                         _______ _______ _______ _____ _____    ______ ____
ROOT
ATOM      1  O   UNL     1      30.382  -5.758 -21.567  0.00  0.00    -0.270 OA
ATOM      2  N   UNL     1      30.404  -3.872 -22.989  0.00  0.00    -0.280 N 
ATOM      3  C   UNL     1      32.773  -6.564 -23.147  0.00  0.00    +0.019 C 
ATOM      4  C   UNL     1      32.041  -5.436 -23.318  0.00  0.00    +0.056 C 
ATOM      5  C   UNL     1      32.235  -4.365 -24.289  0.00  0.00    +0.019 C 
ATOM      6  C   UNL     1      31.214  -3.442 -24.046  0.00  0.00    +0.051 C 
ATOM      7  C   UNL     1      33.036  -2.978 -26.053  0.00  0.00    +0.122 C 
ATOM      8  C   UNL     1      33.158  -4.148 -25.294  0.00  0.00    +0.021 C 
ATOM      9  C   UNL     1      30.844  -5.097 -22.479  0.00  0.00    +0.250 C 
ATOM     10  C   UNL     1      31.075  -2.282 -24.782  0.00  0.00    +0.016 C 
ATOM     11  C   UNL     1      32.004  -2.054 -25.799  0.00  0.00    +0.021 C 
ATOM     12  H   UNL     1      29.625  -3.375 -22.648  0.00  0.00    +0.155 HD
ENDROOT
BRANCH   3  20
ATOM     13  N   UNL     1      31.823  -8.669 -22.572  0.00  0.00    -0.316 N 
ATOM     14  C   UNL     1      31.695  -9.509 -21.502  0.00  0.00    +0.021 C 
ATOM     15  C   UNL     1      32.320  -8.931 -20.415  0.00  0.00    -0.012 C 
ATOM     16  C   UNL     1      30.971 -10.807 -21.513  0.00  0.00    +0.041 C 
ATOM     17  C   UNL     1      32.383  -9.592 -19.083  0.00  0.00    +0.027 C 
ATOM     18  C   UNL     1      31.334 -11.613 -20.250  0.00  0.00    +0.006 C 
ATOM     19  C   UNL     1      31.354 -10.736 -18.983  0.00  0.00    +0.005 C 
ATOM     20  C   UNL     1      32.529  -7.557 -22.186  0.00  0.00    +0.048 C 
ATOM     21  C   UNL     1      32.852  -7.694 -20.852  0.00  0.00    +0.011 C 
ATOM     22  H   UNL     1      31.465  -8.835 -23.474  0.00  0.00    +0.152 HD
ENDBRANCH   3  20
BRANCH   7  23
ATOM     23  S   UNL     1      34.181  -2.658 -27.335  0.00  0.00    +0.063 S 
ATOM     24  O   UNL     1      33.465  -2.014 -28.431  0.00  0.00    -0.153 OA
ATOM     25  O   UNL     1      35.331  -1.974 -26.756  0.00  0.00    -0.153 OA
BRANCH  23  26
ATOM     26  N   UNL     1      34.666  -4.240 -27.839  0.00  0.00    -0.153 NA
ATOM     27  C   UNL     1      34.260  -4.682 -29.198  0.00  0.00    +0.115 C 
ATOM     28  C   UNL     1      36.045  -4.677 -27.501  0.00  0.00    +0.115 C 
ENDBRANCH  23  26
ENDBRANCH   7  23
TORSDOF 3
ENDMDL
MODEL 6
REMARK VINA RESULT:      -9.2      3.161      4.407
REMARK  Name = 5312137
REMARK  3 active torsions:
REMARK  status: ('A' for Active; 'I' for Inactive)
REMARK    1  A    between atoms: C_3  and  C_20
REMARK    2  A    between atoms: C_7  and  S_23
REMARK    3  A    between atoms: S_23  and  N_26
REMARK                            x       y       z     vdW  Elec       q    Type
REMARK                         _______ _______ _______ _____ _____    ______ ____
ROOT
ATOM      1  O   UNL     1      36.367 -21.832 -18.309  0.00  0.00    -0.270 OA
ATOM      2  N   UNL     1      35.850 -23.128 -16.404  0.00  0.00    -0.280 N 
ATOM      3  C   UNL     1      33.408 -21.671 -18.594  0.00  0.00    +0.019 C 
ATOM      4  C   UNL     1      34.086 -22.324 -17.619  0.00  0.00    +0.056 C 
ATOM      5  C   UNL     1      33.553 -23.090 -16.498  0.00  0.00    +0.019 C 
ATOM      6  C   UNL     1      34.666 -23.556 -15.792  0.00  0.00    +0.051 C 
ATOM      7  C   UNL     1      32.131 -24.174 -14.923  0.00  0.00    +0.122 C 
ATOM      8  C   UNL     1      32.273 -23.392 -16.075  0.00  0.00    +0.021 C 
ATOM      9  C   UNL     1      35.585 -22.361 -17.542  0.00  0.00    +0.250 C 
ATOM     10  C   UNL     1      34.550 -24.328 -14.654  0.00  0.00    +0.016 C 
ATOM     11  C   UNL     1      33.259 -24.638 -14.220  0.00  0.00    +0.021 C 
ATOM     12  H   UNL     1      36.754 -23.341 -16.075  0.00  0.00    +0.155 HD
ENDROOT
BRANCH   3  20
ATOM     13  N   UNL     1      35.271 -20.488 -19.487  0.00  0.00    -0.316 N 
ATOM     14  C   UNL     1      35.650 -19.819 -20.617  0.00  0.00    +0.021 C 
ATOM     15  C   UNL     1      34.601 -19.847 -21.513  0.00  0.00    -0.012 C 
ATOM     16  C   UNL     1      36.962 -19.150 -20.818  0.00  0.00    +0.041 C 
ATOM     17  C   UNL     1      34.684 -19.221 -22.861  0.00  0.00    +0.027 C 
ATOM     18  C   UNL     1      37.149 -18.814 -22.310  0.00  0.00    +0.006 C 
ATOM     19  C   UNL     1      35.868 -18.237 -22.944  0.00  0.00    +0.005 C 
ATOM     20  C   UNL     1      33.989 -20.950 -19.649  0.00  0.00    +0.048 C 
ATOM     21  C   UNL     1      33.549 -20.569 -20.899  0.00  0.00    +0.011 C 
ATOM     22  H   UNL     1      35.829 -20.616 -18.685  0.00  0.00    +0.152 HD
ENDBRANCH   3  20
BRANCH   7  23
ATOM     23  S   UNL     1      30.531 -24.582 -14.349  0.00  0.00    +0.063 S 
ATOM     24  O   UNL     1      30.302 -25.998 -14.615  0.00  0.00    -0.153 OA
ATOM     25  O   UNL     1      30.405 -24.101 -12.978  0.00  0.00    -0.153 OA
BRANCH  23  26
ATOM     26  N   UNL     1      29.492 -23.647 -15.368  0.00  0.00    -0.153 NA
ATOM     27  C   UNL     1      28.536 -24.384 -16.234  0.00  0.00    +0.115 C 
ATOM     28  C   UNL     1      28.888 -22.419 -14.792  0.00  0.00    +0.115 C 
ENDBRANCH  23  26
ENDBRANCH   7  23
TORSDOF 3
ENDMDL
MODEL 7
REMARK VINA RESULT:      -9.0      6.108      9.992
REMARK  Name = 5312137
REMARK  3 active torsions:
REMARK  status: ('A' for Active; 'I' for Inactive)
REMARK    1  A    between atoms: C_3  and  C_20
REMARK    2  A    between atoms: C_7  and  S_23
REMARK    3  A    between atoms: S_23  and  N_26
REMARK                            x       y       z     vdW  Elec       q    Type
REMARK                         _______ _______ _______ _____ _____    ______ ____
ROOT
ATOM      1  O   UNL     1      33.313 -11.770 -25.703  0.00  0.00    -0.270 OA
ATOM      2  N   UNL     1      33.763 -14.079 -25.910  0.00  0.00    -0.280 N 
ATOM      3  C   UNL     1      34.096 -12.209 -22.865  0.00  0.00    +0.019 C 
ATOM      4  C   UNL     1      34.063 -13.147 -23.842  0.00  0.00    +0.056 C 
ATOM      5  C   UNL     1      34.392 -14.566 -23.753  0.00  0.00    +0.019 C 
ATOM      6  C   UNL     1      34.193 -15.084 -25.035  0.00  0.00    +0.051 C 
ATOM      7  C   UNL     1      35.043 -16.732 -23.005  0.00  0.00    +0.122 C 
ATOM      8  C   UNL     1      34.818 -15.380 -22.721  0.00  0.00    +0.021 C 
ATOM      9  C   UNL     1      33.655 -12.849 -25.256  0.00  0.00    +0.250 C 
ATOM     10  C   UNL     1      34.409 -16.413 -25.337  0.00  0.00    +0.016 C 
ATOM     11  C   UNL     1      34.839 -17.243 -24.300  0.00  0.00    +0.021 C 
ATOM     12  H   UNL     1      33.563 -14.221 -26.864  0.00  0.00    +0.155 HD
ENDROOT
BRANCH   3  20
ATOM     13  N   UNL     1      34.734 -10.002 -23.486  0.00  0.00    -0.316 N 
ATOM     14  C   UNL     1      34.215  -8.740 -23.570  0.00  0.00    +0.021 C 
ATOM     15  C   UNL     1      32.900  -8.780 -23.151  0.00  0.00    -0.012 C 
ATOM     16  C   UNL     1      34.963  -7.532 -24.006  0.00  0.00    +0.041 C 
ATOM     17  C   UNL     1      32.030  -7.573 -23.132  0.00  0.00    +0.027 C 
ATOM     18  C   UNL     1      33.974  -6.387 -24.299  0.00  0.00    +0.006 C 
ATOM     19  C   UNL     1      32.869  -6.283 -23.230  0.00  0.00    +0.005 C 
ATOM     20  C   UNL     1      33.764 -10.855 -23.022  0.00  0.00    +0.048 C 
ATOM     21  C   UNL     1      32.614 -10.123 -22.808  0.00  0.00    +0.011 C 
ATOM     22  H   UNL     1      35.656 -10.257 -23.720  0.00  0.00    +0.152 HD
ENDBRANCH   3  20
BRANCH   7  23
ATOM     23  S   UNL     1      35.582 -17.802 -21.732  0.00  0.00    +0.063 S 
ATOM     24  O   UNL     1      36.974 -18.152 -21.994  0.00  0.00    -0.153 OA
ATOM     25  O   UNL     1      35.247 -17.190 -20.452  0.00  0.00    -0.153 OA
BRANCH  23  26
ATOM     26  N   UNL     1      34.602 -19.211 -21.952  0.00  0.00    -0.153 NA
ATOM     27  C   UNL     1      34.908 -20.085 -23.113  0.00  0.00    +0.115 C 
ATOM     28  C   UNL     1      34.245 -19.995 -20.743  0.00  0.00    +0.115 C 
ENDBRANCH  23  26
ENDBRANCH   7  23
TORSDOF 3
ENDMDL
MODEL 8
REMARK VINA RESULT:      -8.9      7.632     11.163
REMARK  Name = 5312137
REMARK  3 active torsions:
REMARK  status: ('A' for Active; 'I' for Inactive)
REMARK    1  A    between atoms: C_3  and  C_20
REMARK    2  A    between atoms: C_7  and  S_23
REMARK    3  A    between atoms: S_23  and  N_26
REMARK                            x       y       z     vdW  Elec       q    Type
REMARK                         _______ _______ _______ _____ _____    ______ ____
ROOT
ATOM      1  O   UNL     1      31.253 -10.397 -19.981  0.00  0.00    -0.270 OA
ATOM      2  N   UNL     1      31.837 -12.675 -19.756  0.00  0.00    -0.280 N 
ATOM      3  C   UNL     1      32.609 -10.651 -22.619  0.00  0.00    +0.019 C 
ATOM      4  C   UNL     1      32.460 -11.632 -21.696  0.00  0.00    +0.056 C 
ATOM      5  C   UNL     1      32.912 -13.017 -21.760  0.00  0.00    +0.019 C 
ATOM      6  C   UNL     1      32.509 -13.605 -20.558  0.00  0.00    +0.051 C 
ATOM      7  C   UNL     1      33.869 -15.095 -22.427  0.00  0.00    +0.122 C 
ATOM      8  C   UNL     1      33.597 -13.751 -22.709  0.00  0.00    +0.021 C 
ATOM      9  C   UNL     1      31.761 -11.427 -20.382  0.00  0.00    +0.250 C 
ATOM     10  C   UNL     1      32.766 -14.928 -20.259  0.00  0.00    +0.016 C 
ATOM     11  C   UNL     1      33.458 -15.677 -21.213  0.00  0.00    +0.021 C 
ATOM     12  H   UNL     1      31.466 -12.873 -18.866  0.00  0.00    +0.155 HD
ENDROOT
BRANCH   3  20
ATOM     13  N   UNL     1      32.717  -8.538 -21.528  0.00  0.00    -0.316 N 
ATOM     14  C   UNL     1      32.133  -7.302 -21.566  0.00  0.00    +0.021 C 
ATOM     15  C   UNL     1      31.175  -7.302 -22.558  0.00  0.00    -0.012 C 
ATOM     16  C   UNL     1      32.463  -6.171 -20.660  0.00  0.00    +0.041 C 
ATOM     17  C   UNL     1      30.356  -6.102 -22.880  0.00  0.00    +0.027 C 
ATOM     18  C   UNL     1      31.863  -4.867 -21.221  0.00  0.00    +0.006 C 
ATOM     19  C   UNL     1      30.426  -5.062 -21.743  0.00  0.00    +0.005 C 
ATOM     20  C   UNL     1      32.145  -9.332 -22.490  0.00  0.00    +0.048 C 
ATOM     21  C   UNL     1      31.186  -8.590 -23.147  0.00  0.00    +0.011 C 
ATOM     22  H   UNL     1      33.431  -8.813 -20.908  0.00  0.00    +0.152 HD
ENDBRANCH   3  20
BRANCH   7  23
ATOM     23  S   UNL     1      34.732 -16.064 -23.598  0.00  0.00    +0.063 S 
ATOM     24  O   UNL     1      33.882 -16.217 -24.774  0.00  0.00    -0.153 OA
ATOM     25  O   UNL     1      36.062 -15.492 -23.769  0.00  0.00    -0.153 OA
BRANCH  23  26
ATOM     26  N   UNL     1      34.879 -17.599 -22.814  0.00  0.00    -0.153 NA
ATOM     27  C   UNL     1      34.646 -18.815 -23.634  0.00  0.00    +0.115 C 
ATOM     28  C   UNL     1      36.004 -17.779 -21.860  0.00  0.00    +0.115 C 
ENDBRANCH  23  26
ENDBRANCH   7  23
TORSDOF 3
ENDMDL
MODEL 9
REMARK VINA RESULT:      -8.3      5.192      8.558
REMARK  Name = 5312137
REMARK  3 active torsions:
REMARK  status: ('A' for Active; 'I' for Inactive)
REMARK    1  A    between atoms: C_3  and  C_20
REMARK    2  A    between atoms: C_7  and  S_23
REMARK    3  A    between atoms: S_23  and  N_26
REMARK                            x       y       z     vdW  Elec       q    Type
REMARK                         _______ _______ _______ _____ _____    ______ ____
ROOT
ATOM      1  O   UNL     1      32.938 -13.383 -24.889  0.00  0.00    -0.270 OA
ATOM      2  N   UNL     1      33.797 -15.570 -25.137  0.00  0.00    -0.280 N 
ATOM      3  C   UNL     1      33.981 -13.645 -22.114  0.00  0.00    +0.019 C 
ATOM      4  C   UNL     1      34.057 -14.581 -23.091  0.00  0.00    +0.056 C 
ATOM      5  C   UNL     1      34.651 -15.912 -23.030  0.00  0.00    +0.019 C 
ATOM      6  C   UNL     1      34.465 -16.469 -24.298  0.00  0.00    +0.051 C 
ATOM      7  C   UNL     1      35.744 -17.912 -22.338  0.00  0.00    +0.122 C 
ATOM      8  C   UNL     1      35.291 -16.624 -22.034  0.00  0.00    +0.021 C 
ATOM      9  C   UNL     1      33.505 -14.376 -24.472  0.00  0.00    +0.250 C 
ATOM     10  C   UNL     1      34.904 -17.737 -24.620  0.00  0.00    +0.016 C 
ATOM     11  C   UNL     1      35.552 -18.464 -23.619  0.00  0.00    +0.021 C 
ATOM     12  H   UNL     1      33.562 -15.755 -26.076  0.00  0.00    +0.155 HD
ENDROOT
BRANCH   3  20
ATOM     13  N   UNL     1      34.077 -11.414 -22.939  0.00  0.00    -0.316 N 
ATOM     14  C   UNL     1      33.340 -10.263 -22.951  0.00  0.00    +0.021 C 
ATOM     15  C   UNL     1      32.171 -10.486 -22.251  0.00  0.00    -0.012 C 
ATOM     16  C   UNL     1      33.756  -8.985 -23.585  0.00  0.00    +0.041 C 
ATOM     17  C   UNL     1      31.128  -9.438 -22.083  0.00  0.00    +0.027 C 
ATOM     18  C   UNL     1      32.543  -8.041 -23.693  0.00  0.00    +0.006 C 
ATOM     19  C   UNL     1      31.688  -8.039 -22.410  0.00  0.00    +0.005 C 
ATOM     20  C   UNL     1      33.392 -12.377 -22.242  0.00  0.00    +0.048 C 
ATOM     21  C   UNL     1      32.204 -11.829 -21.805  0.00  0.00    +0.011 C 
ATOM     22  H   UNL     1      34.959 -11.532 -23.362  0.00  0.00    +0.152 HD
ENDBRANCH   3  20
BRANCH   7  23
ATOM     23  S   UNL     1      36.560 -18.852 -21.110  0.00  0.00    +0.063 S 
ATOM     24  O   UNL     1      37.814 -19.342 -21.672  0.00  0.00    -0.153 OA
ATOM     25  O   UNL     1      36.607 -18.058 -19.888  0.00  0.00    -0.153 OA
BRANCH  23  26
ATOM     26  N   UNL     1      35.497 -20.195 -20.864  0.00  0.00    -0.153 NA
ATOM     27  C   UNL     1      35.919 -21.235 -19.891  0.00  0.00    +0.115 C 
ATOM     28  C   UNL     1      34.041 -19.913 -20.780  0.00  0.00    +0.115 C 
ENDBRANCH  23  26
ENDBRANCH   7  23
TORSDOF 3
ENDMDL
