MODEL 1
REMARK VINA RESULT:     -12.9      0.000      0.000
REMARK  Name = 23656870
REMARK  4 active torsions:
REMARK  status: ('A' for Active; 'I' for Inactive)
REMARK    1  A    between atoms: N_2  and  C_25
REMARK    2  A    between atoms: N_3  and  C_14
REMARK    3  A    between atoms: C_10  and  C_32
REMARK    4  A    between atoms: C_16  and  N_21
REMARK                            x       y       z     vdW  Elec       q    Type
REMARK                         _______ _______ _______ _____ _____    ______ ____
ROOT
ATOM      1  N   UNL     1      32.097 -23.385 -14.803  0.00  0.00    -0.123 N 
ATOM      2  N   UNL     1      34.363 -23.889 -14.373  0.00  0.00    -0.274 N 
ATOM      3  N   UNL     1      32.883 -22.290 -18.573  0.00  0.00    -0.238 N 
ATOM      4  N   UNL     1      33.628 -23.089 -16.479  0.00  0.00    -0.295 NA
ATOM      5  N   UNL     1      31.326 -22.590 -16.879  0.00  0.00    -0.314 NA
ATOM      6  N   UNL     1      31.718 -23.727 -13.558  0.00  0.00    -0.170 NA
ATOM      7  C   UNL     1      33.407 -23.451 -15.249  0.00  0.00    +0.279 C 
ATOM      8  C   UNL     1      31.075 -22.963 -15.604  0.00  0.00    +0.219 C 
ATOM      9  C   UNL     1      32.575 -22.660 -17.285  0.00  0.00    +0.207 C 
ATOM     10  C   UNL     1      29.943 -23.035 -14.824  0.00  0.00    +0.203 C 
ATOM     11  C   UNL     1      30.400 -23.511 -13.577  0.00  0.00    +0.116 C 
ATOM     12  H   UNL     1      34.045 -24.129 -13.473  0.00  0.00    +0.156 HD
ATOM     13  H   UNL     1      32.175 -22.430 -19.242  0.00  0.00    +0.166 HD
ENDROOT
BRANCH   3  14
ATOM     14  C   UNL     1      34.073 -21.744 -19.048  0.00  0.00    +0.060 C 
ATOM     15  C   UNL     1      34.049 -20.832 -20.104  0.00  0.00    +0.030 C 
ATOM     16  C   UNL     1      35.240 -20.284 -20.578  0.00  0.00    +0.052 C 
ATOM     17  C   UNL     1      35.288 -22.106 -18.467  0.00  0.00    +0.015 C 
ATOM     18  C   UNL     1      36.455 -20.646 -19.998  0.00  0.00    +0.015 C 
ATOM     19  C   UNL     1      36.480 -21.557 -18.941  0.00  0.00    +0.003 C 
BRANCH  16  21
ATOM     20  O   UNL     1      35.344 -17.275 -20.571  0.00  0.00    -0.275 OA
ATOM     21  N   UNL     1      35.218 -19.374 -21.636  0.00  0.00    -0.284 N 
ATOM     22  C   UNL     1      35.267 -17.975 -21.575  0.00  0.00    +0.227 C 
ATOM     23  C   UNL     1      35.219 -17.353 -22.948  0.00  0.00    +0.095 C 
ATOM     24  H   UNL     1      35.159 -19.764 -22.539  0.00  0.00    +0.155 HD
ENDBRANCH  16  21
ENDBRANCH   3  14
BRANCH   2  25
ATOM     25  C   UNL     1      35.735 -24.039 -14.593  0.00  0.00    +0.051 C 
ATOM     26  C   UNL     1      36.490 -22.961 -15.053  0.00  0.00    +0.015 C 
ATOM     27  C   UNL     1      36.350 -25.269 -14.353  0.00  0.00    +0.015 C 
ATOM     28  C   UNL     1      37.860 -23.111 -15.273  0.00  0.00    +0.001 C 
ATOM     29  C   UNL     1      37.719 -25.418 -14.572  0.00  0.00    +0.001 C 
ATOM     30  C   UNL     1      38.474 -24.340 -15.032  0.00  0.00    +0.000 C 
ENDBRANCH   2  25
BRANCH  10  32
ATOM     31  N   UNL     1      27.538 -22.422 -15.529  0.00  0.00    -0.195 NA
ATOM     32  C   UNL     1      28.620 -22.698 -15.212  0.00  0.00    +0.087 C 
ENDBRANCH  10  32
TORSDOF 4
ENDMDL
MODEL 2
REMARK VINA RESULT:     -10.2      2.823      7.353
REMARK  Name = 23656870
REMARK  4 active torsions:
REMARK  status: ('A' for Active; 'I' for Inactive)
REMARK    1  A    between atoms: N_2  and  C_25
REMARK    2  A    between atoms: N_3  and  C_14
REMARK    3  A    between atoms: C_10  and  C_32
REMARK    4  A    between atoms: C_16  and  N_21
REMARK                            x       y       z     vdW  Elec       q    Type
REMARK                         _______ _______ _______ _____ _____    ______ ____
ROOT
ATOM      1  N   UNL     1      33.555 -21.628 -18.583  0.00  0.00    -0.123 N 
ATOM      2  N   UNL     1      32.211 -22.766 -17.011  0.00  0.00    -0.274 N 
ATOM      3  N   UNL     1      36.937 -22.949 -16.897  0.00  0.00    -0.238 N 
ATOM      4  N   UNL     1      34.578 -22.862 -16.950  0.00  0.00    -0.295 NA
ATOM      5  N   UNL     1      35.907 -21.698 -18.557  0.00  0.00    -0.314 NA
ATOM      6  N   UNL     1      32.487 -21.126 -19.229  0.00  0.00    -0.170 NA
ATOM      7  C   UNL     1      33.460 -22.450 -17.472  0.00  0.00    +0.279 C 
ATOM      8  C   UNL     1      34.757 -21.259 -19.117  0.00  0.00    +0.219 C 
ATOM      9  C   UNL     1      35.797 -22.477 -17.504  0.00  0.00    +0.207 C 
ATOM     10  C   UNL     1      34.451 -20.457 -20.192  0.00  0.00    +0.203 C 
ATOM     11  C   UNL     1      33.042 -20.410 -20.212  0.00  0.00    +0.116 C 
ATOM     12  H   UNL     1      31.457 -22.378 -17.512  0.00  0.00    +0.156 HD
ATOM     13  H   UNL     1      37.716 -23.080 -17.485  0.00  0.00    +0.166 HD
ENDROOT
BRANCH   3  14
ATOM     14  C   UNL     1      37.127 -23.266 -15.554  0.00  0.00    +0.060 C 
ATOM     15  C   UNL     1      38.123 -24.170 -15.184  0.00  0.00    +0.030 C 
ATOM     16  C   UNL     1      38.314 -24.485 -13.839  0.00  0.00    +0.052 C 
ATOM     17  C   UNL     1      36.322 -22.677 -14.578  0.00  0.00    +0.015 C 
ATOM     18  C   UNL     1      37.509 -23.897 -12.864  0.00  0.00    +0.015 C 
ATOM     19  C   UNL     1      36.513 -22.993 -13.233  0.00  0.00    +0.003 C 
BRANCH  16  21
ATOM     20  O   UNL     1      40.484 -25.781 -15.474  0.00  0.00    -0.275 OA
ATOM     21  N   UNL     1      39.308 -25.390 -13.469  0.00  0.00    -0.284 N 
ATOM     22  C   UNL     1      40.299 -25.967 -14.276  0.00  0.00    +0.227 C 
ATOM     23  C   UNL     1      41.187 -26.900 -13.492  0.00  0.00    +0.095 C 
ATOM     24  H   UNL     1      39.317 -25.659 -12.521  0.00  0.00    +0.155 HD
ENDBRANCH  16  21
ENDBRANCH   3  14
BRANCH   2  25
ATOM     25  C   UNL     1      31.869 -23.570 -15.921  0.00  0.00    +0.051 C 
ATOM     26  C   UNL     1      32.805 -23.822 -14.919  0.00  0.00    +0.015 C 
ATOM     27  C   UNL     1      30.590 -24.120 -15.833  0.00  0.00    +0.015 C 
ATOM     28  C   UNL     1      32.465 -24.624 -13.830  0.00  0.00    +0.001 C 
ATOM     29  C   UNL     1      30.248 -24.921 -14.743  0.00  0.00    +0.001 C 
ATOM     30  C   UNL     1      31.185 -25.174 -13.742  0.00  0.00    +0.000 C 
ENDBRANCH   2  25
BRANCH  10  32
ATOM     31  N   UNL     1      36.121 -19.308 -21.789  0.00  0.00    -0.195 NA
ATOM     32  C   UNL     1      35.370 -19.825 -21.071  0.00  0.00    +0.087 C 
ENDBRANCH  10  32
TORSDOF 4
ENDMDL
