MODEL 1
REMARK VINA RESULT:     -12.4      0.000      0.000
REMARK  Name = 3815
REMARK  0 active torsions:
REMARK  status: ('A' for Active; 'I' for Inactive)
REMARK                            x       y       z     vdW  Elec       q    Type
REMARK                         _______ _______ _______ _____ _____    ______ ____
ROOT
ATOM      1  O   UNL     1      31.209 -22.696 -16.841  0.00  0.00    -0.270 OA
ATOM      2  N   UNL     1      37.552 -23.610 -15.451  0.00  0.00    -0.352 N 
ATOM      3  N   UNL     1      36.607 -22.265 -17.703  0.00  0.00    -0.352 N 
ATOM      4  N   UNL     1      31.564 -23.882 -14.847  0.00  0.00    -0.297 N 
ATOM      5  C   UNL     1      33.847 -23.885 -14.896  0.00  0.00    +0.003 A 
ATOM      6  C   UNL     1      35.233 -23.976 -14.775  0.00  0.00    +0.016 A 
ATOM      7  C   UNL     1      34.326 -22.691 -16.927  0.00  0.00    +0.022 A 
ATOM      8  C   UNL     1      36.225 -23.462 -15.670  0.00  0.00    +0.072 A 
ATOM      9  C   UNL     1      33.390 -23.207 -16.031  0.00  0.00    +0.053 A 
ATOM     10  C   UNL     1      35.751 -22.788 -16.798  0.00  0.00    +0.073 A 
ATOM     11  C   UNL     1      32.696 -24.356 -14.073  0.00  0.00    +0.117 C 
ATOM     12  C   UNL     1      36.194 -24.551 -13.828  0.00  0.00    +0.017 A 
ATOM     13  C   UNL     1      34.364 -21.943 -18.194  0.00  0.00    +0.017 A 
ATOM     14  C   UNL     1      37.542 -24.318 -14.256  0.00  0.00    +0.057 A 
ATOM     15  C   UNL     1      35.719 -21.715 -18.614  0.00  0.00    +0.057 A 
ATOM     16  C   UNL     1      31.932 -23.201 -16.005  0.00  0.00    +0.246 C 
ATOM     17  C   UNL     1      36.002 -25.263 -12.620  0.00  0.00    +0.001 C 
ATOM     18  C   UNL     1      33.338 -21.436 -19.027  0.00  0.00    +0.001 C 
ATOM     19  C   UNL     1      38.638 -24.774 -13.511  0.00  0.00    +0.017 C 
ATOM     20  C   UNL     1      36.019 -21.021 -19.797  0.00  0.00    +0.017 C 
ATOM     21  C   UNL     1      37.102 -25.714 -11.885  0.00  0.00    +0.000 C 
ATOM     22  C   UNL     1      33.648 -20.747 -20.204  0.00  0.00    +0.000 C 
ATOM     23  C   UNL     1      38.398 -25.473 -12.325  0.00  0.00    +0.001 C 
ATOM     24  C   UNL     1      34.969 -20.543 -20.581  0.00  0.00    +0.001 C 
ATOM     25  H   UNL     1      38.316 -23.303 -15.991  0.00  0.00    +0.166 HD
ATOM     26  H   UNL     1      37.591 -22.272 -17.713  0.00  0.00    +0.166 HD
ATOM     27  H   UNL     1      30.627 -24.026 -14.580  0.00  0.00    +0.150 HD
ENDROOT
TORSDOF 0
ENDMDL
MODEL 2
REMARK VINA RESULT:     -12.2      0.952      5.963
REMARK  Name = 3815
REMARK  0 active torsions:
REMARK  status: ('A' for Active; 'I' for Inactive)
REMARK                            x       y       z     vdW  Elec       q    Type
REMARK                         _______ _______ _______ _____ _____    ______ ____
ROOT
ATOM      1  O   UNL     1      32.737 -24.935 -13.174  0.00  0.00    -0.270 OA
ATOM      2  N   UNL     1      36.451 -22.230 -17.853  0.00  0.00    -0.352 N 
ATOM      3  N   UNL     1      37.449 -23.599 -15.639  0.00  0.00    -0.352 N 
ATOM      4  N   UNL     1      31.490 -23.877 -14.857  0.00  0.00    -0.297 N 
ATOM      5  C   UNL     1      33.244 -23.164 -16.133  0.00  0.00    +0.003 A 
ATOM      6  C   UNL     1      34.194 -22.660 -17.020  0.00  0.00    +0.016 A 
ATOM      7  C   UNL     1      35.145 -23.969 -14.903  0.00  0.00    +0.022 A 
ATOM      8  C   UNL     1      35.619 -22.762 -16.927  0.00  0.00    +0.072 A 
ATOM      9  C   UNL     1      33.762 -23.848 -15.029  0.00  0.00    +0.053 A 
ATOM     10  C   UNL     1      36.119 -23.448 -15.818  0.00  0.00    +0.073 A 
ATOM     11  C   UNL     1      31.753 -23.146 -16.082  0.00  0.00    +0.117 C 
ATOM     12  C   UNL     1      34.197 -21.901 -18.276  0.00  0.00    +0.017 A 
ATOM     13  C   UNL     1      36.135 -24.554 -13.984  0.00  0.00    +0.017 A 
ATOM     14  C   UNL     1      35.536 -21.668 -18.733  0.00  0.00    +0.057 A 
ATOM     15  C   UNL     1      37.473 -24.315 -14.452  0.00  0.00    +0.057 A 
ATOM     16  C   UNL     1      32.646 -24.306 -14.209  0.00  0.00    +0.246 C 
ATOM     17  C   UNL     1      33.136 -21.392 -19.061  0.00  0.00    +0.001 C 
ATOM     18  C   UNL     1      35.996 -25.279 -12.776  0.00  0.00    +0.001 C 
ATOM     19  C   UNL     1      35.794 -20.962 -19.917  0.00  0.00    +0.017 C 
ATOM     20  C   UNL     1      38.595 -24.776 -13.747  0.00  0.00    +0.017 C 
ATOM     21  C   UNL     1      33.405 -20.689 -20.240  0.00  0.00    +0.000 C 
ATOM     22  C   UNL     1      37.121 -25.733 -12.081  0.00  0.00    +0.000 C 
ATOM     23  C   UNL     1      34.714 -20.479 -20.658  0.00  0.00    +0.001 C 
ATOM     24  C   UNL     1      38.401 -25.484 -12.561  0.00  0.00    +0.001 C 
ATOM     25  H   UNL     1      37.434 -22.239 -17.892  0.00  0.00    +0.166 HD
ATOM     26  H   UNL     1      38.197 -23.287 -16.197  0.00  0.00    +0.166 HD
ATOM     27  H   UNL     1      30.583 -24.053 -14.516  0.00  0.00    +0.150 HD
ENDROOT
TORSDOF 0
ENDMDL
MODEL 3
REMARK VINA RESULT:     -12.1      2.191      4.681
REMARK  Name = 3815
REMARK  0 active torsions:
REMARK  status: ('A' for Active; 'I' for Inactive)
REMARK                            x       y       z     vdW  Elec       q    Type
REMARK                         _______ _______ _______ _____ _____    ______ ____
ROOT
ATOM      1  O   UNL     1      37.684 -22.645 -16.318  0.00  0.00    -0.270 OA
ATOM      2  N   UNL     1      31.167 -23.099 -16.897  0.00  0.00    -0.352 N 
ATOM      3  N   UNL     1      32.832 -21.831 -18.740  0.00  0.00    -0.352 N 
ATOM      4  N   UNL     1      36.669 -23.794 -14.541  0.00  0.00    -0.297 N 
ATOM      5  C   UNL     1      34.510 -23.635 -15.269  0.00  0.00    +0.003 A 
ATOM      6  C   UNL     1      33.148 -23.628 -15.568  0.00  0.00    +0.016 A 
ATOM      7  C   UNL     1      34.742 -22.417 -17.328  0.00  0.00    +0.022 A 
ATOM      8  C   UNL     1      32.506 -23.046 -16.708  0.00  0.00    +0.072 A 
ATOM      9  C   UNL     1      35.330 -22.996 -16.204  0.00  0.00    +0.053 A 
ATOM     10  C   UNL     1      33.341 -22.411 -17.631  0.00  0.00    +0.073 A 
ATOM     11  C   UNL     1      35.327 -24.184 -14.148  0.00  0.00    +0.117 C 
ATOM     12  C   UNL     1      31.911 -24.128 -14.960  0.00  0.00    +0.017 A 
ATOM     13  C   UNL     1      35.136 -21.670 -18.534  0.00  0.00    +0.017 A 
ATOM     14  C   UNL     1      30.771 -23.800 -15.766  0.00  0.00    +0.057 A 
ATOM     15  C   UNL     1      33.987 -21.346 -19.334  0.00  0.00    +0.057 A 
ATOM     16  C   UNL     1      36.711 -23.094 -15.744  0.00  0.00    +0.246 C 
ATOM     17  C   UNL     1      31.684 -24.848 -13.763  0.00  0.00    +0.001 C 
ATOM     18  C   UNL     1      36.396 -21.240 -19.013  0.00  0.00    +0.001 C 
ATOM     19  C   UNL     1      29.474 -24.175 -15.389  0.00  0.00    +0.017 C 
ATOM     20  C   UNL     1      34.102 -20.634 -20.537  0.00  0.00    +0.017 C 
ATOM     21  C   UNL     1      30.385 -25.216 -13.397  0.00  0.00    +0.000 C 
ATOM     22  C   UNL     1      36.500 -20.530 -20.214  0.00  0.00    +0.000 C 
ATOM     23  C   UNL     1      29.300 -24.884 -14.199  0.00  0.00    +0.001 C 
ATOM     24  C   UNL     1      35.369 -20.233 -20.964  0.00  0.00    +0.001 C 
ATOM     25  H   UNL     1      30.623 -22.738 -17.634  0.00  0.00    +0.166 HD
ATOM     26  H   UNL     1      31.898 -21.769 -19.044  0.00  0.00    +0.166 HD
ATOM     27  H   UNL     1      37.471 -24.004 -14.010  0.00  0.00    +0.150 HD
ENDROOT
TORSDOF 0
ENDMDL
MODEL 4
REMARK VINA RESULT:     -12.0      2.097      6.396
REMARK  Name = 3815
REMARK  0 active torsions:
REMARK  status: ('A' for Active; 'I' for Inactive)
REMARK                            x       y       z     vdW  Elec       q    Type
REMARK                         _______ _______ _______ _____ _____    ______ ____
ROOT
ATOM      1  O   UNL     1      34.970 -24.740 -13.328  0.00  0.00    -0.270 OA
ATOM      2  N   UNL     1      32.816 -21.795 -18.777  0.00  0.00    -0.352 N 
ATOM      3  N   UNL     1      31.176 -23.073 -16.919  0.00  0.00    -0.352 N 
ATOM      4  N   UNL     1      36.688 -23.791 -14.615  0.00  0.00    -0.297 N 
ATOM      5  C   UNL     1      35.385 -22.956 -16.294  0.00  0.00    +0.003 A 
ATOM      6  C   UNL     1      34.739 -22.386 -17.390  0.00  0.00    +0.016 A 
ATOM      7  C   UNL     1      33.174 -23.609 -15.612  0.00  0.00    +0.022 A 
ATOM      8  C   UNL     1      33.336 -22.382 -17.674  0.00  0.00    +0.072 A 
ATOM      9  C   UNL     1      34.548 -23.591 -15.372  0.00  0.00    +0.053 A 
ATOM     10  C   UNL     1      32.515 -23.022 -16.743  0.00  0.00    +0.073 A 
ATOM     11  C   UNL     1      36.808 -23.049 -15.856  0.00  0.00    +0.117 C 
ATOM     12  C   UNL     1      35.119 -21.638 -18.593  0.00  0.00    +0.017 A 
ATOM     13  C   UNL     1      31.939 -24.115 -14.993  0.00  0.00    +0.017 A 
ATOM     14  C   UNL     1      33.967 -21.309 -19.381  0.00  0.00    +0.057 A 
ATOM     15  C   UNL     1      30.791 -23.780 -15.790  0.00  0.00    +0.057 A 
ATOM     16  C   UNL     1      35.374 -24.127 -14.297  0.00  0.00    +0.246 C 
ATOM     17  C   UNL     1      36.384 -21.215 -19.069  0.00  0.00    +0.001 C 
ATOM     18  C   UNL     1      31.705 -24.841 -13.800  0.00  0.00    +0.001 C 
ATOM     19  C   UNL     1      34.080 -20.593 -20.581  0.00  0.00    +0.017 C 
ATOM     20  C   UNL     1      29.493 -24.154 -15.410  0.00  0.00    +0.017 C 
ATOM     21  C   UNL     1      36.483 -20.501 -20.267  0.00  0.00    +0.000 C 
ATOM     22  C   UNL     1      30.407 -25.209 -13.431  0.00  0.00    +0.000 C 
ATOM     23  C   UNL     1      35.349 -20.197 -21.009  0.00  0.00    +0.001 C 
ATOM     24  C   UNL     1      29.319 -24.869 -14.225  0.00  0.00    +0.001 C 
ATOM     25  H   UNL     1      31.878 -21.731 -19.071  0.00  0.00    +0.166 HD
ATOM     26  H   UNL     1      30.624 -22.708 -17.648  0.00  0.00    +0.166 HD
ATOM     27  H   UNL     1      37.459 -24.032 -14.052  0.00  0.00    +0.150 HD
ENDROOT
TORSDOF 0
ENDMDL
MODEL 5
REMARK VINA RESULT:     -11.1      8.018     12.175
REMARK  Name = 3815
REMARK  0 active torsions:
REMARK  status: ('A' for Active; 'I' for Inactive)
REMARK                            x       y       z     vdW  Elec       q    Type
REMARK                         _______ _______ _______ _____ _____    ______ ____
ROOT
ATOM      1  O   UNL     1      34.608 -16.108 -26.024  0.00  0.00    -0.270 OA
ATOM      2  N   UNL     1      33.047 -13.808 -20.084  0.00  0.00    -0.352 N 
ATOM      3  N   UNL     1      34.408 -16.197 -20.544  0.00  0.00    -0.352 N 
ATOM      4  N   UNL     1      33.461 -14.062 -26.089  0.00  0.00    -0.297 N 
ATOM      5  C   UNL     1      33.203 -13.784 -23.838  0.00  0.00    +0.003 A 
ATOM      6  C   UNL     1      32.964 -13.464 -22.502  0.00  0.00    +0.016 A 
ATOM      7  C   UNL     1      34.265 -15.747 -22.945  0.00  0.00    +0.022 A 
ATOM      8  C   UNL     1      33.333 -14.217 -21.342  0.00  0.00    +0.072 A 
ATOM      9  C   UNL     1      33.887 -14.984 -24.050  0.00  0.00    +0.053 A 
ATOM     10  C   UNL     1      34.015 -15.414 -21.573  0.00  0.00    +0.073 A 
ATOM     11  C   UNL     1      32.892 -13.124 -25.139  0.00  0.00    +0.117 C 
ATOM     12  C   UNL     1      32.320 -12.378 -21.755  0.00  0.00    +0.017 A 
ATOM     13  C   UNL     1      34.958 -17.010 -22.645  0.00  0.00    +0.017 A 
ATOM     14  C   UNL     1      32.387 -12.613 -20.342  0.00  0.00    +0.057 A 
ATOM     15  C   UNL     1      35.021 -17.237 -21.227  0.00  0.00    +0.057 A 
ATOM     16  C   UNL     1      34.055 -15.168 -25.487  0.00  0.00    +0.246 C 
ATOM     17  C   UNL     1      31.676 -11.196 -22.194  0.00  0.00    +0.001 C 
ATOM     18  C   UNL     1      35.546 -17.991 -23.480  0.00  0.00    +0.001 C 
ATOM     19  C   UNL     1      31.839 -11.710 -19.421  0.00  0.00    +0.017 C 
ATOM     20  C   UNL     1      35.634 -18.377 -20.688  0.00  0.00    +0.017 C 
ATOM     21  C   UNL     1      31.132 -10.303 -21.266  0.00  0.00    +0.000 C 
ATOM     22  C   UNL     1      36.155 -19.125 -22.931  0.00  0.00    +0.000 C 
ATOM     23  C   UNL     1      31.213 -10.558 -19.903  0.00  0.00    +0.001 C 
ATOM     24  C   UNL     1      36.198 -19.313 -21.556  0.00  0.00    +0.001 C 
ATOM     25  H   UNL     1      33.249 -14.238 -19.222  0.00  0.00    +0.166 HD
ATOM     26  H   UNL     1      34.291 -16.066 -19.576  0.00  0.00    +0.166 HD
ATOM     27  H   UNL     1      33.430 -13.929 -27.064  0.00  0.00    +0.150 HD
ENDROOT
TORSDOF 0
ENDMDL
MODEL 6
REMARK VINA RESULT:     -10.9      1.725      4.477
REMARK  Name = 3815
REMARK  0 active torsions:
REMARK  status: ('A' for Active; 'I' for Inactive)
REMARK                            x       y       z     vdW  Elec       q    Type
REMARK                         _______ _______ _______ _____ _____    ______ ____
ROOT
ATOM      1  O   UNL     1      32.708 -22.038 -18.463  0.00  0.00    -0.270 OA
ATOM      2  N   UNL     1      34.405 -24.851 -12.787  0.00  0.00    -0.352 N 
ATOM      3  N   UNL     1      31.777 -24.431 -13.618  0.00  0.00    -0.352 N 
ATOM      4  N   UNL     1      35.030 -22.194 -18.159  0.00  0.00    -0.297 N 
ATOM      5  C   UNL     1      35.002 -23.207 -16.113  0.00  0.00    +0.003 A 
ATOM      6  C   UNL     1      35.160 -23.822 -14.871  0.00  0.00    +0.016 A 
ATOM      7  C   UNL     1      32.649 -23.420 -15.668  0.00  0.00    +0.022 A 
ATOM      8  C   UNL     1      34.134 -24.262 -13.975  0.00  0.00    +0.072 A 
ATOM      9  C   UNL     1      33.678 -23.005 -16.514  0.00  0.00    +0.053 A 
ATOM     10  C   UNL     1      32.817 -24.052 -14.392  0.00  0.00    +0.073 A 
ATOM     11  C   UNL     1      35.944 -22.696 -17.150  0.00  0.00    +0.117 C 
ATOM     12  C   UNL     1      36.273 -24.248 -14.016  0.00  0.00    +0.017 A 
ATOM     13  C   UNL     1      31.178 -23.436 -15.625  0.00  0.00    +0.017 A 
ATOM     14  C   UNL     1      35.793 -24.845 -12.805  0.00  0.00    +0.057 A 
ATOM     15  C   UNL     1      30.707 -24.036 -14.407  0.00  0.00    +0.057 A 
ATOM     16  C   UNL     1      33.689 -22.358 -17.820  0.00  0.00    +0.246 C 
ATOM     17  C   UNL     1      37.675 -24.162 -14.197  0.00  0.00    +0.001 C 
ATOM     18  C   UNL     1      30.197 -22.981 -16.539  0.00  0.00    +0.001 C 
ATOM     19  C   UNL     1      36.674 -25.331 -11.827  0.00  0.00    +0.017 C 
ATOM     20  C   UNL     1      29.338 -24.168 -14.130  0.00  0.00    +0.017 C 
ATOM     21  C   UNL     1      38.543 -24.650 -13.215  0.00  0.00    +0.000 C 
ATOM     22  C   UNL     1      28.835 -23.116 -16.252  0.00  0.00    +0.000 C 
ATOM     23  C   UNL     1      38.048 -25.224 -12.051  0.00  0.00    +0.001 C 
ATOM     24  C   UNL     1      28.414 -23.702 -15.064  0.00  0.00    +0.001 C 
ATOM     25  H   UNL     1      33.788 -25.189 -12.099  0.00  0.00    +0.166 HD
ATOM     26  H   UNL     1      31.777 -24.869 -12.736  0.00  0.00    +0.166 HD
ATOM     27  H   UNL     1      35.328 -21.779 -19.000  0.00  0.00    +0.150 HD
ENDROOT
TORSDOF 0
ENDMDL
MODEL 7
REMARK VINA RESULT:     -10.4      2.049      6.358
REMARK  Name = 3815
REMARK  0 active torsions:
REMARK  status: ('A' for Active; 'I' for Inactive)
REMARK                            x       y       z     vdW  Elec       q    Type
REMARK                         _______ _______ _______ _____ _____    ______ ____
ROOT
ATOM      1  O   UNL     1      36.956 -22.366 -17.584  0.00  0.00    -0.270 OA
ATOM      2  N   UNL     1      32.012 -24.624 -13.913  0.00  0.00    -0.352 N 
ATOM      3  N   UNL     1      34.712 -24.971 -13.311  0.00  0.00    -0.352 N 
ATOM      4  N   UNL     1      34.838 -21.854 -18.456  0.00  0.00    -0.297 N 
ATOM      5  C   UNL     1      33.587 -22.849 -16.826  0.00  0.00    +0.003 A 
ATOM      6  C   UNL     1      32.683 -23.403 -15.921  0.00  0.00    +0.016 A 
ATOM      7  C   UNL     1      35.265 -23.733 -15.348  0.00  0.00    +0.022 A 
ATOM      8  C   UNL     1      32.977 -24.128 -14.722  0.00  0.00    +0.072 A 
ATOM      9  C   UNL     1      34.937 -23.032 -16.508  0.00  0.00    +0.053 A 
ATOM     10  C   UNL     1      34.330 -24.301 -14.421  0.00  0.00    +0.073 A 
ATOM     11  C   UNL     1      33.451 -22.081 -18.097  0.00  0.00    +0.117 C 
ATOM     12  C   UNL     1      31.226 -23.499 -15.779  0.00  0.00    +0.017 A 
ATOM     13  C   UNL     1      36.459 -24.173 -14.610  0.00  0.00    +0.017 A 
ATOM     14  C   UNL     1      30.870 -24.221 -14.593  0.00  0.00    +0.057 A 
ATOM     15  C   UNL     1      36.092 -24.895 -13.423  0.00  0.00    +0.057 A 
ATOM     16  C   UNL     1      35.741 -22.398 -17.546  0.00  0.00    +0.246 C 
ATOM     17  C   UNL     1      30.175 -23.014 -16.593  0.00  0.00    +0.001 C 
ATOM     18  C   UNL     1      37.843 -24.011 -14.863  0.00  0.00    +0.001 C 
ATOM     19  C   UNL     1      29.531 -24.443 -14.242  0.00  0.00    +0.017 C 
ATOM     20  C   UNL     1      37.057 -25.419 -12.550  0.00  0.00    +0.017 C 
ATOM     21  C   UNL     1      28.842 -23.241 -16.234  0.00  0.00    +0.000 C 
ATOM     22  C   UNL     1      38.796 -24.539 -13.985  0.00  0.00    +0.000 C 
ATOM     23  C   UNL     1      28.528 -23.944 -15.078  0.00  0.00    +0.001 C 
ATOM     24  C   UNL     1      38.407 -25.232 -12.846  0.00  0.00    +0.001 C 
ATOM     25  H   UNL     1      32.096 -25.132 -13.074  0.00  0.00    +0.166 HD
ATOM     26  H   UNL     1      34.163 -25.396 -12.614  0.00  0.00    +0.166 HD
ATOM     27  H   UNL     1      35.114 -21.362 -19.264  0.00  0.00    +0.150 HD
ENDROOT
TORSDOF 0
ENDMDL
