MODEL 1
REMARK VINA RESULT:     -12.8      0.000      0.000
REMARK  Name = 24882195
REMARK  2 active torsions:
REMARK  status: ('A' for Active; 'I' for Inactive)
REMARK    1  A    between atoms: C_5  and  N_15
REMARK    2  A    between atoms: N_15  and  C_21
REMARK                            x       y       z     vdW  Elec       q    Type
REMARK                         _______ _______ _______ _____ _____    ______ ____
ROOT
ATOM      1  C   UNL     1      34.816 -19.827 -20.643  0.00  0.00    +0.001 C 
ATOM      2  C   UNL     1      36.138 -20.118 -20.244  0.00  0.00    +0.000 C 
ATOM      3  C   UNL     1      33.968 -21.466 -19.032  0.00  0.00    +0.000 C 
ATOM      4  C   UNL     1      35.291 -21.758 -18.632  0.00  0.00    +0.000 C 
ATOM      5  C   UNL     1      35.668 -18.201 -22.241  0.00  0.00    +0.049 C 
ATOM      6  C   UNL     1      33.748 -20.505 -20.032  0.00  0.00    +0.000 C 
ATOM      7  C   UNL     1      34.597 -18.866 -21.644  0.00  0.00    +0.015 C 
ATOM      8  C   UNL     1      36.359 -21.080 -19.244  0.00  0.00    +0.000 C 
ATOM      9  C   UNL     1      37.206 -19.440 -20.855  0.00  0.00    +0.001 C 
ATOM     10  C   UNL     1      36.972 -18.487 -21.847  0.00  0.00    +0.015 C 
ATOM     11  C   UNL     1      32.901 -22.145 -18.421  0.00  0.00    +0.000 C 
ATOM     12  C   UNL     1      35.510 -22.720 -17.632  0.00  0.00    +0.000 C 
ATOM     13  C   UNL     1      33.135 -23.097 -17.429  0.00  0.00    +0.000 C 
ATOM     14  C   UNL     1      34.438 -23.384 -17.035  0.00  0.00    +0.000 C 
ENDROOT
BRANCH   5  15
ATOM     15  N   UNL     1      35.430 -17.237 -23.244  0.00  0.00    -0.299 N 
ATOM     16  H   UNL     1      35.867 -17.406 -24.110  0.00  0.00    +0.153 HD
BRANCH  15  21
ATOM     17  N   UNL     1      34.222 -15.566 -24.377  0.00  0.00    -0.106 N 
ATOM     18  N   UNL     1      33.095 -13.754 -23.267  0.00  0.00    -0.340 NA
ATOM     19  N   UNL     1      34.417 -16.007 -25.647  0.00  0.00    -0.139 NA
ATOM     20  N   UNL     1      33.149 -14.116 -25.665  0.00  0.00    -0.145 NA
ATOM     21  C   UNL     1      34.683 -16.114 -23.173  0.00  0.00    +0.138 C 
ATOM     22  C   UNL     1      34.359 -15.496 -22.027  0.00  0.00    +0.061 C 
ATOM     23  C   UNL     1      33.441 -14.406 -24.413  0.00  0.00    +0.174 C 
ATOM     24  C   UNL     1      33.523 -14.263 -22.150  0.00  0.00    +0.125 C 
ATOM     25  C   UNL     1      33.153 -13.558 -20.870  0.00  0.00    +0.068 C 
ATOM     26  C   UNL     1      33.756 -15.106 -26.366  0.00  0.00    +0.230 C 
ENDBRANCH  15  21
ENDBRANCH   5  15
TORSDOF 2
ENDMDL
MODEL 2
REMARK VINA RESULT:     -12.3      1.002      2.243
REMARK  Name = 24882195
REMARK  2 active torsions:
REMARK  status: ('A' for Active; 'I' for Inactive)
REMARK    1  A    between atoms: C_5  and  N_15
REMARK    2  A    between atoms: N_15  and  C_21
REMARK                            x       y       z     vdW  Elec       q    Type
REMARK                         _______ _______ _______ _____ _____    ______ ____
ROOT
ATOM      1  C   UNL     1      34.927 -19.954 -20.799  0.00  0.00    +0.001 C 
ATOM      2  C   UNL     1      36.225 -20.122 -20.269  0.00  0.00    +0.000 C 
ATOM      3  C   UNL     1      34.037 -21.483 -19.105  0.00  0.00    +0.000 C 
ATOM      4  C   UNL     1      35.335 -21.652 -18.574  0.00  0.00    +0.000 C 
ATOM      5  C   UNL     1      35.821 -18.436 -22.479  0.00  0.00    +0.049 C 
ATOM      6  C   UNL     1      33.851 -20.638 -20.210  0.00  0.00    +0.000 C 
ATOM      7  C   UNL     1      34.742 -19.108 -21.905  0.00  0.00    +0.015 C 
ATOM      8  C   UNL     1      36.413 -20.969 -19.163  0.00  0.00    +0.000 C 
ATOM      9  C   UNL     1      37.302 -19.438 -20.858  0.00  0.00    +0.001 C 
ATOM     10  C   UNL     1      37.100 -18.601 -21.956  0.00  0.00    +0.015 C 
ATOM     11  C   UNL     1      32.962 -22.168 -18.516  0.00  0.00    +0.000 C 
ATOM     12  C   UNL     1      35.522 -22.498 -17.469  0.00  0.00    +0.000 C 
ATOM     13  C   UNL     1      33.163 -23.005 -17.418  0.00  0.00    +0.000 C 
ATOM     14  C   UNL     1      34.442 -23.169 -16.895  0.00  0.00    +0.000 C 
ENDROOT
BRANCH   5  15
ATOM     15  N   UNL     1      35.616 -17.589 -23.588  0.00  0.00    -0.299 N 
ATOM     16  H   UNL     1      36.091 -17.844 -24.413  0.00  0.00    +0.153 HD
BRANCH  15  21
ATOM     17  N   UNL     1      34.531 -15.825 -22.473  0.00  0.00    -0.106 N 
ATOM     18  N   UNL     1      33.270 -14.114 -23.598  0.00  0.00    -0.340 NA
ATOM     19  N   UNL     1      34.874 -16.154 -21.200  0.00  0.00    -0.139 NA
ATOM     20  N   UNL     1      33.601 -14.267 -21.200  0.00  0.00    -0.145 NA
ATOM     21  C   UNL     1      34.857 -16.475 -23.670  0.00  0.00    +0.138 C 
ATOM     22  C   UNL     1      34.399 -15.958 -24.820  0.00  0.00    +0.061 C 
ATOM     23  C   UNL     1      33.751 -14.664 -22.448  0.00  0.00    +0.174 C 
ATOM     24  C   UNL     1      33.573 -14.718 -24.709  0.00  0.00    +0.125 C 
ATOM     25  C   UNL     1      33.051 -14.127 -25.994  0.00  0.00    +0.068 C 
ATOM     26  C   UNL     1      34.293 -15.193 -20.490  0.00  0.00    +0.230 C 
ENDBRANCH  15  21
ENDBRANCH   5  15
TORSDOF 2
ENDMDL
MODEL 3
REMARK VINA RESULT:     -12.2      6.743     10.872
REMARK  Name = 24882195
REMARK  2 active torsions:
REMARK  status: ('A' for Active; 'I' for Inactive)
REMARK    1  A    between atoms: C_5  and  N_15
REMARK    2  A    between atoms: N_15  and  C_21
REMARK                            x       y       z     vdW  Elec       q    Type
REMARK                         _______ _______ _______ _____ _____    ______ ____
ROOT
ATOM      1  C   UNL     1      35.338 -22.397 -17.511  0.00  0.00    +0.001 C 
ATOM      2  C   UNL     1      33.958 -22.395 -17.811  0.00  0.00    +0.000 C 
ATOM      3  C   UNL     1      35.758 -20.941 -19.435  0.00  0.00    +0.000 C 
ATOM      4  C   UNL     1      34.378 -20.939 -19.737  0.00  0.00    +0.000 C 
ATOM      5  C   UNL     1      34.910 -23.843 -15.601  0.00  0.00    +0.049 C 
ATOM      6  C   UNL     1      36.220 -21.670 -18.327  0.00  0.00    +0.000 C 
ATOM      7  C   UNL     1      35.798 -23.126 -16.403  0.00  0.00    +0.015 C 
ATOM      8  C   UNL     1      33.496 -21.666 -18.920  0.00  0.00    +0.000 C 
ATOM      9  C   UNL     1      33.076 -23.122 -16.994  0.00  0.00    +0.001 C 
ATOM     10  C   UNL     1      33.550 -23.842 -15.896  0.00  0.00    +0.015 C 
ATOM     11  C   UNL     1      36.639 -20.214 -20.253  0.00  0.00    +0.000 C 
ATOM     12  C   UNL     1      33.917 -20.209 -20.845  0.00  0.00    +0.000 C 
ATOM     13  C   UNL     1      36.166 -19.495 -21.350  0.00  0.00    +0.000 C 
ATOM     14  C   UNL     1      34.807 -19.492 -21.646  0.00  0.00    +0.000 C 
ENDROOT
BRANCH   5  15
ATOM     15  N   UNL     1      35.389 -24.570 -14.491  0.00  0.00    -0.299 N 
ATOM     16  H   UNL     1      34.716 -25.095 -14.001  0.00  0.00    +0.153 HD
BRANCH  15  21
ATOM     17  N   UNL     1      36.900 -24.063 -12.760  0.00  0.00    -0.106 N 
ATOM     18  N   UNL     1      39.226 -24.669 -12.802  0.00  0.00    -0.340 NA
ATOM     19  N   UNL     1      36.039 -23.420 -11.928  0.00  0.00    -0.139 NA
ATOM     20  N   UNL     1      38.120 -23.471 -11.006  0.00  0.00    -0.145 NA
ATOM     21  C   UNL     1      36.650 -24.641 -14.011  0.00  0.00    +0.138 C 
ATOM     22  C   UNL     1      37.670 -25.228 -14.656  0.00  0.00    +0.061 C 
ATOM     23  C   UNL     1      38.169 -24.082 -12.173  0.00  0.00    +0.174 C 
ATOM     24  C   UNL     1      38.994 -25.206 -13.963  0.00  0.00    +0.125 C 
ATOM     25  C   UNL     1      40.149 -25.860 -14.677  0.00  0.00    +0.068 C 
ATOM     26  C   UNL     1      36.821 -23.094 -10.904  0.00  0.00    +0.230 C 
ENDBRANCH  15  21
ENDBRANCH   5  15
TORSDOF 2
ENDMDL
MODEL 4
REMARK VINA RESULT:     -12.0      6.642     10.670
REMARK  Name = 24882195
REMARK  2 active torsions:
REMARK  status: ('A' for Active; 'I' for Inactive)
REMARK    1  A    between atoms: C_5  and  N_15
REMARK    2  A    between atoms: N_15  and  C_21
REMARK                            x       y       z     vdW  Elec       q    Type
REMARK                         _______ _______ _______ _____ _____    ______ ____
ROOT
ATOM      1  C   UNL     1      34.842 -22.362 -17.640  0.00  0.00    +0.001 C 
ATOM      2  C   UNL     1      33.504 -22.160 -18.042  0.00  0.00    +0.000 C 
ATOM      3  C   UNL     1      35.613 -20.984 -19.513  0.00  0.00    +0.000 C 
ATOM      4  C   UNL     1      34.274 -20.781 -19.915  0.00  0.00    +0.000 C 
ATOM      5  C   UNL     1      34.067 -23.730 -15.782  0.00  0.00    +0.049 C 
ATOM      6  C   UNL     1      35.879 -21.772 -18.381  0.00  0.00    +0.000 C 
ATOM      7  C   UNL     1      35.108 -23.151 -16.508  0.00  0.00    +0.015 C 
ATOM      8  C   UNL     1      33.237 -21.372 -19.174  0.00  0.00    +0.000 C 
ATOM      9  C   UNL     1      32.467 -22.750 -17.300  0.00  0.00    +0.001 C 
ATOM     10  C   UNL     1      32.747 -23.531 -16.178  0.00  0.00    +0.015 C 
ATOM     11  C   UNL     1      36.649 -20.394 -20.255  0.00  0.00    +0.000 C 
ATOM     12  C   UNL     1      34.008 -19.993 -21.047  0.00  0.00    +0.000 C 
ATOM     13  C   UNL     1      36.369 -19.614 -21.377  0.00  0.00    +0.000 C 
ATOM     14  C   UNL     1      35.050 -19.414 -21.772  0.00  0.00    +0.000 C 
ENDROOT
BRANCH   5  15
ATOM     15  N   UNL     1      34.351 -24.519 -14.648  0.00  0.00    -0.299 N 
ATOM     16  H   UNL     1      33.632 -25.126 -14.358  0.00  0.00    +0.153 HD
BRANCH  15  21
ATOM     17  N   UNL     1      36.370 -25.608 -14.122  0.00  0.00    -0.106 N 
ATOM     18  N   UNL     1      37.914 -24.819 -12.456  0.00  0.00    -0.340 NA
ATOM     19  N   UNL     1      36.270 -26.643 -14.998  0.00  0.00    -0.139 NA
ATOM     20  N   UNL     1      38.206 -26.810 -13.810  0.00  0.00    -0.145 NA
ATOM     21  C   UNL     1      35.479 -24.550 -13.904  0.00  0.00    +0.138 C 
ATOM     22  C   UNL     1      35.794 -23.634 -12.975  0.00  0.00    +0.061 C 
ATOM     23  C   UNL     1      37.565 -25.732 -13.406  0.00  0.00    +0.174 C 
ATOM     24  C   UNL     1      37.086 -23.837 -12.254  0.00  0.00    +0.125 C 
ATOM     25  C   UNL     1      37.452 -22.816 -11.207  0.00  0.00    +0.068 C 
ATOM     26  C   UNL     1      37.389 -27.321 -14.766  0.00  0.00    +0.230 C 
ENDBRANCH  15  21
ENDBRANCH   5  15
TORSDOF 2
ENDMDL
MODEL 5
REMARK VINA RESULT:     -11.5      5.933     10.242
REMARK  Name = 24882195
REMARK  2 active torsions:
REMARK  status: ('A' for Active; 'I' for Inactive)
REMARK    1  A    between atoms: C_5  and  N_15
REMARK    2  A    between atoms: N_15  and  C_21
REMARK                            x       y       z     vdW  Elec       q    Type
REMARK                         _______ _______ _______ _____ _____    ______ ____
ROOT
ATOM      1  C   UNL     1      35.956 -21.344 -18.747  0.00  0.00    +0.001 C 
ATOM      2  C   UNL     1      34.609 -21.492 -19.144  0.00  0.00    +0.000 C 
ATOM      3  C   UNL     1      36.350 -19.839 -20.639  0.00  0.00    +0.000 C 
ATOM      4  C   UNL     1      35.003 -19.987 -21.038  0.00  0.00    +0.000 C 
ATOM      5  C   UNL     1      35.555 -22.841 -16.870  0.00  0.00    +0.049 C 
ATOM      6  C   UNL     1      36.809 -20.520 -19.500  0.00  0.00    +0.000 C 
ATOM      7  C   UNL     1      36.414 -22.026 -17.607  0.00  0.00    +0.015 C 
ATOM      8  C   UNL     1      34.150 -20.812 -20.285  0.00  0.00    +0.000 C 
ATOM      9  C   UNL     1      33.757 -22.316 -18.391  0.00  0.00    +0.001 C 
ATOM     10  C   UNL     1      34.227 -22.986 -17.261  0.00  0.00    +0.015 C 
ATOM     11  C   UNL     1      37.202 -19.015 -21.393  0.00  0.00    +0.000 C 
ATOM     12  C   UNL     1      34.544 -19.306 -22.177  0.00  0.00    +0.000 C 
ATOM     13  C   UNL     1      36.731 -18.346 -22.523  0.00  0.00    +0.000 C 
ATOM     14  C   UNL     1      35.405 -18.491 -22.914  0.00  0.00    +0.000 C 
ENDROOT
BRANCH   5  15
ATOM     15  N   UNL     1      36.031 -23.517 -15.727  0.00  0.00    -0.299 N 
ATOM     16  H   UNL     1      36.965 -23.827 -15.772  0.00  0.00    +0.153 HD
BRANCH  15  21
ATOM     17  N   UNL     1      36.063 -23.602 -13.376  0.00  0.00    -0.106 N 
ATOM     18  N   UNL     1      34.196 -24.324 -12.044  0.00  0.00    -0.340 NA
ATOM     19  N   UNL     1      37.331 -23.155 -13.179  0.00  0.00    -0.139 NA
ATOM     20  N   UNL     1      36.340 -23.591 -11.176  0.00  0.00    -0.145 NA
ATOM     21  C   UNL     1      35.376 -23.799 -14.580  0.00  0.00    +0.138 C 
ATOM     22  C   UNL     1      34.114 -24.253 -14.525  0.00  0.00    +0.061 C 
ATOM     23  C   UNL     1      35.475 -23.862 -12.134  0.00  0.00    +0.174 C 
ATOM     24  C   UNL     1      33.558 -24.507 -13.162  0.00  0.00    +0.125 C 
ATOM     25  C   UNL     1      32.142 -25.019 -13.086  0.00  0.00    +0.068 C 
ATOM     26  C   UNL     1      37.437 -23.170 -11.854  0.00  0.00    +0.230 C 
ENDBRANCH  15  21
ENDBRANCH   5  15
TORSDOF 2
ENDMDL
MODEL 6
REMARK VINA RESULT:     -11.5      1.422      3.241
REMARK  Name = 24882195
REMARK  2 active torsions:
REMARK  status: ('A' for Active; 'I' for Inactive)
REMARK    1  A    between atoms: C_5  and  N_15
REMARK    2  A    between atoms: N_15  and  C_21
REMARK                            x       y       z     vdW  Elec       q    Type
REMARK                         _______ _______ _______ _____ _____    ______ ____
ROOT
ATOM      1  C   UNL     1      35.893 -20.659 -19.565  0.00  0.00    +0.001 C 
ATOM      2  C   UNL     1      34.555 -21.103 -19.493  0.00  0.00    +0.000 C 
ATOM      3  C   UNL     1      36.434 -21.962 -17.562  0.00  0.00    +0.000 C 
ATOM      4  C   UNL     1      35.096 -22.407 -17.490  0.00  0.00    +0.000 C 
ATOM      5  C   UNL     1      35.347 -19.367 -21.554  0.00  0.00    +0.049 C 
ATOM      6  C   UNL     1      36.815 -21.093 -18.598  0.00  0.00    +0.000 C 
ATOM      7  C   UNL     1      36.273 -19.790 -20.601  0.00  0.00    +0.015 C 
ATOM      8  C   UNL     1      34.173 -21.972 -18.457  0.00  0.00    +0.000 C 
ATOM      9  C   UNL     1      33.634 -20.669 -20.460  0.00  0.00    +0.001 C 
ATOM     10  C   UNL     1      34.028 -19.805 -21.484  0.00  0.00    +0.015 C 
ATOM     11  C   UNL     1      37.354 -22.397 -16.595  0.00  0.00    +0.000 C 
ATOM     12  C   UNL     1      34.715 -23.276 -16.454  0.00  0.00    +0.000 C 
ATOM     13  C   UNL     1      36.961 -23.260 -15.572  0.00  0.00    +0.000 C 
ATOM     14  C   UNL     1      35.643 -23.699 -15.502  0.00  0.00    +0.000 C 
ENDROOT
BRANCH   5  15
ATOM     15  N   UNL     1      35.746 -18.494 -22.588  0.00  0.00    -0.299 N 
ATOM     16  H   UNL     1      36.560 -18.755 -23.076  0.00  0.00    +0.153 HD
BRANCH  15  21
ATOM     17  N   UNL     1      34.794 -16.420 -22.014  0.00  0.00    -0.106 N 
ATOM     18  N   UNL     1      33.912 -14.868 -23.624  0.00  0.00    -0.340 NA
ATOM     19  N   UNL     1      34.946 -16.500 -20.665  0.00  0.00    -0.139 NA
ATOM     20  N   UNL     1      33.950 -14.530 -21.223  0.00  0.00    -0.145 NA
ATOM     21  C   UNL     1      35.159 -17.348 -22.997  0.00  0.00    +0.138 C 
ATOM     22  C   UNL     1      34.907 -17.048 -24.280  0.00  0.00    +0.061 C 
ATOM     23  C   UNL     1      34.182 -15.204 -22.331  0.00  0.00    +0.174 C 
ATOM     24  C   UNL     1      34.251 -15.730 -24.537  0.00  0.00    +0.125 C 
ATOM     25  C   UNL     1      33.960 -15.380 -25.974  0.00  0.00    +0.068 C 
ATOM     26  C   UNL     1      34.427 -15.348 -20.252  0.00  0.00    +0.230 C 
ENDBRANCH  15  21
ENDBRANCH   5  15
TORSDOF 2
ENDMDL
MODEL 7
REMARK VINA RESULT:     -11.4      3.567      6.574
REMARK  Name = 24882195
REMARK  2 active torsions:
REMARK  status: ('A' for Active; 'I' for Inactive)
REMARK    1  A    between atoms: C_5  and  N_15
REMARK    2  A    between atoms: N_15  and  C_21
REMARK                            x       y       z     vdW  Elec       q    Type
REMARK                         _______ _______ _______ _____ _____    ______ ____
ROOT
ATOM      1  C   UNL     1      34.392 -14.589 -23.094  0.00  0.00    +0.001 C 
ATOM      2  C   UNL     1      34.171 -15.135 -24.378  0.00  0.00    +0.000 C 
ATOM      3  C   UNL     1      34.991 -16.810 -22.252  0.00  0.00    +0.000 C 
ATOM      4  C   UNL     1      34.771 -17.357 -23.536  0.00  0.00    +0.000 C 
ATOM      5  C   UNL     1      33.794 -12.387 -23.940  0.00  0.00    +0.049 C 
ATOM      6  C   UNL     1      34.798 -15.434 -22.048  0.00  0.00    +0.000 C 
ATOM      7  C   UNL     1      34.198 -13.213 -22.891  0.00  0.00    +0.015 C 
ATOM      8  C   UNL     1      34.364 -16.512 -24.582  0.00  0.00    +0.000 C 
ATOM      9  C   UNL     1      33.765 -14.290 -25.424  0.00  0.00    +0.001 C 
ATOM     10  C   UNL     1      33.578 -12.924 -25.205  0.00  0.00    +0.015 C 
ATOM     11  C   UNL     1      35.396 -17.657 -21.207  0.00  0.00    +0.000 C 
ATOM     12  C   UNL     1      34.964 -18.733 -23.740  0.00  0.00    +0.000 C 
ATOM     13  C   UNL     1      35.584 -19.021 -21.425  0.00  0.00    +0.000 C 
ATOM     14  C   UNL     1      35.368 -19.559 -22.690  0.00  0.00    +0.000 C 
ENDROOT
BRANCH   5  15
ATOM     15  N   UNL     1      33.605 -11.006 -23.718  0.00  0.00    -0.299 N 
ATOM     16  H   UNL     1      33.959 -10.409 -24.416  0.00  0.00    +0.153 HD
BRANCH  15  21
ATOM     17  N   UNL     1      33.228  -9.022 -22.511  0.00  0.00    -0.106 N 
ATOM     18  N   UNL     1      31.842  -8.900 -20.550  0.00  0.00    -0.340 NA
ATOM     19  N   UNL     1      33.982  -8.183 -23.269  0.00  0.00    -0.139 NA
ATOM     20  N   UNL     1      33.027  -7.034 -21.550  0.00  0.00    -0.145 NA
ATOM     21  C   UNL     1      33.004 -10.395 -22.675  0.00  0.00    +0.138 C 
ATOM     22  C   UNL     1      32.211 -11.020 -21.791  0.00  0.00    +0.061 C 
ATOM     23  C   UNL     1      32.652  -8.295 -21.465  0.00  0.00    +0.174 C 
ATOM     24  C   UNL     1      31.635 -10.174 -20.702  0.00  0.00    +0.125 C 
ATOM     25  C   UNL     1      30.743 -10.864 -19.701  0.00  0.00    +0.068 C 
ATOM     26  C   UNL     1      33.823  -7.018 -22.649  0.00  0.00    +0.230 C 
ENDBRANCH  15  21
ENDBRANCH   5  15
TORSDOF 2
ENDMDL
MODEL 8
REMARK VINA RESULT:     -11.3      4.551     10.646
REMARK  Name = 24882195
REMARK  2 active torsions:
REMARK  status: ('A' for Active; 'I' for Inactive)
REMARK    1  A    between atoms: C_5  and  N_15
REMARK    2  A    between atoms: N_15  and  C_21
REMARK                            x       y       z     vdW  Elec       q    Type
REMARK                         _______ _______ _______ _____ _____    ______ ____
ROOT
ATOM      1  C   UNL     1      32.152  -9.849 -21.872  0.00  0.00    +0.001 C 
ATOM      2  C   UNL     1      31.862  -9.362 -20.579  0.00  0.00    +0.000 C 
ATOM      3  C   UNL     1      32.119  -7.560 -22.743  0.00  0.00    +0.000 C 
ATOM      4  C   UNL     1      31.828  -7.071 -21.450  0.00  0.00    +0.000 C 
ATOM      5  C   UNL     1      32.183 -12.120 -20.998  0.00  0.00    +0.049 C 
ATOM      6  C   UNL     1      32.276  -8.942 -22.937  0.00  0.00    +0.000 C 
ATOM      7  C   UNL     1      32.309 -11.232 -22.065  0.00  0.00    +0.015 C 
ATOM      8  C   UNL     1      31.704  -7.979 -20.384  0.00  0.00    +0.000 C 
ATOM      9  C   UNL     1      31.738 -10.269 -19.514  0.00  0.00    +0.001 C 
ATOM     10  C   UNL     1      31.898 -11.640 -19.723  0.00  0.00    +0.015 C 
ATOM     11  C   UNL     1      32.242  -6.651 -23.807  0.00  0.00    +0.000 C 
ATOM     12  C   UNL     1      31.670  -5.689 -21.256  0.00  0.00    +0.000 C 
ATOM     13  C   UNL     1      32.082  -5.282 -23.599  0.00  0.00    +0.000 C 
ATOM     14  C   UNL     1      31.797  -4.801 -22.325  0.00  0.00    +0.000 C 
ENDROOT
BRANCH   5  15
ATOM     15  N   UNL     1      32.345 -13.506 -21.209  0.00  0.00    -0.299 N 
ATOM     16  H   UNL     1      31.946 -14.092 -20.526  0.00  0.00    +0.153 HD
BRANCH  15  21
ATOM     17  N   UNL     1      33.836 -15.192 -21.896  0.00  0.00    -0.106 N 
ATOM     18  N   UNL     1      34.412 -15.604 -24.194  0.00  0.00    -0.340 NA
ATOM     19  N   UNL     1      34.140 -15.698 -20.672  0.00  0.00    -0.139 NA
ATOM     20  N   UNL     1      35.265 -16.840 -22.289  0.00  0.00    -0.145 NA
ATOM     21  C   UNL     1      32.977 -14.135 -22.224  0.00  0.00    +0.138 C 
ATOM     22  C   UNL     1      32.832 -13.811 -23.518  0.00  0.00    +0.061 C 
ATOM     23  C   UNL     1      34.536 -15.909 -22.872  0.00  0.00    +0.174 C 
ATOM     24  C   UNL     1      33.615 -14.623 -24.498  0.00  0.00    +0.125 C 
ATOM     25  C   UNL     1      33.462 -14.269 -25.955  0.00  0.00    +0.068 C 
ATOM     26  C   UNL     1      34.992 -16.673 -20.971  0.00  0.00    +0.230 C 
ENDBRANCH  15  21
ENDBRANCH   5  15
TORSDOF 2
ENDMDL
MODEL 9
REMARK VINA RESULT:     -11.3      6.425     10.752
REMARK  Name = 24882195
REMARK  2 active torsions:
REMARK  status: ('A' for Active; 'I' for Inactive)
REMARK    1  A    between atoms: C_5  and  N_15
REMARK    2  A    between atoms: N_15  and  C_21
REMARK                            x       y       z     vdW  Elec       q    Type
REMARK                         _______ _______ _______ _____ _____    ______ ____
ROOT
ATOM      1  C   UNL     1      35.154 -21.984 -18.025  0.00  0.00    +0.001 C 
ATOM      2  C   UNL     1      36.507 -21.590 -17.931  0.00  0.00    +0.000 C 
ATOM      3  C   UNL     1      34.922 -20.697 -20.097  0.00  0.00    +0.000 C 
ATOM      4  C   UNL     1      36.275 -20.303 -20.004  0.00  0.00    +0.000 C 
ATOM      5  C   UNL     1      35.394 -23.259 -15.965  0.00  0.00    +0.049 C 
ATOM      6  C   UNL     1      34.380 -21.532 -19.106  0.00  0.00    +0.000 C 
ATOM      7  C   UNL     1      34.612 -22.818 -17.033  0.00  0.00    +0.015 C 
ATOM      8  C   UNL     1      37.051 -20.755 -18.922  0.00  0.00    +0.000 C 
ATOM      9  C   UNL     1      37.281 -22.042 -16.850  0.00  0.00    +0.001 C 
ATOM     10  C   UNL     1      36.728 -22.871 -15.873  0.00  0.00    +0.015 C 
ATOM     11  C   UNL     1      34.149 -20.244 -21.178  0.00  0.00    +0.000 C 
ATOM     12  C   UNL     1      36.818 -19.468 -20.995  0.00  0.00    +0.000 C 
ATOM     13  C   UNL     1      34.702 -19.416 -22.154  0.00  0.00    +0.000 C 
ATOM     14  C   UNL     1      36.035 -19.029 -22.062  0.00  0.00    +0.000 C 
ENDROOT
BRANCH   5  15
ATOM     15  N   UNL     1      34.834 -24.097 -14.979  0.00  0.00    -0.299 N 
ATOM     16  H   UNL     1      33.897 -24.361 -15.124  0.00  0.00    +0.153 HD
BRANCH  15  21
ATOM     17  N   UNL     1      36.302 -25.657 -14.004  0.00  0.00    -0.106 N 
ATOM     18  N   UNL     1      36.747 -25.771 -11.644  0.00  0.00    -0.340 NA
ATOM     19  N   UNL     1      36.684 -26.303 -15.136  0.00  0.00    -0.139 NA
ATOM     20  N   UNL     1      37.725 -27.216 -13.329  0.00  0.00    -0.145 NA
ATOM     21  C   UNL     1      35.412 -24.584 -13.860  0.00  0.00    +0.138 C 
ATOM     22  C   UNL     1      35.188 -24.106 -12.626  0.00  0.00    +0.061 C 
ATOM     23  C   UNL     1      36.954 -26.233 -12.909  0.00  0.00    +0.174 C 
ATOM     24  C   UNL     1      35.922 -24.776 -11.510  0.00  0.00    +0.125 C 
ATOM     25  C   UNL     1      35.677 -24.249 -10.119  0.00  0.00    +0.068 C 
ATOM     26  C   UNL     1      37.530 -27.217 -14.671  0.00  0.00    +0.230 C 
ENDBRANCH  15  21
ENDBRANCH   5  15
TORSDOF 2
ENDMDL
