MODEL 1
REMARK VINA RESULT:     -11.7      0.000      0.000
REMARK  Name = 9889200
REMARK  5 active torsions:
REMARK  status: ('A' for Active; 'I' for Inactive)
REMARK    1  A    between atoms: C_1  and  C_21
REMARK    2  A    between atoms: C_4  and  O_7
REMARK    3  A    between atoms: O_7  and  C_8
REMARK    4  A    between atoms: C_8  and  C_12
REMARK    5  A    between atoms: C_21  and  C_26
REMARK                            x       y       z     vdW  Elec       q    Type
REMARK                         _______ _______ _______ _____ _____    ______ ____
ROOT
ATOM      1  C   UNL     1      34.093 -22.147 -18.723  0.00  0.00    -0.021 C 
ATOM      2  C   UNL     1      33.012 -21.437 -19.244  0.00  0.00    -0.001 C 
ATOM      3  C   UNL     1      35.390 -21.848 -19.139  0.00  0.00    -0.001 C 
ATOM      4  C   UNL     1      34.522 -20.136 -20.589  0.00  0.00    +0.139 C 
ATOM      5  C   UNL     1      33.228 -20.426 -20.182  0.00  0.00    +0.037 C 
ATOM      6  C   UNL     1      35.606 -20.837 -20.076  0.00  0.00    +0.037 C 
ENDROOT
BRANCH   4   7
ATOM      7  O   UNL     1      34.735 -19.140 -21.511  0.00  0.00    -0.466 OA
BRANCH   7   8
ATOM      8  C   UNL     1      35.462 -18.009 -21.084  0.00  0.00    +0.279 C 
BRANCH   8  12
ATOM      9  O   UNL     1      34.019 -14.993 -24.572  0.00  0.00    -0.274 OA
ATOM     10  N   UNL     1      34.730 -16.467 -22.898  0.00  0.00    -0.232 N 
ATOM     11  N   UNL     1      34.199 -16.016 -20.624  0.00  0.00    -0.391 NA
ATOM     12  C   UNL     1      34.751 -16.756 -21.535  0.00  0.00    +0.210 C 
ATOM     13  C   UNL     1      33.452 -14.466 -22.367  0.00  0.00    +0.151 C 
ATOM     14  C   UNL     1      33.535 -14.849 -21.026  0.00  0.00    +0.123 C 
ATOM     15  C   UNL     1      34.087 -15.321 -23.391  0.00  0.00    +0.241 C 
ATOM     16  C   UNL     1      35.378 -17.355 -23.863  0.00  0.00    +0.122 C 
ATOM     17  C   UNL     1      32.781 -13.294 -22.735  0.00  0.00    -0.010 C 
ATOM     18  C   UNL     1      32.935 -14.042 -20.053  0.00  0.00    +0.028 C 
ATOM     19  C   UNL     1      32.187 -12.500 -21.755  0.00  0.00    -0.004 C 
ATOM     20  C   UNL     1      32.264 -12.874 -20.415  0.00  0.00    +0.002 C 
ENDBRANCH   8  12
ENDBRANCH   7   8
ENDBRANCH   4   7
BRANCH   1  21
ATOM     21  C   UNL     1      33.862 -23.228 -17.722  0.00  0.00    +0.047 C 
BRANCH  21  26
ATOM     22  S   UNL     1      34.405 -23.393 -15.020  0.00  0.00    -0.048 S 
ATOM     23  O   UNL     1      31.040 -22.754 -16.798  0.00  0.00    -0.274 OA
ATOM     24  O   UNL     1      33.089 -24.612 -13.098  0.00  0.00    -0.263 OA
ATOM     25  N   UNL     1      31.877 -23.729 -14.874  0.00  0.00    -0.246 N 
ATOM     26  C   UNL     1      33.418 -22.676 -16.369  0.00  0.00    +0.137 C 
ATOM     27  C   UNL     1      31.982 -23.042 -16.066  0.00  0.00    +0.239 C 
ATOM     28  C   UNL     1      33.012 -24.016 -14.162  0.00  0.00    +0.279 C 
ATOM     29  H   UNL     1      30.995 -24.009 -14.539  0.00  0.00    +0.158 HD
ENDBRANCH  21  26
ENDBRANCH   1  21
TORSDOF 5
ENDMDL
MODEL 2
REMARK VINA RESULT:     -11.7      2.934     10.231
REMARK  Name = 9889200
REMARK  5 active torsions:
REMARK  status: ('A' for Active; 'I' for Inactive)
REMARK    1  A    between atoms: C_1  and  C_21
REMARK    2  A    between atoms: C_4  and  O_7
REMARK    3  A    between atoms: O_7  and  C_8
REMARK    4  A    between atoms: C_8  and  C_12
REMARK    5  A    between atoms: C_21  and  C_26
REMARK                            x       y       z     vdW  Elec       q    Type
REMARK                         _______ _______ _______ _____ _____    ______ ____
ROOT
ATOM      1  C   UNL     1      35.306 -20.108 -20.497  0.00  0.00    -0.021 C 
ATOM      2  C   UNL     1      36.174 -20.970 -19.826  0.00  0.00    -0.001 C 
ATOM      3  C   UNL     1      33.927 -20.279 -20.384  0.00  0.00    -0.001 C 
ATOM      4  C   UNL     1      34.287 -22.165 -18.935  0.00  0.00    +0.139 C 
ATOM      5  C   UNL     1      35.661 -22.004 -19.041  0.00  0.00    +0.037 C 
ATOM      6  C   UNL     1      33.414 -21.312 -19.599  0.00  0.00    +0.037 C 
ENDROOT
BRANCH   4   7
ATOM      7  O   UNL     1      33.782 -23.182 -18.161  0.00  0.00    -0.466 OA
BRANCH   7   8
ATOM      8  C   UNL     1      32.878 -22.826 -17.137  0.00  0.00    +0.279 C 
BRANCH   8  12
ATOM      9  O   UNL     1      32.330 -24.848 -12.783  0.00  0.00    -0.274 OA
ATOM     10  N   UNL     1      32.572 -23.871 -14.896  0.00  0.00    -0.232 N 
ATOM     11  N   UNL     1      34.694 -23.039 -15.576  0.00  0.00    -0.391 NA
ATOM     12  C   UNL     1      33.436 -23.261 -15.803  0.00  0.00    +0.210 C 
ATOM     13  C   UNL     1      34.452 -24.057 -13.362  0.00  0.00    +0.151 C 
ATOM     14  C   UNL     1      35.228 -23.435 -14.343  0.00  0.00    +0.123 C 
ATOM     15  C   UNL     1      33.021 -24.302 -13.638  0.00  0.00    +0.241 C 
ATOM     16  C   UNL     1      31.164 -24.085 -15.230  0.00  0.00    +0.122 C 
ATOM     17  C   UNL     1      35.016 -24.441 -12.141  0.00  0.00    -0.010 C 
ATOM     18  C   UNL     1      36.583 -23.201 -14.086  0.00  0.00    +0.028 C 
ATOM     19  C   UNL     1      36.368 -24.202 -11.898  0.00  0.00    -0.004 C 
ATOM     20  C   UNL     1      37.151 -23.582 -12.870  0.00  0.00    +0.002 C 
ENDBRANCH   8  12
ENDBRANCH   7   8
ENDBRANCH   4   7
BRANCH   1  21
ATOM     21  C   UNL     1      35.854 -19.005 -21.336  0.00  0.00    +0.047 C 
BRANCH  21  26
ATOM     22  S   UNL     1      34.860 -18.560 -23.874  0.00  0.00    -0.048 S 
ATOM     23  O   UNL     1      34.926 -16.191 -20.828  0.00  0.00    -0.274 OA
ATOM     24  O   UNL     1      35.084 -16.457 -25.437  0.00  0.00    -0.263 OA
ATOM     25  N   UNL     1      35.008 -16.118 -23.138  0.00  0.00    -0.246 N 
ATOM     26  C   UNL     1      34.758 -18.249 -22.085  0.00  0.00    +0.137 C 
ATOM     27  C   UNL     1      34.906 -16.752 -21.918  0.00  0.00    +0.239 C 
ATOM     28  C   UNL     1      35.001 -16.865 -24.287  0.00  0.00    +0.279 C 
ATOM     29  H   UNL     1      35.083 -15.137 -23.183  0.00  0.00    +0.158 HD
ENDBRANCH  21  26
ENDBRANCH   1  21
TORSDOF 5
ENDMDL
MODEL 3
REMARK VINA RESULT:     -11.7      2.989     10.057
REMARK  Name = 9889200
REMARK  5 active torsions:
REMARK  status: ('A' for Active; 'I' for Inactive)
REMARK    1  A    between atoms: C_1  and  C_21
REMARK    2  A    between atoms: C_4  and  O_7
REMARK    3  A    between atoms: O_7  and  C_8
REMARK    4  A    between atoms: C_8  and  C_12
REMARK    5  A    between atoms: C_21  and  C_26
REMARK                            x       y       z     vdW  Elec       q    Type
REMARK                         _______ _______ _______ _____ _____    ______ ____
ROOT
ATOM      1  C   UNL     1      35.613 -19.914 -20.596  0.00  0.00    -0.021 C 
ATOM      2  C   UNL     1      36.555 -20.651 -19.881  0.00  0.00    -0.001 C 
ATOM      3  C   UNL     1      34.254 -20.196 -20.457  0.00  0.00    -0.001 C 
ATOM      4  C   UNL     1      34.785 -21.947 -18.897  0.00  0.00    +0.139 C 
ATOM      5  C   UNL     1      36.140 -21.674 -19.027  0.00  0.00    +0.037 C 
ATOM      6  C   UNL     1      33.838 -21.218 -19.604  0.00  0.00    +0.037 C 
ENDROOT
BRANCH   4   7
ATOM      7  O   UNL     1      34.376 -22.954 -18.055  0.00  0.00    -0.466 OA
BRANCH   7   8
ATOM      8  C   UNL     1      34.632 -22.786 -16.677  0.00  0.00    +0.279 C 
BRANCH   8  12
ATOM      9  O   UNL     1      32.849 -25.004 -12.772  0.00  0.00    -0.274 OA
ATOM     10  N   UNL     1      33.734 -23.933 -14.656  0.00  0.00    -0.232 N 
ATOM     11  N   UNL     1      32.281 -23.201 -16.390  0.00  0.00    -0.391 NA
ATOM     12  C   UNL     1      33.468 -23.328 -15.882  0.00  0.00    +0.210 C 
ATOM     13  C   UNL     1      31.343 -24.321 -14.424  0.00  0.00    +0.151 C 
ATOM     14  C   UNL     1      31.190 -23.698 -15.665  0.00  0.00    +0.123 C 
ATOM     15  C   UNL     1      32.703 -24.458 -13.862  0.00  0.00    +0.241 C 
ATOM     16  C   UNL     1      35.104 -24.038 -14.153  0.00  0.00    +0.122 C 
ATOM     17  C   UNL     1      30.233 -24.807 -13.726  0.00  0.00    -0.010 C 
ATOM     18  C   UNL     1      29.905 -23.566 -16.202  0.00  0.00    +0.028 C 
ATOM     19  C   UNL     1      28.958 -24.669 -14.272  0.00  0.00    -0.004 C 
ATOM     20  C   UNL     1      28.793 -24.049 -15.509  0.00  0.00    +0.002 C 
ENDBRANCH   8  12
ENDBRANCH   7   8
ENDBRANCH   4   7
BRANCH   1  21
ATOM     21  C   UNL     1      36.057 -18.822 -21.509  0.00  0.00    +0.047 C 
BRANCH  21  26
ATOM     22  S   UNL     1      34.927 -18.450 -24.000  0.00  0.00    -0.048 S 
ATOM     23  O   UNL     1      34.975 -16.071 -20.962  0.00  0.00    -0.274 OA
ATOM     24  O   UNL     1      34.948 -16.342 -25.573  0.00  0.00    -0.263 OA
ATOM     25  N   UNL     1      34.950 -16.001 -23.274  0.00  0.00    -0.246 N 
ATOM     26  C   UNL     1      34.884 -18.140 -22.209  0.00  0.00    +0.137 C 
ATOM     27  C   UNL     1      34.942 -16.636 -22.050  0.00  0.00    +0.239 C 
ATOM     28  C   UNL     1      34.941 -16.750 -24.421  0.00  0.00    +0.279 C 
ATOM     29  H   UNL     1      34.961 -15.018 -23.322  0.00  0.00    +0.158 HD
ENDBRANCH  21  26
ENDBRANCH   1  21
TORSDOF 5
ENDMDL
MODEL 4
REMARK VINA RESULT:     -11.6      1.238      2.555
REMARK  Name = 9889200
REMARK  5 active torsions:
REMARK  status: ('A' for Active; 'I' for Inactive)
REMARK    1  A    between atoms: C_1  and  C_21
REMARK    2  A    between atoms: C_4  and  O_7
REMARK    3  A    between atoms: O_7  and  C_8
REMARK    4  A    between atoms: C_8  and  C_12
REMARK    5  A    between atoms: C_21  and  C_26
REMARK                            x       y       z     vdW  Elec       q    Type
REMARK                         _______ _______ _______ _____ _____    ______ ____
ROOT
ATOM      1  C   UNL     1      34.132 -22.046 -19.031  0.00  0.00    -0.021 C 
ATOM      2  C   UNL     1      35.490 -21.853 -19.281  0.00  0.00    -0.001 C 
ATOM      3  C   UNL     1      33.187 -21.219 -19.637  0.00  0.00    -0.001 C 
ATOM      4  C   UNL     1      34.955 -20.014 -20.735  0.00  0.00    +0.139 C 
ATOM      5  C   UNL     1      35.904 -20.831 -20.137  0.00  0.00    +0.037 C 
ATOM      6  C   UNL     1      33.600 -20.198 -20.493  0.00  0.00    +0.037 C 
ENDROOT
BRANCH   4   7
ATOM      7  O   UNL     1      35.362 -19.008 -21.579  0.00  0.00    -0.466 OA
BRANCH   7   8
ATOM      8  C   UNL     1      35.567 -17.733 -21.012  0.00  0.00    +0.279 C 
BRANCH   8  12
ATOM      9  O   UNL     1      33.050 -13.642 -21.538  0.00  0.00    -0.274 OA
ATOM     10  N   UNL     1      34.267 -15.622 -21.260  0.00  0.00    -0.232 N 
ATOM     11  N   UNL     1      34.990 -16.841 -23.169  0.00  0.00    -0.391 NA
ATOM     12  C   UNL     1      34.913 -16.687 -21.883  0.00  0.00    +0.210 C 
ATOM     13  C   UNL     1      33.716 -14.772 -23.472  0.00  0.00    +0.151 C 
ATOM     14  C   UNL     1      34.389 -15.881 -23.992  0.00  0.00    +0.123 C 
ATOM     15  C   UNL     1      33.639 -14.612 -22.005  0.00  0.00    +0.241 C 
ATOM     16  C   UNL     1      34.225 -15.520 -19.801  0.00  0.00    +0.122 C 
ATOM     17  C   UNL     1      33.126 -13.830 -24.322  0.00  0.00    -0.010 C 
ATOM     18  C   UNL     1      34.464 -16.036 -25.381  0.00  0.00    +0.028 C 
ATOM     19  C   UNL     1      33.210 -13.997 -25.704  0.00  0.00    -0.004 C 
ATOM     20  C   UNL     1      33.878 -15.099 -26.233  0.00  0.00    +0.002 C 
ENDBRANCH   8  12
ENDBRANCH   7   8
ENDBRANCH   4   7
BRANCH   1  21
ATOM     21  C   UNL     1      33.690 -23.137 -18.116  0.00  0.00    +0.047 C 
BRANCH  21  26
ATOM     22  S   UNL     1      34.480 -23.430 -15.486  0.00  0.00    -0.048 S 
ATOM     23  O   UNL     1      30.989 -22.603 -16.908  0.00  0.00    -0.274 OA
ATOM     24  O   UNL     1      33.304 -24.680 -13.494  0.00  0.00    -0.263 OA
ATOM     25  N   UNL     1      31.966 -23.683 -15.112  0.00  0.00    -0.246 N 
ATOM     26  C   UNL     1      33.398 -22.626 -16.707  0.00  0.00    +0.137 C 
ATOM     27  C   UNL     1      31.983 -22.953 -16.282  0.00  0.00    +0.239 C 
ATOM     28  C   UNL     1      33.151 -24.038 -14.523  0.00  0.00    +0.279 C 
ATOM     29  H   UNL     1      31.109 -23.946 -14.703  0.00  0.00    +0.158 HD
ENDBRANCH  21  26
ENDBRANCH   1  21
TORSDOF 5
ENDMDL
MODEL 5
REMARK VINA RESULT:     -11.5      3.027     10.029
REMARK  Name = 9889200
REMARK  5 active torsions:
REMARK  status: ('A' for Active; 'I' for Inactive)
REMARK    1  A    between atoms: C_1  and  C_21
REMARK    2  A    between atoms: C_4  and  O_7
REMARK    3  A    between atoms: O_7  and  C_8
REMARK    4  A    between atoms: C_8  and  C_12
REMARK    5  A    between atoms: C_21  and  C_26
REMARK                            x       y       z     vdW  Elec       q    Type
REMARK                         _______ _______ _______ _____ _____    ______ ____
ROOT
ATOM      1  C   UNL     1      35.661 -19.594 -20.837  0.00  0.00    -0.021 C 
ATOM      2  C   UNL     1      34.308 -19.879 -20.656  0.00  0.00    -0.001 C 
ATOM      3  C   UNL     1      36.628 -20.346 -20.171  0.00  0.00    -0.001 C 
ATOM      4  C   UNL     1      34.893 -21.659 -19.148  0.00  0.00    +0.139 C 
ATOM      5  C   UNL     1      33.922 -20.917 -19.806  0.00  0.00    +0.037 C 
ATOM      6  C   UNL     1      36.243 -21.384 -19.323  0.00  0.00    +0.037 C 
ENDROOT
BRANCH   4   7
ATOM      7  O   UNL     1      34.512 -22.682 -18.313  0.00  0.00    -0.466 OA
BRANCH   7   8
ATOM      8  C   UNL     1      35.091 -22.715 -17.027  0.00  0.00    +0.279 C 
BRANCH   8  12
ATOM      9  O   UNL     1      33.886 -24.224 -12.597  0.00  0.00    -0.274 OA
ATOM     10  N   UNL     1      34.493 -23.492 -14.737  0.00  0.00    -0.232 N 
ATOM     11  N   UNL     1      32.833 -23.281 -16.427  0.00  0.00    -0.391 NA
ATOM     12  C   UNL     1      34.063 -23.186 -16.026  0.00  0.00    +0.210 C 
ATOM     13  C   UNL     1      32.187 -24.049 -14.193  0.00  0.00    +0.151 C 
ATOM     14  C   UNL     1      31.867 -23.717 -15.512  0.00  0.00    +0.123 C 
ATOM     15  C   UNL     1      33.594 -23.935 -13.754  0.00  0.00    +0.241 C 
ATOM     16  C   UNL     1      35.900 -23.358 -14.364  0.00  0.00    +0.122 C 
ATOM     17  C   UNL     1      31.197 -24.481 -13.304  0.00  0.00    -0.010 C 
ATOM     18  C   UNL     1      30.536 -23.824 -15.931  0.00  0.00    +0.028 C 
ATOM     19  C   UNL     1      29.876 -24.582 -13.735  0.00  0.00    -0.004 C 
ATOM     20  C   UNL     1      29.545 -24.254 -15.049  0.00  0.00    +0.002 C 
ENDBRANCH   8  12
ENDBRANCH   7   8
ENDBRANCH   4   7
BRANCH   1  21
ATOM     21  C   UNL     1      36.073 -18.484 -21.744  0.00  0.00    +0.047 C 
BRANCH  21  26
ATOM     22  S   UNL     1      34.909 -18.165 -24.227  0.00  0.00    -0.048 S 
ATOM     23  O   UNL     1      34.948 -15.746 -21.220  0.00  0.00    -0.274 OA
ATOM     24  O   UNL     1      34.876 -16.078 -25.827  0.00  0.00    -0.263 OA
ATOM     25  N   UNL     1      34.898 -15.706 -23.532  0.00  0.00    -0.246 N 
ATOM     26  C   UNL     1      34.880 -17.832 -22.439  0.00  0.00    +0.137 C 
ATOM     27  C   UNL     1      34.914 -16.326 -22.300  0.00  0.00    +0.239 C 
ATOM     28  C   UNL     1      34.889 -16.471 -24.669  0.00  0.00    +0.279 C 
ATOM     29  H   UNL     1      34.890 -14.724 -23.593  0.00  0.00    +0.158 HD
ENDBRANCH  21  26
ENDBRANCH   1  21
TORSDOF 5
ENDMDL
MODEL 6
REMARK VINA RESULT:     -11.4      3.108      9.478
REMARK  Name = 9889200
REMARK  5 active torsions:
REMARK  status: ('A' for Active; 'I' for Inactive)
REMARK    1  A    between atoms: C_1  and  C_21
REMARK    2  A    between atoms: C_4  and  O_7
REMARK    3  A    between atoms: O_7  and  C_8
REMARK    4  A    between atoms: C_8  and  C_12
REMARK    5  A    between atoms: C_21  and  C_26
REMARK                            x       y       z     vdW  Elec       q    Type
REMARK                         _______ _______ _______ _____ _____    ______ ____
ROOT
ATOM      1  C   UNL     1      35.403 -18.629 -22.524  0.00  0.00    -0.021 C 
ATOM      2  C   UNL     1      34.521 -19.454 -21.828  0.00  0.00    -0.001 C 
ATOM      3  C   UNL     1      36.701 -18.437 -22.050  0.00  0.00    -0.001 C 
ATOM      4  C   UNL     1      36.229 -19.892 -20.194  0.00  0.00    +0.139 C 
ATOM      5  C   UNL     1      34.936 -20.089 -20.656  0.00  0.00    +0.037 C 
ATOM      6  C   UNL     1      37.116 -19.072 -20.880  0.00  0.00    +0.037 C 
ENDROOT
BRANCH   4   7
ATOM      7  O   UNL     1      36.639 -20.518 -19.041  0.00  0.00    -0.466 OA
BRANCH   7   8
ATOM      8  C   UNL     1      36.510 -21.922 -18.989  0.00  0.00    +0.279 C 
BRANCH   8  12
ATOM      9  O   UNL     1      36.175 -22.957 -14.281  0.00  0.00    -0.274 OA
ATOM     10  N   UNL     1      36.361 -22.453 -16.559  0.00  0.00    -0.232 N 
ATOM     11  N   UNL     1      34.422 -22.479 -17.936  0.00  0.00    -0.391 NA
ATOM     12  C   UNL     1      35.698 -22.306 -17.775  0.00  0.00    +0.210 C 
ATOM     13  C   UNL     1      34.216 -23.008 -15.554  0.00  0.00    +0.151 C 
ATOM     14  C   UNL     1      33.653 -22.836 -16.821  0.00  0.00    +0.123 C 
ATOM     15  C   UNL     1      35.671 -22.807 -15.390  0.00  0.00    +0.241 C 
ATOM     16  C   UNL     1      37.805 -22.241 -16.462  0.00  0.00    +0.122 C 
ATOM     17  C   UNL     1      33.420 -23.365 -14.460  0.00  0.00    -0.010 C 
ATOM     18  C   UNL     1      32.276 -23.025 -16.980  0.00  0.00    +0.028 C 
ATOM     19  C   UNL     1      32.049 -23.549 -14.633  0.00  0.00    -0.004 C 
ATOM     20  C   UNL     1      31.477 -23.380 -15.893  0.00  0.00    +0.002 C 
ENDBRANCH   8  12
ENDBRANCH   7   8
ENDBRANCH   4   7
BRANCH   1  21
ATOM     21  C   UNL     1      34.959 -17.949 -23.775  0.00  0.00    +0.047 C 
BRANCH  21  26
ATOM     22  S   UNL     1      34.637 -15.745 -22.143  0.00  0.00    -0.048 S 
ATOM     23  O   UNL     1      34.486 -15.975 -25.992  0.00  0.00    -0.274 OA
ATOM     24  O   UNL     1      32.870 -13.801 -22.251  0.00  0.00    -0.263 OA
ATOM     25  N   UNL     1      33.572 -14.763 -24.247  0.00  0.00    -0.246 N 
ATOM     26  C   UNL     1      35.194 -16.441 -23.728  0.00  0.00    +0.137 C 
ATOM     27  C   UNL     1      34.396 -15.724 -24.795  0.00  0.00    +0.239 C 
ATOM     28  C   UNL     1      33.542 -14.600 -22.887  0.00  0.00    +0.279 C 
ATOM     29  H   UNL     1      33.012 -14.200 -24.828  0.00  0.00    +0.158 HD
ENDBRANCH  21  26
ENDBRANCH   1  21
TORSDOF 5
ENDMDL
MODEL 7
REMARK VINA RESULT:     -11.3      1.486      1.749
REMARK  Name = 9889200
REMARK  5 active torsions:
REMARK  status: ('A' for Active; 'I' for Inactive)
REMARK    1  A    between atoms: C_1  and  C_21
REMARK    2  A    between atoms: C_4  and  O_7
REMARK    3  A    between atoms: O_7  and  C_8
REMARK    4  A    between atoms: C_8  and  C_12
REMARK    5  A    between atoms: C_21  and  C_26
REMARK                            x       y       z     vdW  Elec       q    Type
REMARK                         _______ _______ _______ _____ _____    ______ ____
ROOT
ATOM      1  C   UNL     1      34.216 -22.515 -18.079  0.00  0.00    -0.021 C 
ATOM      2  C   UNL     1      33.051 -21.937 -18.583  0.00  0.00    -0.001 C 
ATOM      3  C   UNL     1      35.456 -22.164 -18.613  0.00  0.00    -0.001 C 
ATOM      4  C   UNL     1      34.364 -20.668 -20.146  0.00  0.00    +0.139 C 
ATOM      5  C   UNL     1      33.126 -21.009 -19.623  0.00  0.00    +0.037 C 
ATOM      6  C   UNL     1      35.531 -21.236 -19.651  0.00  0.00    +0.037 C 
ENDROOT
BRANCH   4   7
ATOM      7  O   UNL     1      34.438 -19.752 -21.169  0.00  0.00    -0.466 OA
BRANCH   7   8
ATOM      8  C   UNL     1      35.444 -18.766 -21.081  0.00  0.00    +0.279 C 
BRANCH   8  12
ATOM      9  O   UNL     1      34.721 -16.925 -25.490  0.00  0.00    -0.274 OA
ATOM     10  N   UNL     1      35.077 -17.838 -23.364  0.00  0.00    -0.232 N 
ATOM     11  N   UNL     1      34.828 -16.469 -21.435  0.00  0.00    -0.391 NA
ATOM     12  C   UNL     1      35.094 -17.612 -21.990  0.00  0.00    +0.210 C 
ATOM     13  C   UNL     1      34.454 -15.503 -23.654  0.00  0.00    +0.151 C 
ATOM     14  C   UNL     1      34.502 -15.387 -22.263  0.00  0.00    +0.123 C 
ATOM     15  C   UNL     1      34.760 -16.813 -24.269  0.00  0.00    +0.241 C 
ATOM     16  C   UNL     1      35.390 -19.158 -23.911  0.00  0.00    +0.122 C 
ATOM     17  C   UNL     1      34.125 -14.403 -24.453  0.00  0.00    -0.010 C 
ATOM     18  C   UNL     1      34.213 -14.150 -21.678  0.00  0.00    +0.028 C 
ATOM     19  C   UNL     1      33.839 -13.176 -23.856  0.00  0.00    -0.004 C 
ATOM     20  C   UNL     1      33.883 -13.049 -22.469  0.00  0.00    +0.002 C 
ENDBRANCH   8  12
ENDBRANCH   7   8
ENDBRANCH   4   7
BRANCH   1  21
ATOM     21  C   UNL     1      34.136 -23.507 -16.970  0.00  0.00    +0.047 C 
BRANCH  21  26
ATOM     22  S   UNL     1      35.989 -23.655 -14.928  0.00  0.00    -0.048 S 
ATOM     23  O   UNL     1      32.232 -22.790 -14.756  0.00  0.00    -0.274 OA
ATOM     24  O   UNL     1      35.791 -24.722 -12.533  0.00  0.00    -0.263 OA
ATOM     25  N   UNL     1      33.887 -23.785 -13.482  0.00  0.00    -0.246 N 
ATOM     26  C   UNL     1      34.489 -22.892 -15.617  0.00  0.00    +0.137 C 
ATOM     27  C   UNL     1      33.398 -23.136 -14.597  0.00  0.00    +0.239 C 
ATOM     28  C   UNL     1      35.209 -24.145 -13.440  0.00  0.00    +0.279 C 
ATOM     29  H   UNL     1      33.292 -23.986 -12.724  0.00  0.00    +0.158 HD
ENDBRANCH  21  26
ENDBRANCH   1  21
TORSDOF 5
ENDMDL
MODEL 8
REMARK VINA RESULT:     -11.2      3.422     10.821
REMARK  Name = 9889200
REMARK  5 active torsions:
REMARK  status: ('A' for Active; 'I' for Inactive)
REMARK    1  A    between atoms: C_1  and  C_21
REMARK    2  A    between atoms: C_4  and  O_7
REMARK    3  A    between atoms: O_7  and  C_8
REMARK    4  A    between atoms: C_8  and  C_12
REMARK    5  A    between atoms: C_21  and  C_26
REMARK                            x       y       z     vdW  Elec       q    Type
REMARK                         _______ _______ _______ _____ _____    ______ ____
ROOT
ATOM      1  C   UNL     1      34.124 -20.552 -20.172  0.00  0.00    -0.021 C 
ATOM      2  C   UNL     1      35.442 -20.910 -19.893  0.00  0.00    -0.001 C 
ATOM      3  C   UNL     1      33.077 -21.127 -19.452  0.00  0.00    -0.001 C 
ATOM      4  C   UNL     1      34.666 -22.412 -18.183  0.00  0.00    +0.139 C 
ATOM      5  C   UNL     1      35.715 -21.845 -18.893  0.00  0.00    +0.037 C 
ATOM      6  C   UNL     1      33.349 -22.061 -18.452  0.00  0.00    +0.037 C 
ENDROOT
BRANCH   4   7
ATOM      7  O   UNL     1      34.934 -23.331 -17.197  0.00  0.00    -0.466 OA
BRANCH   7   8
ATOM      8  C   UNL     1      34.220 -23.206 -15.986  0.00  0.00    +0.279 C 
BRANCH   8  12
ATOM      9  O   UNL     1      34.565 -24.905 -11.476  0.00  0.00    -0.274 OA
ATOM     10  N   UNL     1      34.375 -24.076 -13.657  0.00  0.00    -0.232 N 
ATOM     11  N   UNL     1      36.269 -24.094 -15.095  0.00  0.00    -0.391 NA
ATOM     12  C   UNL     1      35.020 -23.827 -14.866  0.00  0.00    +0.210 C 
ATOM     13  C   UNL     1      36.480 -24.962 -12.815  0.00  0.00    +0.151 C 
ATOM     14  C   UNL     1      37.026 -24.669 -14.067  0.00  0.00    +0.123 C 
ATOM     15  C   UNL     1      35.055 -24.652 -12.572  0.00  0.00    +0.241 C 
ATOM     16  C   UNL     1      32.962 -23.745 -13.479  0.00  0.00    +0.122 C 
ATOM     17  C   UNL     1      37.263 -25.538 -11.809  0.00  0.00    -0.010 C 
ATOM     18  C   UNL     1      38.374 -24.962 -14.301  0.00  0.00    +0.028 C 
ATOM     19  C   UNL     1      38.605 -25.824 -12.057  0.00  0.00    -0.004 C 
ATOM     20  C   UNL     1      39.160 -25.536 -13.302  0.00  0.00    +0.002 C 
ENDBRANCH   8  12
ENDBRANCH   7   8
ENDBRANCH   4   7
BRANCH   1  21
ATOM     21  C   UNL     1      33.833 -19.555 -21.241  0.00  0.00    +0.047 C 
BRANCH  21  26
ATOM     22  S   UNL     1      35.129 -17.117 -21.208  0.00  0.00    -0.048 S 
ATOM     23  O   UNL     1      35.106 -19.831 -23.951  0.00  0.00    -0.274 OA
ATOM     24  O   UNL     1      35.370 -15.300 -23.093  0.00  0.00    -0.263 OA
ATOM     25  N   UNL     1      35.266 -17.535 -23.724  0.00  0.00    -0.246 N 
ATOM     26  C   UNL     1      35.096 -18.856 -21.739  0.00  0.00    +0.137 C 
ATOM     27  C   UNL     1      35.152 -18.825 -23.250  0.00  0.00    +0.239 C 
ATOM     28  C   UNL     1      35.278 -16.492 -22.836  0.00  0.00    +0.279 C 
ATOM     29  H   UNL     1      35.339 -17.366 -24.691  0.00  0.00    +0.158 HD
ENDBRANCH  21  26
ENDBRANCH   1  21
TORSDOF 5
ENDMDL
MODEL 9
REMARK VINA RESULT:     -11.1      2.557      4.476
REMARK  Name = 9889200
REMARK  5 active torsions:
REMARK  status: ('A' for Active; 'I' for Inactive)
REMARK    1  A    between atoms: C_1  and  C_21
REMARK    2  A    between atoms: C_4  and  O_7
REMARK    3  A    between atoms: O_7  and  C_8
REMARK    4  A    between atoms: C_8  and  C_12
REMARK    5  A    between atoms: C_21  and  C_26
REMARK                            x       y       z     vdW  Elec       q    Type
REMARK                         _______ _______ _______ _____ _____    ______ ____
ROOT
ATOM      1  C   UNL     1      35.045 -18.827 -21.967  0.00  0.00    -0.021 C 
ATOM      2  C   UNL     1      35.033 -17.788 -21.037  0.00  0.00    -0.001 C 
ATOM      3  C   UNL     1      35.050 -18.542 -23.332  0.00  0.00    -0.001 C 
ATOM      4  C   UNL     1      35.030 -16.190 -22.833  0.00  0.00    +0.139 C 
ATOM      5  C   UNL     1      35.025 -16.462 -21.473  0.00  0.00    +0.037 C 
ATOM      6  C   UNL     1      35.043 -17.217 -23.768  0.00  0.00    +0.037 C 
ENDROOT
BRANCH   4   7
ATOM      7  O   UNL     1      35.024 -14.884 -23.262  0.00  0.00    -0.466 OA
BRANCH   7   8
ATOM      8  C   UNL     1      33.836 -14.403 -23.852  0.00  0.00    +0.279 C 
BRANCH   8  12
ATOM      9  O   UNL     1      33.309  -9.619 -23.422  0.00  0.00    -0.274 OA
ATOM     10  N   UNL     1      33.576 -11.934 -23.650  0.00  0.00    -0.232 N 
ATOM     11  N   UNL     1      32.761 -13.389 -21.955  0.00  0.00    -0.391 NA
ATOM     12  C   UNL     1      33.355 -13.191 -23.092  0.00  0.00    +0.210 C 
ATOM     13  C   UNL     1      32.477 -10.970 -21.705  0.00  0.00    +0.151 C 
ATOM     14  C   UNL     1      32.308 -12.275 -21.237  0.00  0.00    +0.123 C 
ATOM     15  C   UNL     1      33.156 -10.762 -23.002  0.00  0.00    +0.241 C 
ATOM     16  C   UNL     1      34.255 -11.795 -24.938  0.00  0.00    +0.122 C 
ATOM     17  C   UNL     1      32.013  -9.878 -20.963  0.00  0.00    -0.010 C 
ATOM     18  C   UNL     1      31.666 -12.475 -20.010  0.00  0.00    +0.028 C 
ATOM     19  C   UNL     1      31.374 -10.093 -19.743  0.00  0.00    -0.004 C 
ATOM     20  C   UNL     1      31.201 -11.391 -19.266  0.00  0.00    +0.002 C 
ENDBRANCH   8  12
ENDBRANCH   7   8
ENDBRANCH   4   7
BRANCH   1  21
ATOM     21  C   UNL     1      35.052 -20.244 -21.502  0.00  0.00    +0.047 C 
BRANCH  21  26
ATOM     22  S   UNL     1      35.561 -21.682 -19.200  0.00  0.00    -0.048 S 
ATOM     23  O   UNL     1      32.243 -20.143 -20.433  0.00  0.00    -0.274 OA
ATOM     24  O   UNL     1      34.175 -23.605 -18.063  0.00  0.00    -0.263 OA
ATOM     25  N   UNL     1      33.019 -21.941 -19.202  0.00  0.00    -0.246 N 
ATOM     26  C   UNL     1      34.618 -20.375 -20.043  0.00  0.00    +0.137 C 
ATOM     27  C   UNL     1      33.164 -20.780 -19.933  0.00  0.00    +0.239 C 
ATOM     28  C   UNL     1      34.134 -22.576 -18.721  0.00  0.00    +0.279 C 
ATOM     29  H   UNL     1      32.123 -22.309 -19.028  0.00  0.00    +0.158 HD
ENDBRANCH  21  26
ENDBRANCH   1  21
TORSDOF 5
ENDMDL
