MODEL 1
REMARK VINA RESULT:     -13.4      0.000      0.000
REMARK  Name = 16750097
REMARK  3 active torsions:
REMARK  status: ('A' for Active; 'I' for Inactive)
REMARK    1  A    between atoms: N_3  and  C_10
REMARK    2  A    between atoms: N_3  and  C_23
REMARK    3  A    between atoms: C_23  and  C_24
REMARK                            x       y       z     vdW  Elec       q    Type
REMARK                         _______ _______ _______ _____ _____    ______ ____
ROOT
ATOM      1  O   UNL     1      31.889 -22.782 -17.452  0.00  0.00    -0.209 OA
ATOM      2  N   UNL     1      33.819 -19.838 -21.352  0.00  0.00    -0.305 N 
ATOM      3  N   UNL     1      36.033 -19.844 -21.170  0.00  0.00    -0.305 N 
ATOM      4  N   UNL     1      35.884 -22.758 -17.172  0.00  0.00    -0.275 N 
ATOM      5  N   UNL     1      33.770 -23.477 -16.347  0.00  0.00    -0.302 NA
ATOM      6  N   UNL     1      35.780 -24.107 -15.320  0.00  0.00    -0.320 N 
ATOM      7  C   UNL     1      34.094 -20.617 -20.258  0.00  0.00    +0.061 C 
ATOM      8  C   UNL     1      35.482 -20.606 -20.165  0.00  0.00    +0.061 C 
ATOM      9  C   UNL     1      35.009 -19.399 -21.862  0.00  0.00    +0.208 C 
ATOM     10  C   UNL     1      35.309 -22.030 -18.218  0.00  0.00    +0.064 C 
ATOM     11  C   UNL     1      33.912 -22.018 -18.345  0.00  0.00    +0.110 C 
ATOM     12  C   UNL     1      33.268 -21.309 -19.370  0.00  0.00    +0.030 C 
ATOM     13  C   UNL     1      36.108 -21.322 -19.131  0.00  0.00    +0.031 C 
ATOM     14  C   UNL     1      33.112 -22.786 -17.349  0.00  0.00    +0.208 C 
ATOM     15  C   UNL     1      35.076 -23.442 -16.293  0.00  0.00    +0.248 C 
ATOM     16  H   UNL     1      32.925 -19.631 -21.707  0.00  0.00    +0.150 HD
ATOM     17  H   UNL     1      36.988 -19.670 -21.334  0.00  0.00    +0.150 HD
ATOM     18  H   UNL     1      36.862 -22.781 -17.064  0.00  0.00    +0.156 HD
ATOM     19  H   UNL     1      36.763 -24.062 -15.306  0.00  0.00    +0.146 HD
ATOM     20  H   UNL     1      35.301 -24.629 -14.637  0.00  0.00    +0.146 HD
ENDROOT
BRANCH   9  21
ATOM     21  N   UNL     1      34.984 -18.605 -22.955  0.00  0.00    -0.263 NA
ATOM     22  H   UNL     1      34.413 -18.880 -23.708  0.00  0.00    +0.127 HD
BRANCH  21  23
ATOM     23  C   UNL     1      35.741 -17.374 -23.096  0.00  0.00    +0.098 C 
BRANCH  23  24
ATOM     24  C   UNL     1      34.862 -16.272 -23.620  0.00  0.00    -0.006 C 
ATOM     25  C   UNL     1      34.221 -15.361 -22.765  0.00  0.00    -0.003 C 
ATOM     26  C   UNL     1      33.406 -14.345 -23.321  0.00  0.00    -0.000 C 
ATOM     27  C   UNL     1      34.702 -16.183 -25.003  0.00  0.00    -0.003 C 
ATOM     28  C   UNL     1      34.370 -15.434 -21.371  0.00  0.00    -0.000 C 
ATOM     29  C   UNL     1      33.257 -14.272 -24.716  0.00  0.00    -0.000 C 
ATOM     30  C   UNL     1      33.902 -15.186 -25.550  0.00  0.00    -0.000 C 
ATOM     31  C   UNL     1      32.765 -13.434 -22.467  0.00  0.00    -0.000 C 
ATOM     32  C   UNL     1      33.724 -14.521 -20.537  0.00  0.00    -0.000 C 
ATOM     33  C   UNL     1      32.924 -13.522 -21.084  0.00  0.00    -0.000 C 
ENDBRANCH  23  24
ENDBRANCH  21  23
ENDBRANCH   9  21
TORSDOF 3
ENDMDL
MODEL 2
REMARK VINA RESULT:     -13.2      0.740      2.124
REMARK  Name = 16750097
REMARK  3 active torsions:
REMARK  status: ('A' for Active; 'I' for Inactive)
REMARK    1  A    between atoms: N_3  and  C_10
REMARK    2  A    between atoms: N_3  and  C_23
REMARK    3  A    between atoms: C_23  and  C_24
REMARK                            x       y       z     vdW  Elec       q    Type
REMARK                         _______ _______ _______ _____ _____    ______ ____
ROOT
ATOM      1  O   UNL     1      31.552 -23.033 -17.087  0.00  0.00    -0.209 OA
ATOM      2  N   UNL     1      33.802 -20.176 -20.880  0.00  0.00    -0.305 N 
ATOM      3  N   UNL     1      36.001 -20.261 -20.574  0.00  0.00    -0.305 N 
ATOM      4  N   UNL     1      35.524 -23.150 -16.585  0.00  0.00    -0.275 N 
ATOM      5  N   UNL     1      33.343 -23.790 -15.877  0.00  0.00    -0.302 NA
ATOM      6  N   UNL     1      35.268 -24.487 -14.739  0.00  0.00    -0.320 N 
ATOM      7  C   UNL     1      33.988 -20.960 -19.770  0.00  0.00    +0.061 C 
ATOM      8  C   UNL     1      35.368 -20.999 -19.601  0.00  0.00    +0.061 C 
ATOM      9  C   UNL     1      35.034 -19.782 -21.324  0.00  0.00    +0.208 C 
ATOM     10  C   UNL     1      35.035 -22.407 -17.663  0.00  0.00    +0.064 C 
ATOM     11  C   UNL     1      33.648 -22.346 -17.868  0.00  0.00    +0.110 C 
ATOM     12  C   UNL     1      33.088 -21.618 -18.929  0.00  0.00    +0.030 C 
ATOM     13  C   UNL     1      35.909 -21.732 -18.531  0.00  0.00    +0.031 C 
ATOM     14  C   UNL     1      32.767 -23.080 -16.916  0.00  0.00    +0.208 C 
ATOM     15  C   UNL     1      34.644 -23.802 -15.750  0.00  0.00    +0.248 C 
ATOM     16  H   UNL     1      32.937 -19.939 -21.285  0.00  0.00    +0.150 HD
ATOM     17  H   UNL     1      36.969 -20.122 -20.685  0.00  0.00    +0.150 HD
ATOM     18  H   UNL     1      36.493 -23.208 -16.422  0.00  0.00    +0.156 HD
ATOM     19  H   UNL     1      36.250 -24.477 -14.669  0.00  0.00    +0.146 HD
ATOM     20  H   UNL     1      34.733 -24.989 -14.082  0.00  0.00    +0.146 HD
ENDROOT
BRANCH   9  21
ATOM     21  N   UNL     1      35.098 -18.993 -22.418  0.00  0.00    -0.263 NA
ATOM     22  H   UNL     1      34.576 -19.261 -23.209  0.00  0.00    +0.127 HD
BRANCH  21  23
ATOM     23  C   UNL     1      35.884 -17.775 -22.510  0.00  0.00    +0.098 C 
BRANCH  23  24
ATOM     24  C   UNL     1      35.023 -16.571 -22.248  0.00  0.00    -0.006 C 
ATOM     25  C   UNL     1      34.467 -15.812 -23.290  0.00  0.00    -0.003 C 
ATOM     26  C   UNL     1      33.665 -14.689 -22.977  0.00  0.00    -0.000 C 
ATOM     27  C   UNL     1      34.793 -16.226 -20.916  0.00  0.00    -0.003 C 
ATOM     28  C   UNL     1      34.688 -16.144 -24.637  0.00  0.00    -0.000 C 
ATOM     29  C   UNL     1      33.444 -14.356 -21.630  0.00  0.00    -0.000 C 
ATOM     30  C   UNL     1      34.005 -15.122 -20.607  0.00  0.00    -0.000 C 
ATOM     31  C   UNL     1      33.108 -13.930 -24.019  0.00  0.00    -0.000 C 
ATOM     32  C   UNL     1      34.127 -15.378 -25.660  0.00  0.00    -0.000 C 
ATOM     33  C   UNL     1      33.338 -14.274 -25.351  0.00  0.00    -0.000 C 
ENDBRANCH  23  24
ENDBRANCH  21  23
ENDBRANCH   9  21
TORSDOF 3
ENDMDL
MODEL 3
REMARK VINA RESULT:     -12.8      3.162      9.114
REMARK  Name = 16750097
REMARK  3 active torsions:
REMARK  status: ('A' for Active; 'I' for Inactive)
REMARK    1  A    between atoms: N_3  and  C_10
REMARK    2  A    between atoms: N_3  and  C_23
REMARK    3  A    between atoms: C_23  and  C_24
REMARK                            x       y       z     vdW  Elec       q    Type
REMARK                         _______ _______ _______ _____ _____    ______ ____
ROOT
ATOM      1  O   UNL     1      33.912 -15.632 -26.235  0.00  0.00    -0.209 OA
ATOM      2  N   UNL     1      35.247 -19.258 -22.675  0.00  0.00    -0.305 N 
ATOM      3  N   UNL     1      35.465 -18.233 -20.716  0.00  0.00    -0.305 N 
ATOM      4  N   UNL     1      34.320 -13.836 -22.679  0.00  0.00    -0.275 N 
ATOM      5  N   UNL     1      33.831 -13.703 -25.004  0.00  0.00    -0.302 NA
ATOM      6  N   UNL     1      33.787 -11.813 -23.620  0.00  0.00    -0.320 N 
ATOM      7  C   UNL     1      34.973 -17.937 -22.920  0.00  0.00    +0.061 C 
ATOM      8  C   UNL     1      35.115 -17.318 -21.683  0.00  0.00    +0.061 C 
ATOM      9  C   UNL     1      35.536 -19.385 -21.345  0.00  0.00    +0.208 C 
ATOM     10  C   UNL     1      34.545 -15.215 -22.731  0.00  0.00    +0.064 C 
ATOM     11  C   UNL     1      34.410 -15.875 -23.962  0.00  0.00    +0.110 C 
ATOM     12  C   UNL     1      34.622 -17.256 -24.088  0.00  0.00    +0.030 C 
ATOM     13  C   UNL     1      34.899 -15.934 -21.577  0.00  0.00    +0.031 C 
ATOM     14  C   UNL     1      34.033 -15.063 -25.154  0.00  0.00    +0.208 C 
ATOM     15  C   UNL     1      33.974 -13.157 -23.824  0.00  0.00    +0.248 C 
ATOM     16  H   UNL     1      35.238 -19.986 -23.337  0.00  0.00    +0.150 HD
ATOM     17  H   UNL     1      35.629 -18.061 -19.761  0.00  0.00    +0.150 HD
ATOM     18  H   UNL     1      34.408 -13.353 -21.826  0.00  0.00    +0.156 HD
ATOM     19  H   UNL     1      33.903 -11.432 -22.719  0.00  0.00    +0.146 HD
ATOM     20  H   UNL     1      33.538 -11.231 -24.373  0.00  0.00    +0.146 HD
ENDROOT
BRANCH   9  21
ATOM     21  N   UNL     1      35.843 -20.611 -20.869  0.00  0.00    -0.263 NA
ATOM     22  H   UNL     1      35.617 -21.389 -21.428  0.00  0.00    +0.127 HD
BRANCH  21  23
ATOM     23  C   UNL     1      36.483 -20.862 -19.590  0.00  0.00    +0.098 C 
BRANCH  23  24
ATOM     24  C   UNL     1      35.561 -21.626 -18.680  0.00  0.00    -0.006 C 
ATOM     25  C   UNL     1      35.993 -22.145 -17.449  0.00  0.00    -0.003 C 
ATOM     26  C   UNL     1      35.076 -22.856 -16.637  0.00  0.00    -0.000 C 
ATOM     27  C   UNL     1      34.245 -21.805 -19.105  0.00  0.00    -0.003 C 
ATOM     28  C   UNL     1      37.314 -21.976 -17.004  0.00  0.00    -0.000 C 
ATOM     29  C   UNL     1      33.754 -23.026 -17.082  0.00  0.00    -0.000 C 
ATOM     30  C   UNL     1      33.343 -22.503 -18.308  0.00  0.00    -0.000 C 
ATOM     31  C   UNL     1      35.507 -23.375 -15.406  0.00  0.00    -0.000 C 
ATOM     32  C   UNL     1      37.726 -22.499 -15.778  0.00  0.00    -0.000 C 
ATOM     33  C   UNL     1      36.823 -23.197 -14.980  0.00  0.00    -0.000 C 
ENDBRANCH  23  24
ENDBRANCH  21  23
ENDBRANCH   9  21
TORSDOF 3
ENDMDL
MODEL 4
REMARK VINA RESULT:     -12.7      1.553      2.925
REMARK  Name = 16750097
REMARK  3 active torsions:
REMARK  status: ('A' for Active; 'I' for Inactive)
REMARK    1  A    between atoms: N_3  and  C_10
REMARK    2  A    between atoms: N_3  and  C_23
REMARK    3  A    between atoms: C_23  and  C_24
REMARK                            x       y       z     vdW  Elec       q    Type
REMARK                         _______ _______ _______ _____ _____    ______ ____
ROOT
ATOM      1  O   UNL     1      38.039 -22.418 -16.131  0.00  0.00    -0.209 OA
ATOM      2  N   UNL     1      36.097 -20.096 -20.426  0.00  0.00    -0.305 N 
ATOM      3  N   UNL     1      33.958 -20.669 -20.593  0.00  0.00    -0.305 N 
ATOM      4  N   UNL     1      34.177 -23.418 -16.484  0.00  0.00    -0.275 N 
ATOM      5  N   UNL     1      36.238 -23.566 -15.304  0.00  0.00    -0.302 NA
ATOM      6  N   UNL     1      34.313 -24.685 -14.577  0.00  0.00    -0.320 N 
ATOM      7  C   UNL     1      35.852 -20.912 -19.351  0.00  0.00    +0.061 C 
ATOM      8  C   UNL     1      34.509 -21.256 -19.478  0.00  0.00    +0.061 C 
ATOM      9  C   UNL     1      34.936 -19.981 -21.138  0.00  0.00    +0.208 C 
ATOM     10  C   UNL     1      34.714 -22.575 -17.461  0.00  0.00    +0.064 C 
ATOM     11  C   UNL     1      36.064 -22.205 -17.367  0.00  0.00    +0.110 C 
ATOM     12  C   UNL     1      36.668 -21.363 -18.312  0.00  0.00    +0.030 C 
ATOM     13  C   UNL     1      33.923 -22.101 -18.521  0.00  0.00    +0.031 C 
ATOM     14  C   UNL     1      36.857 -22.736 -16.222  0.00  0.00    +0.208 C 
ATOM     15  C   UNL     1      34.975 -23.867 -15.457  0.00  0.00    +0.248 C 
ATOM     16  H   UNL     1      36.956 -19.668 -20.646  0.00  0.00    +0.150 HD
ATOM     17  H   UNL     1      33.030 -20.748 -20.914  0.00  0.00    +0.150 HD
ATOM     18  H   UNL     1      33.233 -23.690 -16.530  0.00  0.00    +0.156 HD
ATOM     19  H   UNL     1      33.362 -24.893 -14.719  0.00  0.00    +0.146 HD
ATOM     20  H   UNL     1      34.790 -25.064 -13.803  0.00  0.00    +0.146 HD
ENDROOT
BRANCH   9  21
ATOM     21  N   UNL     1      34.940 -19.217 -22.252  0.00  0.00    -0.263 NA
ATOM     22  H   UNL     1      34.327 -19.467 -22.981  0.00  0.00    +0.127 HD
BRANCH  21  23
ATOM     23  C   UNL     1      35.785 -18.053 -22.449  0.00  0.00    +0.098 C 
BRANCH  23  24
ATOM     24  C   UNL     1      35.010 -16.790 -22.197  0.00  0.00    -0.006 C 
ATOM     25  C   UNL     1      34.503 -16.006 -23.246  0.00  0.00    -0.003 C 
ATOM     26  C   UNL     1      33.781 -14.826 -22.942  0.00  0.00    -0.000 C 
ATOM     27  C   UNL     1      34.809 -16.416 -20.868  0.00  0.00    -0.003 C 
ATOM     28  C   UNL     1      34.696 -16.366 -24.589  0.00  0.00    -0.000 C 
ATOM     29  C   UNL     1      33.588 -14.466 -21.598  0.00  0.00    -0.000 C 
ATOM     30  C   UNL     1      34.099 -15.257 -20.569  0.00  0.00    -0.000 C 
ATOM     31  C   UNL     1      33.274 -14.043 -23.991  0.00  0.00    -0.000 C 
ATOM     32  C   UNL     1      34.185 -15.574 -25.619  0.00  0.00    -0.000 C 
ATOM     33  C   UNL     1      33.475 -14.415 -25.320  0.00  0.00    -0.000 C 
ENDBRANCH  23  24
ENDBRANCH  21  23
ENDBRANCH   9  21
TORSDOF 3
ENDMDL
MODEL 5
REMARK VINA RESULT:     -12.7      3.129      9.146
REMARK  Name = 16750097
REMARK  3 active torsions:
REMARK  status: ('A' for Active; 'I' for Inactive)
REMARK    1  A    between atoms: N_3  and  C_10
REMARK    2  A    between atoms: N_3  and  C_23
REMARK    3  A    between atoms: C_23  and  C_24
REMARK                            x       y       z     vdW  Elec       q    Type
REMARK                         _______ _______ _______ _____ _____    ______ ____
ROOT
ATOM      1  O   UNL     1      33.949 -15.730 -26.249  0.00  0.00    -0.209 OA
ATOM      2  N   UNL     1      35.242 -19.204 -22.525  0.00  0.00    -0.305 N 
ATOM      3  N   UNL     1      35.454 -18.095 -20.612  0.00  0.00    -0.305 N 
ATOM      4  N   UNL     1      34.345 -13.782 -22.772  0.00  0.00    -0.275 N 
ATOM      5  N   UNL     1      33.871 -13.748 -25.104  0.00  0.00    -0.302 NA
ATOM      6  N   UNL     1      33.829 -11.800 -23.804  0.00  0.00    -0.320 N 
ATOM      7  C   UNL     1      34.976 -17.894 -22.830  0.00  0.00    +0.061 C 
ATOM      8  C   UNL     1      35.114 -17.222 -21.620  0.00  0.00    +0.061 C 
ATOM      9  C   UNL     1      35.522 -19.274 -21.189  0.00  0.00    +0.208 C 
ATOM     10  C   UNL     1      34.563 -15.163 -22.763  0.00  0.00    +0.064 C 
ATOM     11  C   UNL     1      34.432 -15.876 -23.964  0.00  0.00    +0.110 C 
ATOM     12  C   UNL     1      34.636 -17.262 -24.028  0.00  0.00    +0.030 C 
ATOM     13  C   UNL     1      34.906 -15.833 -21.577  0.00  0.00    +0.031 C 
ATOM     14  C   UNL     1      34.066 -15.115 -25.194  0.00  0.00    +0.208 C 
ATOM     15  C   UNL     1      34.010 -13.152 -23.949  0.00  0.00    +0.248 C 
ATOM     16  H   UNL     1      35.233 -19.960 -23.155  0.00  0.00    +0.150 HD
ATOM     17  H   UNL     1      35.612 -17.882 -19.664  0.00  0.00    +0.150 HD
ATOM     18  H   UNL     1      34.431 -13.263 -21.941  0.00  0.00    +0.156 HD
ATOM     19  H   UNL     1      33.942 -11.380 -22.920  0.00  0.00    +0.146 HD
ATOM     20  H   UNL     1      33.588 -11.249 -24.583  0.00  0.00    +0.146 HD
ENDROOT
BRANCH   9  21
ATOM     21  N   UNL     1      35.819 -20.480 -20.658  0.00  0.00    -0.263 NA
ATOM     22  H   UNL     1      36.746 -20.801 -20.740  0.00  0.00    +0.127 HD
BRANCH  21  23
ATOM     23  C   UNL     1      34.865 -21.335 -19.974  0.00  0.00    +0.098 C 
BRANCH  23  24
ATOM     24  C   UNL     1      35.406 -21.764 -18.638  0.00  0.00    -0.006 C 
ATOM     25  C   UNL     1      34.590 -22.352 -17.659  0.00  0.00    -0.003 C 
ATOM     26  C   UNL     1      35.160 -22.735 -16.421  0.00  0.00    -0.000 C 
ATOM     27  C   UNL     1      36.765 -21.555 -18.400  0.00  0.00    -0.003 C 
ATOM     28  C   UNL     1      33.220 -22.570 -17.880  0.00  0.00    -0.000 C 
ATOM     29  C   UNL     1      36.530 -22.516 -16.199  0.00  0.00    -0.000 C 
ATOM     30  C   UNL     1      37.326 -21.931 -17.184  0.00  0.00    -0.000 C 
ATOM     31  C   UNL     1      34.344 -23.323 -15.441  0.00  0.00    -0.000 C 
ATOM     32  C   UNL     1      32.424 -23.156 -16.895  0.00  0.00    -0.000 C 
ATOM     33  C   UNL     1      32.985 -23.532 -15.678  0.00  0.00    -0.000 C 
ENDBRANCH  23  24
ENDBRANCH  21  23
ENDBRANCH   9  21
TORSDOF 3
ENDMDL
MODEL 6
REMARK VINA RESULT:     -12.7      1.503      2.094
REMARK  Name = 16750097
REMARK  3 active torsions:
REMARK  status: ('A' for Active; 'I' for Inactive)
REMARK    1  A    between atoms: N_3  and  C_10
REMARK    2  A    between atoms: N_3  and  C_23
REMARK    3  A    between atoms: C_23  and  C_24
REMARK                            x       y       z     vdW  Elec       q    Type
REMARK                         _______ _______ _______ _____ _____    ______ ____
ROOT
ATOM      1  O   UNL     1      37.965 -22.410 -16.134  0.00  0.00    -0.209 OA
ATOM      2  N   UNL     1      36.024 -20.081 -20.426  0.00  0.00    -0.305 N 
ATOM      3  N   UNL     1      33.892 -20.678 -20.611  0.00  0.00    -0.305 N 
ATOM      4  N   UNL     1      34.117 -23.452 -16.519  0.00  0.00    -0.275 N 
ATOM      5  N   UNL     1      36.172 -23.584 -15.327  0.00  0.00    -0.302 NA
ATOM      6  N   UNL     1      34.256 -24.731 -14.620  0.00  0.00    -0.320 N 
ATOM      7  C   UNL     1      35.781 -20.908 -19.359  0.00  0.00    +0.061 C 
ATOM      8  C   UNL     1      34.443 -21.266 -19.497  0.00  0.00    +0.061 C 
ATOM      9  C   UNL     1      34.866 -19.975 -21.145  0.00  0.00    +0.208 C 
ATOM     10  C   UNL     1      34.650 -22.596 -17.487  0.00  0.00    +0.064 C 
ATOM     11  C   UNL     1      35.995 -22.211 -17.382  0.00  0.00    +0.110 C 
ATOM     12  C   UNL     1      36.596 -21.356 -18.317  0.00  0.00    +0.030 C 
ATOM     13  C   UNL     1      33.860 -22.124 -18.549  0.00  0.00    +0.031 C 
ATOM     14  C   UNL     1      36.788 -22.742 -16.235  0.00  0.00    +0.208 C 
ATOM     15  C   UNL     1      34.914 -23.899 -15.490  0.00  0.00    +0.248 C 
ATOM     16  H   UNL     1      36.879 -19.642 -20.637  0.00  0.00    +0.150 HD
ATOM     17  H   UNL     1      32.967 -20.765 -20.939  0.00  0.00    +0.150 HD
ATOM     18  H   UNL     1      33.176 -23.735 -16.573  0.00  0.00    +0.156 HD
ATOM     19  H   UNL     1      33.307 -24.949 -14.770  0.00  0.00    +0.146 HD
ATOM     20  H   UNL     1      34.731 -25.109 -13.846  0.00  0.00    +0.146 HD
ENDROOT
BRANCH   9  21
ATOM     21  N   UNL     1      34.868 -19.203 -22.253  0.00  0.00    -0.263 NA
ATOM     22  H   UNL     1      34.205 -19.405 -22.953  0.00  0.00    +0.127 HD
BRANCH  21  23
ATOM     23  C   UNL     1      35.779 -18.097 -22.485  0.00  0.00    +0.098 C 
BRANCH  23  24
ATOM     24  C   UNL     1      35.059 -16.948 -23.134  0.00  0.00    -0.006 C 
ATOM     25  C   UNL     1      34.457 -15.926 -22.384  0.00  0.00    -0.003 C 
ATOM     26  C   UNL     1      33.794 -14.871 -23.056  0.00  0.00    -0.000 C 
ATOM     27  C   UNL     1      35.009 -16.930 -24.529  0.00  0.00    -0.003 C 
ATOM     28  C   UNL     1      34.497 -15.927 -20.980  0.00  0.00    -0.000 C 
ATOM     29  C   UNL     1      33.753 -14.871 -24.460  0.00  0.00    -0.000 C 
ATOM     30  C   UNL     1      34.358 -15.894 -25.190  0.00  0.00    -0.000 C 
ATOM     31  C   UNL     1      33.191 -13.850 -22.305  0.00  0.00    -0.000 C 
ATOM     32  C   UNL     1      33.892 -14.903 -20.249  0.00  0.00    -0.000 C 
ATOM     33  C   UNL     1      33.241 -13.866 -20.911  0.00  0.00    -0.000 C 
ENDBRANCH  23  24
ENDBRANCH  21  23
ENDBRANCH   9  21
TORSDOF 3
ENDMDL
MODEL 7
REMARK VINA RESULT:     -12.5      2.939      9.172
REMARK  Name = 16750097
REMARK  3 active torsions:
REMARK  status: ('A' for Active; 'I' for Inactive)
REMARK    1  A    between atoms: N_3  and  C_10
REMARK    2  A    between atoms: N_3  and  C_23
REMARK    3  A    between atoms: C_23  and  C_24
REMARK                            x       y       z     vdW  Elec       q    Type
REMARK                         _______ _______ _______ _____ _____    ______ ____
ROOT
ATOM      1  O   UNL     1      33.839 -13.285 -21.923  0.00  0.00    -0.209 OA
ATOM      2  N   UNL     1      35.356 -18.147 -20.631  0.00  0.00    -0.305 N 
ATOM      3  N   UNL     1      35.517 -19.325 -22.508  0.00  0.00    -0.305 N 
ATOM      4  N   UNL     1      34.145 -15.457 -25.274  0.00  0.00    -0.275 N 
ATOM      5  N   UNL     1      33.652 -13.390 -24.203  0.00  0.00    -0.302 NA
ATOM      6  N   UNL     1      33.506 -13.645 -26.527  0.00  0.00    -0.320 N 
ATOM      7  C   UNL     1      35.012 -17.281 -21.637  0.00  0.00    +0.061 C 
ATOM      8  C   UNL     1      35.121 -18.040 -22.798  0.00  0.00    +0.061 C 
ATOM      9  C   UNL     1      35.648 -19.355 -21.200  0.00  0.00    +0.208 C 
ATOM     10  C   UNL     1      34.443 -16.095 -24.066  0.00  0.00    +0.064 C 
ATOM     11  C   UNL     1      34.345 -15.363 -22.873  0.00  0.00    +0.110 C 
ATOM     12  C   UNL     1      34.628 -15.939 -21.626  0.00  0.00    +0.030 C 
ATOM     13  C   UNL     1      34.833 -17.444 -24.038  0.00  0.00    +0.031 C 
ATOM     14  C   UNL     1      33.926 -13.934 -22.961  0.00  0.00    +0.208 C 
ATOM     15  C   UNL     1      33.766 -14.134 -25.271  0.00  0.00    +0.248 C 
ATOM     16  H   UNL     1      35.386 -17.938 -19.670  0.00  0.00    +0.150 HD
ATOM     17  H   UNL     1      35.668 -20.062 -23.142  0.00  0.00    +0.150 HD
ATOM     18  H   UNL     1      34.208 -15.951 -26.122  0.00  0.00    +0.156 HD
ATOM     19  H   UNL     1      33.600 -14.231 -27.312  0.00  0.00    +0.146 HD
ATOM     20  H   UNL     1      33.225 -12.709 -26.642  0.00  0.00    +0.146 HD
ENDROOT
BRANCH   9  21
ATOM     21  N   UNL     1      36.016 -20.373 -20.392  0.00  0.00    -0.263 NA
ATOM     22  H   UNL     1      36.973 -20.468 -20.181  0.00  0.00    +0.127 HD
BRANCH  21  23
ATOM     23  C   UNL     1      35.097 -21.336 -19.811  0.00  0.00    +0.098 C 
BRANCH  23  24
ATOM     24  C   UNL     1      35.582 -21.778 -18.458  0.00  0.00    -0.006 C 
ATOM     25  C   UNL     1      34.727 -22.374 -17.519  0.00  0.00    -0.003 C 
ATOM     26  C   UNL     1      35.245 -22.768 -16.262  0.00  0.00    -0.000 C 
ATOM     27  C   UNL     1      36.930 -21.573 -18.163  0.00  0.00    -0.003 C 
ATOM     28  C   UNL     1      33.367 -22.588 -17.798  0.00  0.00    -0.000 C 
ATOM     29  C   UNL     1      36.605 -22.554 -15.982  0.00  0.00    -0.000 C 
ATOM     30  C   UNL     1      37.441 -21.960 -16.929  0.00  0.00    -0.000 C 
ATOM     31  C   UNL     1      34.389 -23.365 -15.322  0.00  0.00    -0.000 C 
ATOM     32  C   UNL     1      32.530 -23.182 -16.851  0.00  0.00    -0.000 C 
ATOM     33  C   UNL     1      33.041 -23.570 -15.616  0.00  0.00    -0.000 C 
ENDBRANCH  23  24
ENDBRANCH  21  23
ENDBRANCH   9  21
TORSDOF 3
ENDMDL
MODEL 8
REMARK VINA RESULT:     -11.9      5.015      7.943
REMARK  Name = 16750097
REMARK  3 active torsions:
REMARK  status: ('A' for Active; 'I' for Inactive)
REMARK    1  A    between atoms: N_3  and  C_10
REMARK    2  A    between atoms: N_3  and  C_23
REMARK    3  A    between atoms: C_23  and  C_24
REMARK                            x       y       z     vdW  Elec       q    Type
REMARK                         _______ _______ _______ _____ _____    ______ ____
ROOT
ATOM      1  O   UNL     1      35.255 -16.814 -24.598  0.00  0.00    -0.209 OA
ATOM      2  N   UNL     1      32.325 -13.052 -22.392  0.00  0.00    -0.305 N 
ATOM      3  N   UNL     1      32.389 -13.351 -20.191  0.00  0.00    -0.305 N 
ATOM      4  N   UNL     1      35.332 -17.306 -20.624  0.00  0.00    -0.275 N 
ATOM      5  N   UNL     1      36.006 -18.010 -22.796  0.00  0.00    -0.302 NA
ATOM      6  N   UNL     1      36.695 -19.136 -20.860  0.00  0.00    -0.320 N 
ATOM      7  C   UNL     1      33.121 -14.151 -22.194  0.00  0.00    +0.061 C 
ATOM      8  C   UNL     1      33.145 -14.317 -20.813  0.00  0.00    +0.061 C 
ATOM      9  C   UNL     1      31.912 -12.610 -21.166  0.00  0.00    +0.208 C 
ATOM     10  C   UNL     1      34.582 -16.238 -21.124  0.00  0.00    +0.064 C 
ATOM     11  C   UNL     1      34.534 -16.037 -22.512  0.00  0.00    +0.110 C 
ATOM     12  C   UNL     1      33.800 -14.987 -23.083  0.00  0.00    +0.030 C 
ATOM     13  C   UNL     1      33.886 -15.376 -20.261  0.00  0.00    +0.031 C 
ATOM     14  C   UNL     1      35.290 -16.982 -23.383  0.00  0.00    +0.208 C 
ATOM     15  C   UNL     1      36.004 -18.134 -21.494  0.00  0.00    +0.248 C 
ATOM     16  H   UNL     1      32.093 -12.652 -23.260  0.00  0.00    +0.150 HD
ATOM     17  H   UNL     1      32.237 -13.239 -19.225  0.00  0.00    +0.150 HD
ATOM     18  H   UNL     1      35.381 -17.465 -19.654  0.00  0.00    +0.156 HD
ATOM     19  H   UNL     1      36.674 -19.202 -19.878  0.00  0.00    +0.146 HD
ATOM     20  H   UNL     1      37.211 -19.787 -21.387  0.00  0.00    +0.146 HD
ENDROOT
BRANCH   9  21
ATOM     21  N   UNL     1      31.108 -11.525 -21.113  0.00  0.00    -0.263 NA
ATOM     22  H   UNL     1      30.428 -11.493 -20.402  0.00  0.00    +0.127 HD
BRANCH  21  23
ATOM     23  C   UNL     1      31.178 -10.403 -22.032  0.00  0.00    +0.098 C 
BRANCH  23  24
ATOM     24  C   UNL     1      31.689  -9.176 -21.329  0.00  0.00    -0.006 C 
ATOM     25  C   UNL     1      31.872  -7.956 -21.999  0.00  0.00    -0.003 C 
ATOM     26  C   UNL     1      32.357  -6.837 -21.280  0.00  0.00    -0.000 C 
ATOM     27  C   UNL     1      31.981  -9.293 -19.970  0.00  0.00    -0.003 C 
ATOM     28  C   UNL     1      31.584  -7.821 -23.367  0.00  0.00    -0.000 C 
ATOM     29  C   UNL     1      32.646  -6.973 -19.912  0.00  0.00    -0.000 C 
ATOM     30  C   UNL     1      32.457  -8.194 -19.262  0.00  0.00    -0.000 C 
ATOM     31  C   UNL     1      32.539  -5.617 -21.950  0.00  0.00    -0.000 C 
ATOM     32  C   UNL     1      31.772  -6.600 -24.017  0.00  0.00    -0.000 C 
ATOM     33  C   UNL     1      32.248  -5.500 -23.309  0.00  0.00    -0.000 C 
ENDBRANCH  23  24
ENDBRANCH  21  23
ENDBRANCH   9  21
TORSDOF 3
ENDMDL
MODEL 9
REMARK VINA RESULT:     -11.9      5.675      8.687
REMARK  Name = 16750097
REMARK  3 active torsions:
REMARK  status: ('A' for Active; 'I' for Inactive)
REMARK    1  A    between atoms: N_3  and  C_10
REMARK    2  A    between atoms: N_3  and  C_23
REMARK    3  A    between atoms: C_23  and  C_24
REMARK                            x       y       z     vdW  Elec       q    Type
REMARK                         _______ _______ _______ _____ _____    ______ ____
ROOT
ATOM      1  O   UNL     1      35.009 -16.003 -24.763  0.00  0.00    -0.209 OA
ATOM      2  N   UNL     1      32.659 -11.682 -22.915  0.00  0.00    -0.305 N 
ATOM      3  N   UNL     1      32.407 -11.937 -20.723  0.00  0.00    -0.305 N 
ATOM      4  N   UNL     1      34.527 -16.408 -20.808  0.00  0.00    -0.275 N 
ATOM      5  N   UNL     1      35.291 -17.283 -22.885  0.00  0.00    -0.302 NA
ATOM      6  N   UNL     1      35.513 -18.478 -20.882  0.00  0.00    -0.320 N 
ATOM      7  C   UNL     1      33.189 -12.914 -22.626  0.00  0.00    +0.061 C 
ATOM      8  C   UNL     1      33.021 -13.049 -21.252  0.00  0.00    +0.061 C 
ATOM      9  C   UNL     1      32.204 -11.138 -21.747  0.00  0.00    +0.208 C 
ATOM     10  C   UNL     1      34.069 -15.224 -21.392  0.00  0.00    +0.064 C 
ATOM     11  C   UNL     1      34.222 -15.050 -22.776  0.00  0.00    +0.110 C 
ATOM     12  C   UNL     1      33.785 -13.888 -23.429  0.00  0.00    +0.030 C 
ATOM     13  C   UNL     1      33.465 -14.220 -20.616  0.00  0.00    +0.031 C 
ATOM     14  C   UNL     1      34.870 -16.147 -23.552  0.00  0.00    +0.208 C 
ATOM     15  C   UNL     1      35.115 -17.373 -21.593  0.00  0.00    +0.248 C 
ATOM     16  H   UNL     1      32.613 -11.264 -23.805  0.00  0.00    +0.150 HD
ATOM     17  H   UNL     1      32.170 -11.775 -19.781  0.00  0.00    +0.150 HD
ATOM     18  H   UNL     1      34.430 -16.551 -19.839  0.00  0.00    +0.156 HD
ATOM     19  H   UNL     1      35.366 -18.516 -19.909  0.00  0.00    +0.146 HD
ATOM     20  H   UNL     1      35.945 -19.231 -21.345  0.00  0.00    +0.146 HD
ENDROOT
BRANCH   9  21
ATOM     21  N   UNL     1      31.633  -9.915 -21.789  0.00  0.00    -0.263 NA
ATOM     22  H   UNL     1      30.830  -9.802 -22.347  0.00  0.00    +0.127 HD
BRANCH  21  23
ATOM     23  C   UNL     1      32.122  -8.753 -21.067  0.00  0.00    +0.098 C 
BRANCH  23  24
ATOM     24  C   UNL     1      32.064  -7.528 -21.937  0.00  0.00    -0.006 C 
ATOM     25  C   UNL     1      33.121  -7.169 -22.787  0.00  0.00    -0.003 C 
ATOM     26  C   UNL     1      33.005  -6.003 -23.582  0.00  0.00    -0.000 C 
ATOM     27  C   UNL     1      30.908  -6.750 -21.870  0.00  0.00    -0.003 C 
ATOM     28  C   UNL     1      34.293  -7.939 -22.867  0.00  0.00    -0.000 C 
ATOM     29  C   UNL     1      31.834  -5.231 -23.501  0.00  0.00    -0.000 C 
ATOM     30  C   UNL     1      30.793  -5.604 -22.651  0.00  0.00    -0.000 C 
ATOM     31  C   UNL     1      34.063  -5.643 -24.432  0.00  0.00    -0.000 C 
ATOM     32  C   UNL     1      35.334  -7.566 -23.718  0.00  0.00    -0.000 C 
ATOM     33  C   UNL     1      35.219  -6.420 -24.499  0.00  0.00    -0.000 C 
ENDBRANCH  23  24
ENDBRANCH  21  23
ENDBRANCH   9  21
TORSDOF 3
ENDMDL
