MODEL 1
REMARK VINA RESULT:     -12.0      0.000      0.000
REMARK  Name = 10172943
REMARK  7 active torsions:
REMARK  status: ('A' for Active; 'I' for Inactive)
REMARK    1  A    between atoms: O_1  and  C_3
REMARK    2  A    between atoms: O_1  and  C_19
REMARK    3  A    between atoms: C_4  and  C_11
REMARK    4  A    between atoms: C_19  and  C_20
REMARK    5  A    between atoms: C_20  and  N_21
REMARK    6  A    between atoms: C_20  and  C_25
REMARK    7  A    between atoms: C_25  and  C_27
REMARK                            x       y       z     vdW  Elec       q    Type
REMARK                         _______ _______ _______ _____ _____    ______ ____
ROOT
ATOM      1  O   UNL     1      36.000 -20.985 -19.563  0.00  0.00    -0.476 OA
ENDROOT
BRANCH   1   3
ATOM      2  N   UNL     1      32.824 -22.400 -18.472  0.00  0.00    -0.239 NA
ATOM      3  C   UNL     1      35.087 -21.649 -18.786  0.00  0.00    +0.158 C 
ATOM      4  C   UNL     1      34.522 -22.890 -16.822  0.00  0.00    +0.022 C 
ATOM      5  C   UNL     1      35.470 -22.221 -17.587  0.00  0.00    +0.040 C 
ATOM      6  C   UNL     1      33.774 -21.758 -19.189  0.00  0.00    +0.136 C 
ATOM      7  C   UNL     1      33.223 -22.950 -17.303  0.00  0.00    +0.099 C 
BRANCH   4  11
ATOM      8  N   UNL     1      37.250 -25.433 -12.381  0.00  0.00    -0.280 N 
ATOM      9  N   UNL     1      35.963 -25.249 -12.024  0.00  0.00    -0.173 NA
ATOM     10  C   UNL     1      36.391 -24.490 -14.122  0.00  0.00    +0.032 A 
ATOM     11  C   UNL     1      34.878 -23.503 -15.564  0.00  0.00    +0.002 C 
ATOM     12  C   UNL     1      35.395 -24.661 -13.091  0.00  0.00    +0.102 A 
ATOM     13  C   UNL     1      36.213 -23.924 -15.378  0.00  0.00    +0.003 C 
ATOM     14  C   UNL     1      37.563 -24.994 -13.633  0.00  0.00    +0.053 A 
ATOM     15  C   UNL     1      33.857 -23.653 -14.567  0.00  0.00    +0.002 C 
ATOM     16  C   UNL     1      34.070 -24.234 -13.298  0.00  0.00    +0.021 C 
ATOM     17  C   UNL     1      38.923 -25.113 -14.185  0.00  0.00    +0.051 C 
ATOM     18  H   UNL     1      37.911 -25.851 -11.783  0.00  0.00    +0.189 HD
ENDBRANCH   4  11
ENDBRANCH   1   3
BRANCH   1  19
ATOM     19  C   UNL     1      35.492 -20.280 -20.688  0.00  0.00    +0.184 C 
BRANCH  19  20
ATOM     20  C   UNL     1      36.109 -18.881 -20.812  0.00  0.00    -0.017 C 
BRANCH  20  21
ATOM     21  N   UNL     1      37.547 -18.975 -20.530  0.00  0.00    +0.384 N 
ATOM     22  H   UNL     1      38.062 -19.029 -21.409  0.00  0.00    -0.089 HD
ATOM     23  H   UNL     1      37.730 -19.812 -19.976  0.00  0.00    -0.089 HD
ATOM     24  H   UNL     1      37.846 -18.151 -20.009  0.00  0.00    -0.089 HD
ENDBRANCH  20  21
BRANCH  20  25
ATOM     25  C   UNL     1      35.899 -18.229 -22.205  0.00  0.00    +0.009 C 
BRANCH  25  27
ATOM     26  N   UNL     1      34.088 -15.152 -21.443  0.00  0.00    -0.312 N 
ATOM     27  C   UNL     1      35.143 -16.961 -22.178  0.00  0.00    -0.008 C 
ATOM     28  C   UNL     1      34.668 -16.234 -23.305  0.00  0.00    +0.011 C 
ATOM     29  C   UNL     1      34.010 -15.103 -22.816  0.00  0.00    +0.048 C 
ATOM     30  C   UNL     1      34.770 -16.271 -21.047  0.00  0.00    +0.058 C 
ATOM     31  C   UNL     1      34.736 -16.428 -24.699  0.00  0.00    +0.001 C 
ATOM     32  C   UNL     1      33.414 -14.154 -23.655  0.00  0.00    +0.015 C 
ATOM     33  C   UNL     1      34.144 -15.488 -25.550  0.00  0.00    +0.000 C 
ATOM     34  C   UNL     1      33.494 -14.369 -25.034  0.00  0.00    +0.001 C 
ATOM     35  H   UNL     1      33.707 -14.479 -20.833  0.00  0.00    +0.152 HD
ENDBRANCH  25  27
ENDBRANCH  20  25
ENDBRANCH  19  20
ENDBRANCH   1  19
TORSDOF 7
ENDMDL
MODEL 2
REMARK VINA RESULT:     -12.0      2.117     10.236
REMARK  Name = 10172943
REMARK  7 active torsions:
REMARK  status: ('A' for Active; 'I' for Inactive)
REMARK    1  A    between atoms: O_1  and  C_3
REMARK    2  A    between atoms: O_1  and  C_19
REMARK    3  A    between atoms: C_4  and  C_11
REMARK    4  A    between atoms: C_19  and  C_20
REMARK    5  A    between atoms: C_20  and  N_21
REMARK    6  A    between atoms: C_20  and  C_25
REMARK    7  A    between atoms: C_25  and  C_27
REMARK                            x       y       z     vdW  Elec       q    Type
REMARK                         _______ _______ _______ _____ _____    ______ ____
ROOT
ATOM      1  O   UNL     1      36.558 -22.240 -18.400  0.00  0.00    -0.476 OA
ENDROOT
BRANCH   1   3
ATOM      2  N   UNL     1      33.093 -21.512 -19.258  0.00  0.00    -0.239 NA
ATOM      3  C   UNL     1      35.480 -21.657 -19.014  0.00  0.00    +0.158 C 
ATOM      4  C   UNL     1      34.550 -20.092 -20.565  0.00  0.00    +0.022 C 
ATOM      5  C   UNL     1      35.663 -20.666 -19.962  0.00  0.00    +0.040 C 
ATOM      6  C   UNL     1      34.198 -22.046 -18.693  0.00  0.00    +0.136 C 
ATOM      7  C   UNL     1      33.298 -20.546 -20.183  0.00  0.00    +0.099 C 
BRANCH   4  11
ATOM      8  N   UNL     1      34.942 -15.062 -23.425  0.00  0.00    -0.280 N 
ATOM      9  N   UNL     1      35.094 -16.059 -24.319  0.00  0.00    -0.173 NA
ATOM     10  C   UNL     1      34.771 -16.839 -22.210  0.00  0.00    +0.032 A 
ATOM     11  C   UNL     1      34.694 -19.054 -21.559  0.00  0.00    +0.002 C 
ATOM     12  C   UNL     1      34.993 -17.186 -23.594  0.00  0.00    +0.102 A 
ATOM     13  C   UNL     1      34.613 -17.708 -21.139  0.00  0.00    +0.003 C 
ATOM     14  C   UNL     1      34.745 -15.474 -22.140  0.00  0.00    +0.053 A 
ATOM     15  C   UNL     1      34.914 -19.445 -22.922  0.00  0.00    +0.002 C 
ATOM     16  C   UNL     1      35.071 -18.534 -23.989  0.00  0.00    +0.021 C 
ATOM     17  C   UNL     1      34.561 -14.520 -21.033  0.00  0.00    +0.051 C 
ATOM     18  H   UNL     1      34.970 -14.112 -23.679  0.00  0.00    +0.189 HD
ENDBRANCH   4  11
ENDBRANCH   1   3
BRANCH   1  19
ATOM     19  C   UNL     1      36.775 -21.910 -17.035  0.00  0.00    +0.184 C 
BRANCH  19  20
ATOM     20  C   UNL     1      36.245 -23.000 -16.093  0.00  0.00    -0.017 C 
BRANCH  20  21
ATOM     21  N   UNL     1      37.383 -23.772 -15.581  0.00  0.00    +0.384 N 
ATOM     22  H   UNL     1      37.504 -23.580 -14.587  0.00  0.00    -0.089 HD
ATOM     23  H   UNL     1      38.229 -23.505 -16.085  0.00  0.00    -0.089 HD
ATOM     24  H   UNL     1      37.207 -24.767 -15.716  0.00  0.00    -0.089 HD
ENDBRANCH  20  21
BRANCH  20  25
ATOM     25  C   UNL     1      35.421 -22.444 -14.901  0.00  0.00    +0.009 C 
BRANCH  25  27
ATOM     26  N   UNL     1      33.649 -25.037 -13.038  0.00  0.00    -0.312 N 
ATOM     27  C   UNL     1      34.480 -23.414 -14.303  0.00  0.00    -0.008 C 
ATOM     28  C   UNL     1      33.107 -23.578 -14.637  0.00  0.00    +0.011 C 
ATOM     29  C   UNL     1      32.609 -24.602 -13.829  0.00  0.00    +0.048 C 
ATOM     30  C   UNL     1      34.785 -24.325 -13.318  0.00  0.00    +0.058 C 
ATOM     31  C   UNL     1      32.237 -22.951 -15.550  0.00  0.00    +0.001 C 
ATOM     32  C   UNL     1      31.278 -25.032 -13.889  0.00  0.00    +0.015 C 
ATOM     33  C   UNL     1      30.903 -23.370 -15.622  0.00  0.00    +0.000 C 
ATOM     34  C   UNL     1      30.433 -24.395 -14.803  0.00  0.00    +0.001 C 
ATOM     35  H   UNL     1      33.585 -25.756 -12.370  0.00  0.00    +0.152 HD
ENDBRANCH  25  27
ENDBRANCH  20  25
ENDBRANCH  19  20
ENDBRANCH   1  19
TORSDOF 7
ENDMDL
MODEL 3
REMARK VINA RESULT:     -11.9      1.918     10.551
REMARK  Name = 10172943
REMARK  7 active torsions:
REMARK  status: ('A' for Active; 'I' for Inactive)
REMARK    1  A    between atoms: O_1  and  C_3
REMARK    2  A    between atoms: O_1  and  C_19
REMARK    3  A    between atoms: C_4  and  C_11
REMARK    4  A    between atoms: C_19  and  C_20
REMARK    5  A    between atoms: C_20  and  N_21
REMARK    6  A    between atoms: C_20  and  C_25
REMARK    7  A    between atoms: C_25  and  C_27
REMARK                            x       y       z     vdW  Elec       q    Type
REMARK                         _______ _______ _______ _____ _____    ______ ____
ROOT
ATOM      1  O   UNL     1      33.145 -22.372 -18.639  0.00  0.00    -0.476 OA
ENDROOT
BRANCH   1   3
ATOM      2  N   UNL     1      36.620 -21.412 -19.168  0.00  0.00    -0.239 NA
ATOM      3  C   UNL     1      34.234 -21.707 -19.140  0.00  0.00    +0.158 C 
ATOM      4  C   UNL     1      35.197 -20.054 -20.574  0.00  0.00    +0.022 C 
ATOM      5  C   UNL     1      34.074 -20.708 -20.083  0.00  0.00    +0.040 C 
ATOM      6  C   UNL     1      35.505 -22.026 -18.714  0.00  0.00    +0.136 C 
ATOM      7  C   UNL     1      36.437 -20.438 -20.089  0.00  0.00    +0.099 C 
BRANCH   4  11
ATOM      8  N   UNL     1      34.608 -15.007 -23.370  0.00  0.00    -0.280 N 
ATOM      9  N   UNL     1      34.728 -15.980 -24.295  0.00  0.00    -0.173 NA
ATOM     10  C   UNL     1      34.815 -16.793 -22.176  0.00  0.00    +0.032 A 
ATOM     11  C   UNL     1      35.076 -19.005 -21.560  0.00  0.00    +0.002 C 
ATOM     12  C   UNL     1      34.860 -17.112 -23.583  0.00  0.00    +0.102 A 
ATOM     13  C   UNL     1      34.916 -17.676 -21.109  0.00  0.00    +0.003 C 
ATOM     14  C   UNL     1      34.654 -15.440 -22.077  0.00  0.00    +0.053 A 
ATOM     15  C   UNL     1      35.126 -19.368 -22.947  0.00  0.00    +0.002 C 
ATOM     16  C   UNL     1      35.021 -18.443 -24.010  0.00  0.00    +0.021 C 
ATOM     17  C   UNL     1      34.540 -14.513 -20.938  0.00  0.00    +0.051 C 
ATOM     18  H   UNL     1      34.496 -14.058 -23.608  0.00  0.00    +0.189 HD
ENDBRANCH   4  11
ENDBRANCH   1   3
BRANCH   1  19
ATOM     19  C   UNL     1      33.403 -23.420 -17.714  0.00  0.00    +0.184 C 
BRANCH  19  20
ATOM     20  C   UNL     1      33.030 -23.020 -16.280  0.00  0.00    -0.017 C 
BRANCH  20  21
ATOM     21  N   UNL     1      31.570 -23.090 -16.139  0.00  0.00    +0.384 N 
ATOM     22  H   UNL     1      31.335 -23.396 -15.195  0.00  0.00    -0.089 HD
ATOM     23  H   UNL     1      31.195 -23.755 -16.816  0.00  0.00    -0.089 HD
ATOM     24  H   UNL     1      31.168 -22.169 -16.309  0.00  0.00    -0.089 HD
ENDBRANCH  20  21
BRANCH  20  25
ATOM     25  C   UNL     1      33.695 -23.908 -15.195  0.00  0.00    +0.009 C 
BRANCH  25  27
ATOM     26  N   UNL     1      37.128 -22.701 -14.888  0.00  0.00    -0.312 N 
ATOM     27  C   UNL     1      35.149 -23.694 -15.037  0.00  0.00    -0.008 C 
ATOM     28  C   UNL     1      36.135 -24.698 -14.825  0.00  0.00    +0.011 C 
ATOM     29  C   UNL     1      37.368 -24.048 -14.735  0.00  0.00    +0.048 C 
ATOM     30  C   UNL     1      35.790 -22.477 -15.072  0.00  0.00    +0.058 C 
ATOM     31  C   UNL     1      36.096 -26.100 -14.700  0.00  0.00    +0.001 C 
ATOM     32  C   UNL     1      38.569 -24.735 -14.525  0.00  0.00    +0.015 C 
ATOM     33  C   UNL     1      37.290 -26.800 -14.489  0.00  0.00    +0.000 C 
ATOM     34  C   UNL     1      38.507 -26.126 -14.403  0.00  0.00    +0.001 C 
ATOM     35  H   UNL     1      37.819 -22.001 -14.870  0.00  0.00    +0.152 HD
ENDBRANCH  25  27
ENDBRANCH  20  25
ENDBRANCH  19  20
ENDBRANCH   1  19
TORSDOF 7
ENDMDL
MODEL 4
REMARK VINA RESULT:     -11.9      1.712     10.883
REMARK  Name = 10172943
REMARK  7 active torsions:
REMARK  status: ('A' for Active; 'I' for Inactive)
REMARK    1  A    between atoms: O_1  and  C_3
REMARK    2  A    between atoms: O_1  and  C_19
REMARK    3  A    between atoms: C_4  and  C_11
REMARK    4  A    between atoms: C_19  and  C_20
REMARK    5  A    between atoms: C_20  and  N_21
REMARK    6  A    between atoms: C_20  and  C_25
REMARK    7  A    between atoms: C_25  and  C_27
REMARK                            x       y       z     vdW  Elec       q    Type
REMARK                         _______ _______ _______ _____ _____    ______ ____
ROOT
ATOM      1  O   UNL     1      34.174 -21.662 -20.011  0.00  0.00    -0.476 OA
ENDROOT
BRANCH   1   3
ATOM      2  N   UNL     1      37.210 -19.653 -20.169  0.00  0.00    -0.239 NA
ATOM      3  C   UNL     1      35.015 -20.624 -20.318  0.00  0.00    +0.158 C 
ATOM      4  C   UNL     1      35.438 -18.509 -21.350  0.00  0.00    +0.022 C 
ATOM      5  C   UNL     1      34.560 -19.545 -21.054  0.00  0.00    +0.040 C 
ATOM      6  C   UNL     1      36.328 -20.642 -19.900  0.00  0.00    +0.136 C 
ATOM      7  C   UNL     1      36.741 -18.609 -20.889  0.00  0.00    +0.099 C 
BRANCH   4  11
ATOM      8  N   UNL     1      33.282 -13.431 -23.139  0.00  0.00    -0.280 N 
ATOM      9  N   UNL     1      33.754 -14.083 -24.220  0.00  0.00    -0.173 NA
ATOM     10  C   UNL     1      34.037 -15.274 -22.307  0.00  0.00    +0.032 A 
ATOM     11  C   UNL     1      35.005 -17.364 -22.117  0.00  0.00    +0.002 C 
ATOM     12  C   UNL     1      34.234 -15.241 -23.736  0.00  0.00    +0.102 A 
ATOM     13  C   UNL     1      34.392 -16.292 -21.431  0.00  0.00    +0.003 C 
ATOM     14  C   UNL     1      33.427 -14.102 -21.960  0.00  0.00    +0.053 A 
ATOM     15  C   UNL     1      35.222 -17.374 -23.535  0.00  0.00    +0.002 C 
ATOM     16  C   UNL     1      34.848 -16.321 -24.398  0.00  0.00    +0.021 C 
ATOM     17  C   UNL     1      32.969 -13.538 -20.679  0.00  0.00    +0.051 C 
ATOM     18  H   UNL     1      32.866 -12.541 -23.196  0.00  0.00    +0.189 HD
ENDBRANCH   4  11
ENDBRANCH   1   3
BRANCH   1  19
ATOM     19  C   UNL     1      33.458 -21.567 -18.787  0.00  0.00    +0.184 C 
BRANCH  19  20
ATOM     20  C   UNL     1      33.530 -22.871 -17.981  0.00  0.00    -0.017 C 
BRANCH  20  21
ATOM     21  N   UNL     1      33.894 -23.965 -18.890  0.00  0.00    +0.384 N 
ATOM     22  H   UNL     1      33.052 -24.472 -19.164  0.00  0.00    -0.089 HD
ATOM     23  H   UNL     1      34.536 -24.600 -18.417  0.00  0.00    -0.089 HD
ATOM     24  H   UNL     1      34.346 -23.581 -19.720  0.00  0.00    -0.089 HD
ENDBRANCH  20  21
BRANCH  20  25
ATOM     25  C   UNL     1      34.543 -22.820 -16.806  0.00  0.00    +0.009 C 
BRANCH  25  27
ATOM     26  N   UNL     1      34.253 -25.051 -13.931  0.00  0.00    -0.312 N 
ATOM     27  C   UNL     1      34.158 -23.628 -15.632  0.00  0.00    -0.008 C 
ATOM     28  C   UNL     1      32.883 -23.653 -15.001  0.00  0.00    +0.011 C 
ATOM     29  C   UNL     1      32.969 -24.553 -13.937  0.00  0.00    +0.048 C 
ATOM     30  C   UNL     1      34.979 -24.499 -14.952  0.00  0.00    +0.058 C 
ATOM     31  C   UNL     1      31.660 -22.992 -15.233  0.00  0.00    +0.001 C 
ATOM     32  C   UNL     1      31.889 -24.827 -13.090  0.00  0.00    +0.015 C 
ATOM     33  C   UNL     1      30.572 -23.256 -14.394  0.00  0.00    +0.000 C 
ATOM     34  C   UNL     1      30.687 -24.160 -13.339  0.00  0.00    +0.001 C 
ATOM     35  H   UNL     1      34.598 -25.710 -13.286  0.00  0.00    +0.152 HD
ENDBRANCH  25  27
ENDBRANCH  20  25
ENDBRANCH  19  20
ENDBRANCH   1  19
TORSDOF 7
ENDMDL
MODEL 5
REMARK VINA RESULT:     -11.9      3.041     11.124
REMARK  Name = 10172943
REMARK  7 active torsions:
REMARK  status: ('A' for Active; 'I' for Inactive)
REMARK    1  A    between atoms: O_1  and  C_3
REMARK    2  A    between atoms: O_1  and  C_19
REMARK    3  A    between atoms: C_4  and  C_11
REMARK    4  A    between atoms: C_19  and  C_20
REMARK    5  A    between atoms: C_20  and  N_21
REMARK    6  A    between atoms: C_20  and  C_25
REMARK    7  A    between atoms: C_25  and  C_27
REMARK                            x       y       z     vdW  Elec       q    Type
REMARK                         _______ _______ _______ _____ _____    ______ ____
ROOT
ATOM      1  O   UNL     1      35.643 -17.466 -23.453  0.00  0.00    -0.476 OA
ENDROOT
BRANCH   1   3
ATOM      2  N   UNL     1      33.812 -15.132 -25.570  0.00  0.00    -0.239 NA
ATOM      3  C   UNL     1      34.857 -16.403 -23.816  0.00  0.00    +0.158 C 
ATOM      4  C   UNL     1      33.534 -14.492 -23.255  0.00  0.00    +0.022 C 
ATOM      5  C   UNL     1      34.329 -15.560 -22.856  0.00  0.00    +0.040 C 
ATOM      6  C   UNL     1      34.579 -16.160 -25.144  0.00  0.00    +0.136 C 
ATOM      7  C   UNL     1      33.308 -14.322 -24.611  0.00  0.00    +0.099 C 
BRANCH   4  11
ATOM      8  N   UNL     1      31.406  -9.902 -20.421  0.00  0.00    -0.280 N 
ATOM      9  N   UNL     1      31.345 -10.963 -19.592  0.00  0.00    -0.173 NA
ATOM     10  C   UNL     1      32.225 -11.502 -21.616  0.00  0.00    +0.032 A 
ATOM     11  C   UNL     1      32.962 -13.587 -22.285  0.00  0.00    +0.002 C 
ATOM     12  C   UNL     1      31.850 -11.983 -20.307  0.00  0.00    +0.102 A 
ATOM     13  C   UNL     1      32.783 -12.236 -22.654  0.00  0.00    +0.003 C 
ATOM     14  C   UNL     1      31.926 -10.169 -21.652  0.00  0.00    +0.053 A 
ATOM     15  C   UNL     1      32.604 -14.109 -20.998  0.00  0.00    +0.002 C 
ATOM     16  C   UNL     1      32.037 -13.334 -19.962  0.00  0.00    +0.021 C 
ATOM     17  C   UNL     1      32.065  -9.127 -22.684  0.00  0.00    +0.051 C 
ATOM     18  H   UNL     1      31.098  -9.005 -20.157  0.00  0.00    +0.189 HD
ENDBRANCH   4  11
ENDBRANCH   1   3
BRANCH   1  19
ATOM     19  C   UNL     1      34.971 -18.647 -23.037  0.00  0.00    +0.184 C 
BRANCH  19  20
ATOM     20  C   UNL     1      35.484 -19.147 -21.680  0.00  0.00    -0.017 C 
BRANCH  20  21
ATOM     21  N   UNL     1      35.453 -18.031 -20.726  0.00  0.00    +0.384 N 
ATOM     22  H   UNL     1      34.804 -18.249 -19.970  0.00  0.00    -0.089 HD
ATOM     23  H   UNL     1      35.146 -17.184 -21.205  0.00  0.00    -0.089 HD
ATOM     24  H   UNL     1      36.386 -17.886 -20.343  0.00  0.00    -0.089 HD
ENDBRANCH  20  21
BRANCH  20  25
ATOM     25  C   UNL     1      34.668 -20.337 -21.107  0.00  0.00    +0.009 C 
BRANCH  25  27
ATOM     26  N   UNL     1      36.764 -21.685 -18.439  0.00  0.00    -0.312 N 
ATOM     27  C   UNL     1      35.271 -20.976 -19.919  0.00  0.00    -0.008 C 
ATOM     28  C   UNL     1      34.580 -21.673 -18.890  0.00  0.00    +0.011 C 
ATOM     29  C   UNL     1      35.540 -22.109 -17.974  0.00  0.00    +0.048 C 
ATOM     30  C   UNL     1      36.613 -21.000 -19.615  0.00  0.00    +0.058 C 
ATOM     31  C   UNL     1      33.225 -21.977 -18.648  0.00  0.00    +0.001 C 
ATOM     32  C   UNL     1      35.212 -22.835 -16.823  0.00  0.00    +0.015 C 
ATOM     33  C   UNL     1      32.882 -22.703 -17.501  0.00  0.00    +0.000 C 
ATOM     34  C   UNL     1      33.862 -23.124 -16.604  0.00  0.00    +0.001 C 
ATOM     35  H   UNL     1      37.625 -21.852 -17.991  0.00  0.00    +0.152 HD
ENDBRANCH  25  27
ENDBRANCH  20  25
ENDBRANCH  19  20
ENDBRANCH   1  19
TORSDOF 7
ENDMDL
MODEL 6
REMARK VINA RESULT:     -11.8      1.808      3.034
REMARK  Name = 10172943
REMARK  7 active torsions:
REMARK  status: ('A' for Active; 'I' for Inactive)
REMARK    1  A    between atoms: O_1  and  C_3
REMARK    2  A    between atoms: O_1  and  C_19
REMARK    3  A    between atoms: C_4  and  C_11
REMARK    4  A    between atoms: C_19  and  C_20
REMARK    5  A    between atoms: C_20  and  N_21
REMARK    6  A    between atoms: C_20  and  C_25
REMARK    7  A    between atoms: C_25  and  C_27
REMARK                            x       y       z     vdW  Elec       q    Type
REMARK                         _______ _______ _______ _____ _____    ______ ____
ROOT
ATOM      1  O   UNL     1      33.014 -22.424 -18.696  0.00  0.00    -0.476 OA
ENDROOT
BRANCH   1   3
ATOM      2  N   UNL     1      31.705 -23.252 -15.398  0.00  0.00    -0.239 NA
ATOM      3  C   UNL     1      32.994 -22.778 -17.372  0.00  0.00    +0.158 C 
ATOM      4  C   UNL     1      34.120 -23.373 -15.348  0.00  0.00    +0.022 C 
ATOM      5  C   UNL     1      34.173 -23.014 -16.690  0.00  0.00    +0.040 C 
ATOM      6  C   UNL     1      31.797 -22.906 -16.701  0.00  0.00    +0.136 C 
ATOM      7  C   UNL     1      32.873 -23.477 -14.753  0.00  0.00    +0.099 C 
BRANCH   4  11
ATOM      8  N   UNL     1      38.053 -24.457 -11.227  0.00  0.00    -0.280 N 
ATOM      9  N   UNL     1      38.704 -24.363 -12.404  0.00  0.00    -0.173 NA
ATOM     10  C   UNL     1      36.464 -24.057 -12.632  0.00  0.00    +0.032 A 
ATOM     11  C   UNL     1      35.327 -23.630 -14.598  0.00  0.00    +0.002 C 
ATOM     12  C   UNL     1      37.740 -24.113 -13.306  0.00  0.00    +0.102 A 
ATOM     13  C   UNL     1      35.220 -23.822 -13.203  0.00  0.00    +0.003 C 
ATOM     14  C   UNL     1      36.703 -24.282 -11.305  0.00  0.00    +0.053 A 
ATOM     15  C   UNL     1      36.572 -23.677 -15.309  0.00  0.00    +0.002 C 
ATOM     16  C   UNL     1      37.822 -23.918 -14.697  0.00  0.00    +0.021 C 
ATOM     17  C   UNL     1      35.835 -24.353 -10.118  0.00  0.00    +0.051 C 
ATOM     18  H   UNL     1      38.516 -24.638 -10.377  0.00  0.00    +0.189 HD
ENDBRANCH   4  11
ENDBRANCH   1   3
BRANCH   1  19
ATOM     19  C   UNL     1      34.224 -21.868 -19.193  0.00  0.00    +0.184 C 
BRANCH  19  20
ATOM     20  C   UNL     1      33.972 -20.893 -20.350  0.00  0.00    -0.017 C 
BRANCH  20  21
ATOM     21  N   UNL     1      32.692 -20.213 -20.119  0.00  0.00    +0.384 N 
ATOM     22  H   UNL     1      32.267 -20.571 -19.264  0.00  0.00    -0.089 HD
ATOM     23  H   UNL     1      32.069 -20.385 -20.908  0.00  0.00    -0.089 HD
ATOM     24  H   UNL     1      32.852 -19.210 -20.026  0.00  0.00    -0.089 HD
ENDBRANCH  20  21
BRANCH  20  25
ATOM     25  C   UNL     1      35.093 -19.834 -20.526  0.00  0.00    +0.009 C 
BRANCH  25  27
ATOM     26  N   UNL     1      34.910 -18.504 -23.921  0.00  0.00    -0.312 N 
ATOM     27  C   UNL     1      34.998 -19.044 -21.770  0.00  0.00    -0.008 C 
ATOM     28  C   UNL     1      34.866 -17.631 -21.869  0.00  0.00    +0.011 C 
ATOM     29  C   UNL     1      34.813 -17.318 -23.229  0.00  0.00    +0.048 C 
ATOM     30  C   UNL     1      35.023 -19.553 -23.049  0.00  0.00    +0.058 C 
ATOM     31  C   UNL     1      34.785 -16.585 -20.929  0.00  0.00    +0.001 C 
ATOM     32  C   UNL     1      34.683 -16.005 -23.698  0.00  0.00    +0.015 C 
ATOM     33  C   UNL     1      34.655 -15.267 -21.383  0.00  0.00    +0.000 C 
ATOM     34  C   UNL     1      34.604 -14.984 -22.747  0.00  0.00    +0.001 C 
ATOM     35  H   UNL     1      34.901 -18.586 -24.902  0.00  0.00    +0.152 HD
ENDBRANCH  25  27
ENDBRANCH  20  25
ENDBRANCH  19  20
ENDBRANCH   1  19
TORSDOF 7
ENDMDL
MODEL 7
REMARK VINA RESULT:     -11.7      2.339      3.633
REMARK  Name = 10172943
REMARK  7 active torsions:
REMARK  status: ('A' for Active; 'I' for Inactive)
REMARK    1  A    between atoms: O_1  and  C_3
REMARK    2  A    between atoms: O_1  and  C_19
REMARK    3  A    between atoms: C_4  and  C_11
REMARK    4  A    between atoms: C_19  and  C_20
REMARK    5  A    between atoms: C_20  and  N_21
REMARK    6  A    between atoms: C_20  and  C_25
REMARK    7  A    between atoms: C_25  and  C_27
REMARK                            x       y       z     vdW  Elec       q    Type
REMARK                         _______ _______ _______ _____ _____    ______ ____
ROOT
ATOM      1  O   UNL     1      35.201 -21.588 -19.701  0.00  0.00    -0.476 OA
ENDROOT
BRANCH   1   3
ATOM      2  N   UNL     1      37.225 -22.052 -16.706  0.00  0.00    -0.239 NA
ATOM      3  C   UNL     1      35.542 -21.939 -18.420  0.00  0.00    +0.158 C 
ATOM      4  C   UNL     1      34.982 -22.847 -16.281  0.00  0.00    +0.022 C 
ATOM      5  C   UNL     1      34.606 -22.504 -17.574  0.00  0.00    +0.040 C 
ATOM      6  C   UNL     1      36.823 -21.731 -17.956  0.00  0.00    +0.136 C 
ATOM      7  C   UNL     1      36.291 -22.605 -15.898  0.00  0.00    +0.099 C 
BRANCH   4  11
ATOM      8  N   UNL     1      30.238 -24.841 -13.606  0.00  0.00    -0.280 N 
ATOM      9  N   UNL     1      31.298 -25.100 -12.814  0.00  0.00    -0.173 NA
ATOM     10  C   UNL     1      31.897 -24.046 -14.735  0.00  0.00    +0.032 A 
ATOM     11  C   UNL     1      34.036 -23.439 -15.363  0.00  0.00    +0.002 C 
ATOM     12  C   UNL     1      32.354 -24.615 -13.490  0.00  0.00    +0.102 A 
ATOM     13  C   UNL     1      32.669 -23.443 -15.719  0.00  0.00    +0.003 C 
ATOM     14  C   UNL     1      30.540 -24.208 -14.775  0.00  0.00    +0.053 A 
ATOM     15  C   UNL     1      34.535 -23.994 -14.138  0.00  0.00    +0.002 C 
ATOM     16  C   UNL     1      33.720 -24.600 -13.156  0.00  0.00    +0.021 C 
ATOM     17  C   UNL     1      29.506 -23.850 -15.760  0.00  0.00    +0.051 C 
ATOM     18  H   UNL     1      29.318 -25.089 -13.359  0.00  0.00    +0.189 HD
ENDBRANCH   4  11
ENDBRANCH   1   3
BRANCH   1  19
ATOM     19  C   UNL     1      36.033 -20.633 -20.347  0.00  0.00    +0.184 C 
BRANCH  19  20
ATOM     20  C   UNL     1      35.218 -19.646 -21.193  0.00  0.00    -0.017 C 
BRANCH  20  21
ATOM     21  N   UNL     1      33.806 -19.747 -20.801  0.00  0.00    +0.384 N 
ATOM     22  H   UNL     1      33.518 -18.881 -20.346  0.00  0.00    -0.089 HD
ATOM     23  H   UNL     1      33.688 -20.527 -20.155  0.00  0.00    -0.089 HD
ATOM     24  H   UNL     1      33.234 -19.903 -21.631  0.00  0.00    -0.089 HD
ENDBRANCH  20  21
BRANCH  20  25
ATOM     25  C   UNL     1      35.686 -18.173 -21.053  0.00  0.00    +0.009 C 
BRANCH  25  27
ATOM     26  N   UNL     1      34.693 -16.456 -24.118  0.00  0.00    -0.312 N 
ATOM     27  C   UNL     1      35.198 -17.273 -22.117  0.00  0.00    -0.008 C 
ATOM     28  C   UNL     1      34.607 -15.991 -21.938  0.00  0.00    +0.011 C 
ATOM     29  C   UNL     1      34.299 -15.500 -23.209  0.00  0.00    +0.048 C 
ATOM     30  C   UNL     1      35.238 -17.531 -23.468  0.00  0.00    +0.058 C 
ATOM     31  C   UNL     1      34.302 -15.199 -20.813  0.00  0.00    +0.001 C 
ATOM     32  C   UNL     1      33.699 -14.252 -23.411  0.00  0.00    +0.015 C 
ATOM     33  C   UNL     1      33.702 -13.949 -21.000  0.00  0.00    +0.000 C 
ATOM     34  C   UNL     1      33.405 -13.485 -22.281  0.00  0.00    +0.001 C 
ATOM     35  H   UNL     1      34.597 -16.377 -25.095  0.00  0.00    +0.152 HD
ENDBRANCH  25  27
ENDBRANCH  20  25
ENDBRANCH  19  20
ENDBRANCH   1  19
TORSDOF 7
ENDMDL
MODEL 8
REMARK VINA RESULT:     -11.7      6.967     14.331
REMARK  Name = 10172943
REMARK  7 active torsions:
REMARK  status: ('A' for Active; 'I' for Inactive)
REMARK    1  A    between atoms: O_1  and  C_3
REMARK    2  A    between atoms: O_1  and  C_19
REMARK    3  A    between atoms: C_4  and  C_11
REMARK    4  A    between atoms: C_19  and  C_20
REMARK    5  A    between atoms: C_20  and  N_21
REMARK    6  A    between atoms: C_20  and  C_25
REMARK    7  A    between atoms: C_25  and  C_27
REMARK                            x       y       z     vdW  Elec       q    Type
REMARK                         _______ _______ _______ _____ _____    ______ ____
ROOT
ATOM      1  O   UNL     1      31.312 -11.984 -21.075  0.00  0.00    -0.476 OA
ENDROOT
BRANCH   1   3
ATOM      2  N   UNL     1      32.281  -9.277 -18.835  0.00  0.00    -0.239 NA
ATOM      3  C   UNL     1      31.634 -10.722 -20.645  0.00  0.00    +0.158 C 
ATOM      4  C   UNL     1      31.980  -8.394 -21.066  0.00  0.00    +0.022 C 
ATOM      5  C   UNL     1      31.646  -9.660 -21.531  0.00  0.00    +0.040 C 
ATOM      6  C   UNL     1      31.953 -10.494 -19.324  0.00  0.00    +0.136 C 
ATOM      7  C   UNL     1      32.285  -8.255 -19.721  0.00  0.00    +0.099 C 
BRANCH   4  11
ATOM      8  N   UNL     1      33.299  -4.444 -25.102  0.00  0.00    -0.280 N 
ATOM      9  N   UNL     1      32.149  -4.062 -24.511  0.00  0.00    -0.173 NA
ATOM     10  C   UNL     1      32.957  -6.002 -23.647  0.00  0.00    +0.032 A 
ATOM     11  C   UNL     1      32.006  -7.257 -21.956  0.00  0.00    +0.002 C 
ATOM     12  C   UNL     1      31.905  -5.014 -23.595  0.00  0.00    +0.102 A 
ATOM     13  C   UNL     1      33.079  -7.144 -22.867  0.00  0.00    +0.003 C 
ATOM     14  C   UNL     1      33.829  -5.605 -24.622  0.00  0.00    +0.053 A 
ATOM     15  C   UNL     1      30.940  -6.301 -21.869  0.00  0.00    +0.002 C 
ATOM     16  C   UNL     1      30.845  -5.148 -22.679  0.00  0.00    +0.021 C 
ATOM     17  C   UNL     1      35.081  -6.170 -25.153  0.00  0.00    +0.051 C 
ATOM     18  H   UNL     1      33.722  -3.925 -25.824  0.00  0.00    +0.189 HD
ENDBRANCH   4  11
ENDBRANCH   1   3
BRANCH   1  19
ATOM     19  C   UNL     1      32.335 -12.718 -21.732  0.00  0.00    +0.184 C 
BRANCH  19  20
ATOM     20  C   UNL     1      33.083 -13.646 -20.764  0.00  0.00    -0.017 C 
BRANCH  20  21
ATOM     21  N   UNL     1      32.303 -14.879 -20.600  0.00  0.00    +0.384 N 
ATOM     22  H   UNL     1      32.703 -15.435 -19.845  0.00  0.00    -0.089 HD
ATOM     23  H   UNL     1      32.328 -15.414 -21.468  0.00  0.00    -0.089 HD
ATOM     24  H   UNL     1      31.337 -14.642 -20.374  0.00  0.00    -0.089 HD
ENDBRANCH  20  21
BRANCH  20  25
ATOM     25  C   UNL     1      34.519 -14.003 -21.231  0.00  0.00    +0.009 C 
BRANCH  25  27
ATOM     26  N   UNL     1      34.525 -15.904 -24.349  0.00  0.00    -0.312 N 
ATOM     27  C   UNL     1      34.577 -14.994 -22.325  0.00  0.00    -0.008 C 
ATOM     28  C   UNL     1      34.830 -16.388 -22.193  0.00  0.00    +0.011 C 
ATOM     29  C   UNL     1      34.792 -16.935 -23.477  0.00  0.00    +0.048 C 
ATOM     30  C   UNL     1      34.393 -14.726 -23.662  0.00  0.00    +0.058 C 
ATOM     31  C   UNL     1      35.090 -17.240 -21.101  0.00  0.00    +0.001 C 
ATOM     32  C   UNL     1      35.001 -18.297 -23.725  0.00  0.00    +0.015 C 
ATOM     33  C   UNL     1      35.301 -18.604 -21.333  0.00  0.00    +0.000 C 
ATOM     34  C   UNL     1      35.257 -19.122 -22.626  0.00  0.00    +0.001 C 
ATOM     35  H   UNL     1      34.440 -15.999 -25.325  0.00  0.00    +0.152 HD
ENDBRANCH  25  27
ENDBRANCH  20  25
ENDBRANCH  19  20
ENDBRANCH   1  19
TORSDOF 7
ENDMDL
MODEL 9
REMARK VINA RESULT:     -11.6      7.731     12.076
REMARK  Name = 10172943
REMARK  7 active torsions:
REMARK  status: ('A' for Active; 'I' for Inactive)
REMARK    1  A    between atoms: O_1  and  C_3
REMARK    2  A    between atoms: O_1  and  C_19
REMARK    3  A    between atoms: C_4  and  C_11
REMARK    4  A    between atoms: C_19  and  C_20
REMARK    5  A    between atoms: C_20  and  N_21
REMARK    6  A    between atoms: C_20  and  C_25
REMARK    7  A    between atoms: C_25  and  C_27
REMARK                            x       y       z     vdW  Elec       q    Type
REMARK                         _______ _______ _______ _____ _____    ______ ____
ROOT
ATOM      1  O   UNL     1      31.702  -9.291 -21.625  0.00  0.00    -0.476 OA
ENDROOT
BRANCH   1   3
ATOM      2  N   UNL     1      31.757 -12.356 -19.656  0.00  0.00    -0.239 NA
ATOM      3  C   UNL     1      31.907 -10.606 -21.298  0.00  0.00    +0.158 C 
ATOM      4  C   UNL     1      32.632 -12.813 -21.863  0.00  0.00    +0.022 C 
ATOM      5  C   UNL     1      32.439 -11.485 -22.223  0.00  0.00    +0.040 C 
ATOM      6  C   UNL     1      31.583 -11.073 -20.043  0.00  0.00    +0.136 C 
ATOM      7  C   UNL     1      32.280 -13.196 -20.578  0.00  0.00    +0.099 C 
BRANCH   4  11
ATOM      8  N   UNL     1      35.276 -17.300 -24.415  0.00  0.00    -0.280 N 
ATOM      9  N   UNL     1      34.776 -16.509 -25.386  0.00  0.00    -0.173 NA
ATOM     10  C   UNL     1      34.339 -15.702 -23.308  0.00  0.00    +0.032 A 
ATOM     11  C   UNL     1      33.185 -13.766 -22.798  0.00  0.00    +0.002 C 
ATOM     12  C   UNL     1      34.183 -15.498 -24.728  0.00  0.00    +0.102 A 
ATOM     13  C   UNL     1      33.873 -14.887 -22.284  0.00  0.00    +0.003 C 
ATOM     14  C   UNL     1      35.042 -16.862 -23.145  0.00  0.00    +0.053 A 
ATOM     15  C   UNL     1      33.005 -13.524 -24.200  0.00  0.00    +0.002 C 
ATOM     16  C   UNL     1      33.493 -14.374 -25.217  0.00  0.00    +0.021 C 
ATOM     17  C   UNL     1      35.515 -17.603 -21.964  0.00  0.00    +0.051 C 
ATOM     18  H   UNL     1      35.771 -18.129 -24.609  0.00  0.00    +0.189 HD
ENDBRANCH   4  11
ENDBRANCH   1   3
BRANCH   1  19
ATOM     19  C   UNL     1      31.557  -8.377 -20.547  0.00  0.00    +0.184 C 
BRANCH  19  20
ATOM     20  C   UNL     1      32.545  -7.207 -20.652  0.00  0.00    -0.017 C 
BRANCH  20  21
ATOM     21  N   UNL     1      33.463  -7.264 -19.508  0.00  0.00    +0.384 N 
ATOM     22  H   UNL     1      34.086  -6.457 -19.533  0.00  0.00    -0.089 HD
ATOM     23  H   UNL     1      34.012  -8.122 -19.556  0.00  0.00    -0.089 HD
ATOM     24  H   UNL     1      32.925  -7.253 -18.641  0.00  0.00    -0.089 HD
ENDBRANCH  20  21
BRANCH  20  25
ATOM     25  C   UNL     1      33.364  -7.203 -21.970  0.00  0.00    +0.009 C 
BRANCH  25  27
ATOM     26  N   UNL     1      31.791  -4.575 -23.957  0.00  0.00    -0.312 N 
ATOM     27  C   UNL     1      32.957  -6.166 -22.940  0.00  0.00    -0.008 C 
ATOM     28  C   UNL     1      33.679  -5.755 -24.094  0.00  0.00    +0.011 C 
ATOM     29  C   UNL     1      32.926  -4.756 -24.715  0.00  0.00    +0.048 C 
ATOM     30  C   UNL     1      31.800  -5.423 -22.882  0.00  0.00    +0.058 C 
ATOM     31  C   UNL     1      34.906  -6.137 -24.672  0.00  0.00    +0.001 C 
ATOM     32  C   UNL     1      33.340  -4.117 -25.890  0.00  0.00    +0.015 C 
ATOM     33  C   UNL     1      35.333  -5.507 -25.847  0.00  0.00    +0.000 C 
ATOM     34  C   UNL     1      34.561  -4.513 -26.445  0.00  0.00    +0.001 C 
ATOM     35  H   UNL     1      31.076  -3.930 -24.160  0.00  0.00    +0.152 HD
ENDBRANCH  25  27
ENDBRANCH  20  25
ENDBRANCH  19  20
ENDBRANCH   1  19
TORSDOF 7
ENDMDL
