MODEL 1
REMARK VINA RESULT:     -11.8      0.000      0.000
REMARK  Name = 46937091
REMARK  8 active torsions:
REMARK  status: ('A' for Active; 'I' for Inactive)
REMARK    1  A    between atoms: C_1  and  C_4
REMARK    2  A    between atoms: C_1  and  C_18
REMARK    3  A    between atoms: C_10  and  C_12
REMARK    4  A    between atoms: C_18  and  C_19
REMARK    5  A    between atoms: C_19  and  N_20
REMARK    6  A    between atoms: C_19  and  C_30
REMARK    7  A    between atoms: C_24  and  C_27
REMARK    8  A    between atoms: C_30  and  O_32
REMARK                            x       y       z     vdW  Elec       q    Type
REMARK                         _______ _______ _______ _____ _____    ______ ____
ROOT
ATOM      1  C   UNL     1      34.786 -24.615 -14.179  0.00  0.00    +0.031 C 
ENDROOT
BRANCH   1   4
ATOM      2  O   UNL     1      33.828 -23.037 -16.617  0.00  0.00    -0.425 OA
ATOM      3  N   UNL     1      31.692 -22.618 -17.249  0.00  0.00    -0.368 NA
ATOM      4  C   UNL     1      33.357 -24.352 -14.578  0.00  0.00    +0.014 C 
ATOM      5  C   UNL     1      32.997 -23.622 -15.705  0.00  0.00    +0.170 C 
ATOM      6  C   UNL     1      32.295 -24.842 -13.810  0.00  0.00    -0.005 C 
ATOM      7  C   UNL     1      31.691 -23.364 -16.095  0.00  0.00    +0.151 C 
ATOM      8  C   UNL     1      30.963 -24.604 -14.169  0.00  0.00    -0.019 C 
ATOM      9  C   UNL     1      30.638 -23.863 -15.315  0.00  0.00    +0.088 C 
ATOM     10  C   UNL     1      32.972 -22.459 -17.505  0.00  0.00    +0.282 C 
BRANCH  10  12
ATOM     11 CL   UNL     1      35.579 -19.568 -22.001  0.00  0.00    -0.082 Cl
ATOM     12  C   UNL     1      33.601 -21.760 -18.592  0.00  0.00    +0.066 C 
ATOM     13  C   UNL     1      34.976 -21.882 -18.795  0.00  0.00    +0.007 C 
ATOM     14  C   UNL     1      32.839 -20.962 -19.443  0.00  0.00    +0.007 C 
ATOM     15  C   UNL     1      35.587 -21.204 -19.849  0.00  0.00    +0.012 C 
ATOM     16  C   UNL     1      33.450 -20.284 -20.498  0.00  0.00    +0.012 C 
ATOM     17  C   UNL     1      34.825 -20.405 -20.701  0.00  0.00    +0.058 C 
ENDBRANCH  10  12
ENDBRANCH   1   4
BRANCH   1  18
ATOM     18  C   UNL     1      35.097 -24.328 -12.700  0.00  0.00    +0.023 C 
BRANCH  18  19
ATOM     19  C   UNL     1      36.431 -23.578 -12.441  0.00  0.00    +0.087 C 
BRANCH  19  20
ATOM     20  N   UNL     1      37.542 -24.007 -13.391  0.00  0.00    -0.246 NA
ATOM     21  N   UNL     1      38.890 -23.996 -15.155  0.00  0.00    -0.251 NA
ATOM     22  C   UNL     1      38.372 -25.080 -13.233  0.00  0.00    +0.125 C 
ATOM     23  C   UNL     1      37.890 -23.386 -14.558  0.00  0.00    +0.201 C 
ATOM     24  C   UNL     1      39.196 -25.053 -14.334  0.00  0.00    +0.124 C 
BRANCH  24  27
ATOM     25  O   UNL     1      40.687 -26.146 -15.793  0.00  0.00    -0.269 OA
ATOM     26  N   UNL     1      40.806 -26.716 -13.576  0.00  0.00    -0.324 N 
ATOM     27  C   UNL     1      40.243 -25.980 -14.629  0.00  0.00    +0.257 C 
ATOM     28  H   UNL     1      41.528 -27.360 -13.755  0.00  0.00    +0.145 HD
ATOM     29  H   UNL     1      40.478 -26.588 -12.656  0.00  0.00    +0.145 HD
ENDBRANCH  24  27
ENDBRANCH  19  20
BRANCH  19  30
ATOM     30  C   UNL     1      36.835 -23.690 -10.946  0.00  0.00    +0.125 C 
ATOM     31  C   UNL     1      35.753 -24.296 -10.059  0.00  0.00    +0.033 C 
BRANCH  30  32
ATOM     32  O   UNL     1      37.212 -22.417 -10.426  0.00  0.00    -0.383 OA
ATOM     33  H   UNL     1      37.365 -21.801 -11.160  0.00  0.00    +0.210 HD
ENDBRANCH  30  32
ENDBRANCH  19  30
ENDBRANCH  18  19
ENDBRANCH   1  18
TORSDOF 8
ENDMDL
MODEL 2
REMARK VINA RESULT:     -11.3     10.940     14.826
REMARK  Name = 46937091
REMARK  8 active torsions:
REMARK  status: ('A' for Active; 'I' for Inactive)
REMARK    1  A    between atoms: C_1  and  C_4
REMARK    2  A    between atoms: C_1  and  C_18
REMARK    3  A    between atoms: C_10  and  C_12
REMARK    4  A    between atoms: C_18  and  C_19
REMARK    5  A    between atoms: C_19  and  N_20
REMARK    6  A    between atoms: C_19  and  C_30
REMARK    7  A    between atoms: C_24  and  C_27
REMARK    8  A    between atoms: C_30  and  O_32
REMARK                            x       y       z     vdW  Elec       q    Type
REMARK                         _______ _______ _______ _____ _____    ______ ____
ROOT
ATOM      1  C   UNL     1      31.885 -12.502 -22.173  0.00  0.00    +0.031 C 
ENDROOT
BRANCH   1   4
ATOM      2  O   UNL     1      32.635  -9.543 -22.361  0.00  0.00    -0.425 OA
ATOM      3  N   UNL     1      32.545  -7.980 -20.722  0.00  0.00    -0.368 NA
ATOM      4  C   UNL     1      31.815 -11.482 -21.066  0.00  0.00    +0.014 C 
ATOM      5  C   UNL     1      32.175 -10.149 -21.227  0.00  0.00    +0.170 C 
ATOM      6  C   UNL     1      31.373 -11.839 -19.787  0.00  0.00    -0.005 C 
ATOM      7  C   UNL     1      32.121  -9.189 -20.226  0.00  0.00    +0.151 C 
ATOM      8  C   UNL     1      31.304 -10.901 -18.750  0.00  0.00    -0.019 C 
ATOM      9  C   UNL     1      31.675  -9.564 -18.951  0.00  0.00    +0.088 C 
ATOM     10  C   UNL     1      32.832  -8.252 -21.976  0.00  0.00    +0.282 C 
BRANCH  10  12
ATOM     11 CL   UNL     1      34.875  -4.636 -26.234  0.00  0.00    -0.082 Cl
ATOM     12  C   UNL     1      33.326  -7.378 -23.005  0.00  0.00    +0.066 C 
ATOM     13  C   UNL     1      32.435  -6.608 -23.752  0.00  0.00    +0.007 C 
ATOM     14  C   UNL     1      34.696  -7.300 -23.256  0.00  0.00    +0.007 C 
ATOM     15  C   UNL     1      32.914  -5.760 -24.751  0.00  0.00    +0.012 C 
ATOM     16  C   UNL     1      35.175  -6.453 -24.254  0.00  0.00    +0.012 C 
ATOM     17  C   UNL     1      34.284  -5.682 -25.002  0.00  0.00    +0.058 C 
ENDBRANCH  10  12
ENDBRANCH   1   4
BRANCH   1  18
ATOM     18  C   UNL     1      33.311 -12.961 -22.525  0.00  0.00    +0.023 C 
BRANCH  18  19
ATOM     19  C   UNL     1      33.435 -13.775 -23.840  0.00  0.00    +0.087 C 
BRANCH  19  20
ATOM     20  N   UNL     1      34.145 -15.108 -23.643  0.00  0.00    -0.246 NA
ATOM     21  N   UNL     1      35.048 -17.077 -24.134  0.00  0.00    -0.251 NA
ATOM     22  C   UNL     1      34.615 -15.608 -22.463  0.00  0.00    +0.125 C 
ATOM     23  C   UNL     1      34.427 -16.024 -24.618  0.00  0.00    +0.201 C 
ATOM     24  C   UNL     1      35.169 -16.824 -22.790  0.00  0.00    +0.124 C 
BRANCH  24  27
ATOM     25  O   UNL     1      35.374 -17.924 -20.718  0.00  0.00    -0.269 OA
ATOM     26  N   UNL     1      36.911 -18.463 -22.331  0.00  0.00    -0.324 N 
ATOM     27  C   UNL     1      35.796 -17.738 -21.887  0.00  0.00    +0.257 C 
ATOM     28  H   UNL     1      37.360 -19.098 -21.727  0.00  0.00    +0.145 HD
ATOM     29  H   UNL     1      37.246 -18.337 -23.248  0.00  0.00    +0.145 HD
ENDBRANCH  24  27
ENDBRANCH  19  20
BRANCH  19  30
ATOM     30  C   UNL     1      34.076 -12.908 -24.958  0.00  0.00    +0.125 C 
ATOM     31  C   UNL     1      34.251 -11.442 -24.576  0.00  0.00    +0.033 C 
BRANCH  30  32
ATOM     32  O   UNL     1      33.317 -12.992 -26.162  0.00  0.00    -0.383 OA
ATOM     33  H   UNL     1      33.916 -13.142 -26.911  0.00  0.00    +0.210 HD
ENDBRANCH  30  32
ENDBRANCH  19  30
ENDBRANCH  18  19
ENDBRANCH   1  18
TORSDOF 8
ENDMDL
MODEL 3
REMARK VINA RESULT:     -11.1      3.645      7.402
REMARK  Name = 46937091
REMARK  8 active torsions:
REMARK  status: ('A' for Active; 'I' for Inactive)
REMARK    1  A    between atoms: C_1  and  C_4
REMARK    2  A    between atoms: C_1  and  C_18
REMARK    3  A    between atoms: C_10  and  C_12
REMARK    4  A    between atoms: C_18  and  C_19
REMARK    5  A    between atoms: C_19  and  N_20
REMARK    6  A    between atoms: C_19  and  C_30
REMARK    7  A    between atoms: C_24  and  C_27
REMARK    8  A    between atoms: C_30  and  O_32
REMARK                            x       y       z     vdW  Elec       q    Type
REMARK                         _______ _______ _______ _____ _____    ______ ____
ROOT
ATOM      1  C   UNL     1      33.055 -23.366 -16.873  0.00  0.00    +0.031 C 
ENDROOT
BRANCH   1   4
ATOM      2  O   UNL     1      34.842 -21.612 -18.628  0.00  0.00    -0.425 OA
ATOM      3  N   UNL     1      37.041 -21.144 -18.343  0.00  0.00    -0.368 NA
ATOM      4  C   UNL     1      34.517 -23.070 -16.659  0.00  0.00    +0.014 C 
ATOM      5  C   UNL     1      35.267 -22.260 -17.504  0.00  0.00    +0.170 C 
ATOM      6  C   UNL     1      35.208 -23.613 -15.571  0.00  0.00    -0.005 C 
ATOM      7  C   UNL     1      36.613 -21.971 -17.332  0.00  0.00    +0.151 C 
ATOM      8  C   UNL     1      36.567 -23.347 -15.361  0.00  0.00    -0.019 C 
ATOM      9  C   UNL     1      37.291 -22.523 -16.236  0.00  0.00    +0.088 C 
ATOM     10  C   UNL     1      35.959 -20.969 -19.069  0.00  0.00    +0.282 C 
BRANCH  10  12
ATOM     11 CL   UNL     1      35.237 -17.764 -24.026  0.00  0.00    -0.082 Cl
ATOM     12  C   UNL     1      35.784 -20.195 -20.267  0.00  0.00    +0.066 C 
ATOM     13  C   UNL     1      36.829 -19.404 -20.744  0.00  0.00    +0.007 C 
ATOM     14  C   UNL     1      34.571 -20.235 -20.953  0.00  0.00    +0.007 C 
ATOM     15  C   UNL     1      36.659 -18.652 -21.906  0.00  0.00    +0.012 C 
ATOM     16  C   UNL     1      34.401 -19.483 -22.115  0.00  0.00    +0.012 C 
ATOM     17  C   UNL     1      35.446 -18.692 -22.592  0.00  0.00    +0.058 C 
ENDBRANCH  10  12
ENDBRANCH   1   4
BRANCH   1  18
ATOM     18  C   UNL     1      32.155 -23.021 -15.674  0.00  0.00    +0.023 C 
BRANCH  18  19
ATOM     19  C   UNL     1      31.117 -24.111 -15.294  0.00  0.00    +0.087 C 
BRANCH  19  20
ATOM     20  N   UNL     1      29.716 -23.794 -15.801  0.00  0.00    -0.246 NA
ATOM     21  N   UNL     1      27.767 -24.058 -16.832  0.00  0.00    -0.251 NA
ATOM     22  C   UNL     1      29.023 -22.636 -15.591  0.00  0.00    +0.125 C 
ATOM     23  C   UNL     1      28.923 -24.617 -16.550  0.00  0.00    +0.201 C 
ATOM     24  C   UNL     1      27.823 -22.822 -16.236  0.00  0.00    +0.124 C 
BRANCH  24  27
ATOM     25  O   UNL     1      26.663 -21.023 -17.219  0.00  0.00    -0.269 OA
ATOM     26  N   UNL     1      25.741 -21.940 -15.330  0.00  0.00    -0.324 N 
ATOM     27  C   UNL     1      26.746 -21.883 -16.306  0.00  0.00    +0.257 C 
ATOM     28  H   UNL     1      24.990 -21.304 -15.358  0.00  0.00    +0.145 HD
ATOM     29  H   UNL     1      25.786 -22.616 -14.616  0.00  0.00    +0.145 HD
ENDBRANCH  24  27
ENDBRANCH  19  20
BRANCH  19  30
ATOM     30  C   UNL     1      31.159 -24.393 -13.768  0.00  0.00    +0.125 C 
ATOM     31  C   UNL     1      32.546 -24.755 -13.246  0.00  0.00    +0.033 C 
BRANCH  30  32
ATOM     32  O   UNL     1      30.241 -25.426 -13.418  0.00  0.00    -0.383 OA
ATOM     33  H   UNL     1      30.240 -25.545 -12.455  0.00  0.00    +0.210 HD
ENDBRANCH  30  32
ENDBRANCH  19  30
ENDBRANCH  18  19
ENDBRANCH   1  18
TORSDOF 8
ENDMDL
MODEL 4
REMARK VINA RESULT:     -10.5     10.390     14.181
REMARK  Name = 46937091
REMARK  8 active torsions:
REMARK  status: ('A' for Active; 'I' for Inactive)
REMARK    1  A    between atoms: C_1  and  C_4
REMARK    2  A    between atoms: C_1  and  C_18
REMARK    3  A    between atoms: C_10  and  C_12
REMARK    4  A    between atoms: C_18  and  C_19
REMARK    5  A    between atoms: C_19  and  N_20
REMARK    6  A    between atoms: C_19  and  C_30
REMARK    7  A    between atoms: C_24  and  C_27
REMARK    8  A    between atoms: C_30  and  O_32
REMARK                            x       y       z     vdW  Elec       q    Type
REMARK                         _______ _______ _______ _____ _____    ______ ____
ROOT
ATOM      1  C   UNL     1      32.480 -12.862 -22.970  0.00  0.00    +0.031 C 
ENDROOT
BRANCH   1   4
ATOM      2  O   UNL     1      32.844  -9.828 -22.856  0.00  0.00    -0.425 OA
ATOM      3  N   UNL     1      32.465  -8.448 -21.099  0.00  0.00    -0.368 NA
ATOM      4  C   UNL     1      32.219 -11.967 -21.786  0.00  0.00    +0.014 C 
ATOM      5  C   UNL     1      32.409 -10.590 -21.809  0.00  0.00    +0.170 C 
ATOM      6  C   UNL     1      31.762 -12.494 -20.574  0.00  0.00    -0.005 C 
ATOM      7  C   UNL     1      32.177  -9.742 -20.736  0.00  0.00    +0.151 C 
ATOM      8  C   UNL     1      31.516 -11.673 -19.466  0.00  0.00    -0.019 C 
ATOM      9  C   UNL     1      31.718 -10.286 -19.528  0.00  0.00    +0.088 C 
ATOM     10  C   UNL     1      32.850  -8.564 -22.350  0.00  0.00    +0.282 C 
BRANCH  10  12
ATOM     11 CL   UNL     1      34.620  -4.339 -26.144  0.00  0.00    -0.082 Cl
ATOM     12  C   UNL     1      33.278  -7.543 -23.267  0.00  0.00    +0.066 C 
ATOM     13  C   UNL     1      32.337  -6.710 -23.871  0.00  0.00    +0.007 C 
ATOM     14  C   UNL     1      34.634  -7.385 -23.552  0.00  0.00    +0.007 C 
ATOM     15  C   UNL     1      32.752  -5.719 -24.761  0.00  0.00    +0.012 C 
ATOM     16  C   UNL     1      35.049  -6.395 -24.442  0.00  0.00    +0.012 C 
ATOM     17  C   UNL     1      34.108  -5.561 -25.046  0.00  0.00    +0.058 C 
ENDBRANCH  10  12
ENDBRANCH   1   4
BRANCH   1  18
ATOM     18  C   UNL     1      33.843 -13.576 -22.938  0.00  0.00    +0.023 C 
BRANCH  18  19
ATOM     19  C   UNL     1      33.819 -15.062 -23.387  0.00  0.00    +0.087 C 
BRANCH  19  20
ATOM     20  N   UNL     1      34.510 -15.988 -22.394  0.00  0.00    -0.246 NA
ATOM     21  N   UNL     1      35.100 -16.887 -20.451  0.00  0.00    -0.251 NA
ATOM     22  C   UNL     1      35.377 -16.997 -22.698  0.00  0.00    +0.125 C 
ATOM     23  C   UNL     1      34.374 -15.959 -21.034  0.00  0.00    +0.201 C 
ATOM     24  C   UNL     1      35.729 -17.538 -21.483  0.00  0.00    +0.124 C 
BRANCH  24  27
ATOM     25  O   UNL     1      36.317 -19.628 -20.570  0.00  0.00    -0.269 OA
ATOM     26  N   UNL     1      37.884 -18.597 -21.888  0.00  0.00    -0.324 N 
ATOM     27  C   UNL     1      36.625 -18.632 -21.272  0.00  0.00    +0.257 C 
ATOM     28  H   UNL     1      38.518 -19.340 -21.758  0.00  0.00    +0.145 HD
ATOM     29  H   UNL     1      38.135 -17.830 -22.452  0.00  0.00    +0.145 HD
ENDBRANCH  24  27
ENDBRANCH  19  20
BRANCH  19  30
ATOM     30  C   UNL     1      34.371 -15.202 -24.831  0.00  0.00    +0.125 C 
ATOM     31  C   UNL     1      33.520 -14.506 -25.887  0.00  0.00    +0.033 C 
BRANCH  30  32
ATOM     32  O   UNL     1      34.526 -16.575 -25.183  0.00  0.00    -0.383 OA
ATOM     33  H   UNL     1      33.754 -17.076 -24.877  0.00  0.00    +0.210 HD
ENDBRANCH  30  32
ENDBRANCH  19  30
ENDBRANCH  18  19
ENDBRANCH   1  18
TORSDOF 8
ENDMDL
MODEL 5
REMARK VINA RESULT:     -10.2      1.642      3.447
REMARK  Name = 46937091
REMARK  8 active torsions:
REMARK  status: ('A' for Active; 'I' for Inactive)
REMARK    1  A    between atoms: C_1  and  C_4
REMARK    2  A    between atoms: C_1  and  C_18
REMARK    3  A    between atoms: C_10  and  C_12
REMARK    4  A    between atoms: C_18  and  C_19
REMARK    5  A    between atoms: C_19  and  N_20
REMARK    6  A    between atoms: C_19  and  C_30
REMARK    7  A    between atoms: C_24  and  C_27
REMARK    8  A    between atoms: C_30  and  O_32
REMARK                            x       y       z     vdW  Elec       q    Type
REMARK                         _______ _______ _______ _____ _____    ______ ____
ROOT
ATOM      1  C   UNL     1      34.242 -24.601 -14.665  0.00  0.00    +0.031 C 
ENDROOT
BRANCH   1   4
ATOM      2  O   UNL     1      33.664 -22.799 -17.067  0.00  0.00    -0.425 OA
ATOM      3  N   UNL     1      31.652 -22.048 -17.790  0.00  0.00    -0.368 NA
ATOM      4  C   UNL     1      32.891 -24.117 -15.125  0.00  0.00    +0.014 C 
ATOM      5  C   UNL     1      32.706 -23.295 -16.231  0.00  0.00    +0.170 C 
ATOM      6  C   UNL     1      31.726 -24.480 -14.440  0.00  0.00    -0.005 C 
ATOM      7  C   UNL     1      31.475 -22.834 -16.676  0.00  0.00    +0.151 C 
ATOM      8  C   UNL     1      30.465 -24.037 -14.856  0.00  0.00    -0.019 C 
ATOM      9  C   UNL     1      30.318 -23.209 -15.979  0.00  0.00    +0.088 C 
ATOM     10  C   UNL     1      32.954 -22.066 -17.969  0.00  0.00    +0.282 C 
BRANCH  10  12
ATOM     11 CL   UNL     1      36.204 -19.392 -22.171  0.00  0.00    -0.082 Cl
ATOM     12  C   UNL     1      33.740 -21.420 -18.984  0.00  0.00    +0.066 C 
ATOM     13  C   UNL     1      33.125 -20.578 -19.911  0.00  0.00    +0.007 C 
ATOM     14  C   UNL     1      35.116 -21.634 -19.043  0.00  0.00    +0.007 C 
ATOM     15  C   UNL     1      33.887 -19.951 -20.896  0.00  0.00    +0.012 C 
ATOM     16  C   UNL     1      35.879 -21.007 -20.028  0.00  0.00    +0.012 C 
ATOM     17  C   UNL     1      35.264 -20.165 -20.955  0.00  0.00    +0.058 C 
ENDBRANCH  10  12
ENDBRANCH   1   4
BRANCH   1  18
ATOM     18  C   UNL     1      35.424 -24.067 -15.493  0.00  0.00    +0.023 C 
BRANCH  18  19
ATOM     19  C   UNL     1      36.829 -24.374 -14.909  0.00  0.00    +0.087 C 
BRANCH  19  20
ATOM     20  N   UNL     1      36.780 -24.789 -13.444  0.00  0.00    -0.246 NA
ATOM     21  N   UNL     1      37.076 -26.020 -11.619  0.00  0.00    -0.251 NA
ATOM     22  C   UNL     1      36.238 -24.071 -12.416  0.00  0.00    +0.125 C 
ATOM     23  C   UNL     1      37.271 -25.952 -12.918  0.00  0.00    +0.201 C 
ATOM     24  C   UNL     1      36.433 -24.850 -11.300  0.00  0.00    +0.124 C 
BRANCH  24  27
ATOM     25  O   UNL     1      35.241 -25.247  -9.308  0.00  0.00    -0.269 OA
ATOM     26  N   UNL     1      36.569 -23.379  -9.364  0.00  0.00    -0.324 N 
ATOM     27  C   UNL     1      36.036 -24.529  -9.965  0.00  0.00    +0.257 C 
ATOM     28  H   UNL     1      36.310 -23.137  -8.445  0.00  0.00    +0.145 HD
ATOM     29  H   UNL     1      37.203 -22.813  -9.861  0.00  0.00    +0.145 HD
ENDBRANCH  24  27
ENDBRANCH  19  20
BRANCH  19  30
ATOM     30  C   UNL     1      37.796 -23.188 -15.169  0.00  0.00    +0.125 C 
ATOM     31  C   UNL     1      37.245 -22.143 -16.133  0.00  0.00    +0.033 C 
BRANCH  30  32
ATOM     32  O   UNL     1      39.053 -23.657 -15.652  0.00  0.00    -0.383 OA
ATOM     33  H   UNL     1      39.743 -23.007 -15.442  0.00  0.00    +0.210 HD
ENDBRANCH  30  32
ENDBRANCH  19  30
ENDBRANCH  18  19
ENDBRANCH   1  18
TORSDOF 8
ENDMDL
MODEL 6
REMARK VINA RESULT:     -10.0      3.687      7.695
REMARK  Name = 46937091
REMARK  8 active torsions:
REMARK  status: ('A' for Active; 'I' for Inactive)
REMARK    1  A    between atoms: C_1  and  C_4
REMARK    2  A    between atoms: C_1  and  C_18
REMARK    3  A    between atoms: C_10  and  C_12
REMARK    4  A    between atoms: C_18  and  C_19
REMARK    5  A    between atoms: C_19  and  N_20
REMARK    6  A    between atoms: C_19  and  C_30
REMARK    7  A    between atoms: C_24  and  C_27
REMARK    8  A    between atoms: C_30  and  O_32
REMARK                            x       y       z     vdW  Elec       q    Type
REMARK                         _______ _______ _______ _____ _____    ______ ____
ROOT
ATOM      1  C   UNL     1      37.172 -22.079 -17.028  0.00  0.00    +0.031 C 
ENDROOT
BRANCH   1   4
ATOM      2  O   UNL     1      34.629 -23.011 -15.610  0.00  0.00    -0.425 OA
ATOM      3  N   UNL     1      34.458 -24.433 -13.854  0.00  0.00    -0.368 NA
ATOM      4  C   UNL     1      37.087 -23.028 -15.861  0.00  0.00    +0.014 C 
ATOM      5  C   UNL     1      35.889 -23.406 -15.265  0.00  0.00    +0.170 C 
ATOM      6  C   UNL     1      38.242 -23.587 -15.304  0.00  0.00    -0.005 C 
ATOM      7  C   UNL     1      35.781 -24.277 -14.191  0.00  0.00    +0.151 C 
ATOM      8  C   UNL     1      38.177 -24.470 -14.219  0.00  0.00    -0.019 C 
ATOM      9  C   UNL     1      36.948 -24.829 -13.645  0.00  0.00    +0.088 C 
ATOM     10  C   UNL     1      33.833 -23.667 -14.721  0.00  0.00    +0.282 C 
BRANCH  10  12
ATOM     11 CL   UNL     1      28.005 -22.649 -15.323  0.00  0.00    -0.082 Cl
ATOM     12  C   UNL     1      32.424 -23.421 -14.866  0.00  0.00    +0.066 C 
ATOM     13  C   UNL     1      31.893 -23.134 -16.123  0.00  0.00    +0.007 C 
ATOM     14  C   UNL     1      31.589 -23.470 -13.751  0.00  0.00    +0.007 C 
ATOM     15  C   UNL     1      30.526 -22.895 -16.264  0.00  0.00    +0.012 C 
ATOM     16  C   UNL     1      30.222 -23.231 -13.892  0.00  0.00    +0.012 C 
ATOM     17  C   UNL     1      29.691 -22.944 -15.149  0.00  0.00    +0.058 C 
ENDBRANCH  10  12
ENDBRANCH   1   4
BRANCH   1  18
ATOM     18  C   UNL     1      35.811 -21.672 -17.617  0.00  0.00    +0.023 C 
BRANCH  18  19
ATOM     19  C   UNL     1      35.677 -21.851 -19.153  0.00  0.00    +0.087 C 
BRANCH  19  20
ATOM     20  N   UNL     1      36.023 -20.585 -19.926  0.00  0.00    -0.246 NA
ATOM     21  N   UNL     1      37.216 -18.877 -20.695  0.00  0.00    -0.251 NA
ATOM     22  C   UNL     1      35.185 -19.882 -20.744  0.00  0.00    +0.125 C 
ATOM     23  C   UNL     1      37.231 -19.945 -19.928  0.00  0.00    +0.201 C 
ATOM     24  C   UNL     1      35.943 -18.832 -21.207  0.00  0.00    +0.124 C 
BRANCH  24  27
ATOM     25  O   UNL     1      35.528 -17.949 -23.351  0.00  0.00    -0.269 OA
ATOM     26  N   UNL     1      35.027 -16.604 -21.563  0.00  0.00    -0.324 N 
ATOM     27  C   UNL     1      35.509 -17.805 -22.103  0.00  0.00    +0.257 C 
ATOM     28  H   UNL     1      34.722 -15.882 -22.160  0.00  0.00    +0.145 HD
ATOM     29  H   UNL     1      34.993 -16.481 -20.587  0.00  0.00    +0.145 HD
ENDBRANCH  24  27
ENDBRANCH  19  20
BRANCH  19  30
ATOM     30  C   UNL     1      34.278 -22.418 -19.515  0.00  0.00    +0.125 C 
ATOM     31  C   UNL     1      33.118 -21.593 -18.966  0.00  0.00    +0.033 C 
BRANCH  30  32
ATOM     32  O   UNL     1      34.147 -23.766 -19.070  0.00  0.00    -0.383 OA
ATOM     33  H   UNL     1      34.383 -23.820 -18.130  0.00  0.00    +0.210 HD
ENDBRANCH  30  32
ENDBRANCH  19  30
ENDBRANCH  18  19
ENDBRANCH   1  18
TORSDOF 8
ENDMDL
MODEL 7
REMARK VINA RESULT:      -9.9      9.674     14.557
REMARK  Name = 46937091
REMARK  8 active torsions:
REMARK  status: ('A' for Active; 'I' for Inactive)
REMARK    1  A    between atoms: C_1  and  C_4
REMARK    2  A    between atoms: C_1  and  C_18
REMARK    3  A    between atoms: C_10  and  C_12
REMARK    4  A    between atoms: C_18  and  C_19
REMARK    5  A    between atoms: C_19  and  N_20
REMARK    6  A    between atoms: C_19  and  C_30
REMARK    7  A    between atoms: C_24  and  C_27
REMARK    8  A    between atoms: C_30  and  O_32
REMARK                            x       y       z     vdW  Elec       q    Type
REMARK                         _______ _______ _______ _____ _____    ______ ____
ROOT
ATOM      1  C   UNL     1      32.754 -13.549 -22.012  0.00  0.00    +0.031 C 
ENDROOT
BRANCH   1   4
ATOM      2  O   UNL     1      34.267 -16.194 -22.269  0.00  0.00    -0.425 OA
ATOM      3  N   UNL     1      35.066 -17.160 -24.157  0.00  0.00    -0.368 NA
ATOM      4  C   UNL     1      33.274 -14.171 -23.283  0.00  0.00    +0.014 C 
ATOM      5  C   UNL     1      33.957 -15.381 -23.321  0.00  0.00    +0.170 C 
ATOM      6  C   UNL     1      33.091 -13.540 -24.518  0.00  0.00    -0.005 C 
ATOM      7  C   UNL     1      34.446 -15.976 -24.475  0.00  0.00    +0.151 C 
ATOM      8  C   UNL     1      33.570 -14.106 -25.706  0.00  0.00    -0.019 C 
ATOM      9  C   UNL     1      34.253 -15.331 -25.705  0.00  0.00    +0.088 C 
ATOM     10  C   UNL     1      34.927 -17.233 -22.852  0.00  0.00    +0.282 C 
BRANCH  10  12
ATOM     11 CL   UNL     1      36.784 -21.462 -19.105  0.00  0.00    -0.082 Cl
ATOM     12  C   UNL     1      35.375 -18.255 -21.946  0.00  0.00    +0.066 C 
ATOM     13  C   UNL     1      36.718 -18.317 -21.575  0.00  0.00    +0.007 C 
ATOM     14  C   UNL     1      34.468 -19.184 -21.439  0.00  0.00    +0.007 C 
ATOM     15  C   UNL     1      37.154 -19.309 -20.696  0.00  0.00    +0.012 C 
ATOM     16  C   UNL     1      34.904 -20.176 -20.560  0.00  0.00    +0.012 C 
ATOM     17  C   UNL     1      36.246 -20.238 -20.189  0.00  0.00    +0.058 C 
ENDBRANCH  10  12
ENDBRANCH   1   4
BRANCH   1  18
ATOM     18  C   UNL     1      33.176 -12.085 -21.802  0.00  0.00    +0.023 C 
BRANCH  18  19
ATOM     19  C   UNL     1      32.029 -11.045 -21.925  0.00  0.00    +0.087 C 
BRANCH  19  20
ATOM     20  N   UNL     1      32.526  -9.669 -22.349  0.00  0.00    -0.246 NA
ATOM     21  N   UNL     1      33.754  -8.122 -23.364  0.00  0.00    -0.251 NA
ATOM     22  C   UNL     1      32.010  -8.467 -21.957  0.00  0.00    +0.125 C 
ATOM     23  C   UNL     1      33.570  -9.413 -23.193  0.00  0.00    +0.201 C 
ATOM     24  C   UNL     1      32.784  -7.526 -22.596  0.00  0.00    +0.124 C 
BRANCH  24  27
ATOM     25  O   UNL     1      32.808  -5.347 -23.491  0.00  0.00    -0.269 OA
ATOM     26  N   UNL     1      32.274  -5.548 -21.270  0.00  0.00    -0.324 N 
ATOM     27  C   UNL     1      32.638  -6.107 -22.504  0.00  0.00    +0.257 C 
ATOM     28  H   UNL     1      32.168  -4.573 -21.182  0.00  0.00    +0.145 HD
ATOM     29  H   UNL     1      32.126  -6.131 -20.491  0.00  0.00    +0.145 HD
ENDBRANCH  24  27
ENDBRANCH  19  20
BRANCH  19  30
ATOM     30  C   UNL     1      31.185 -11.010 -20.623  0.00  0.00    +0.125 C 
ATOM     31  C   UNL     1      31.898 -11.599 -19.410  0.00  0.00    +0.033 C 
BRANCH  30  32
ATOM     32  O   UNL     1      29.940 -11.679 -20.808  0.00  0.00    -0.383 OA
ATOM     33  H   UNL     1      29.799 -12.304 -20.080  0.00  0.00    +0.210 HD
ENDBRANCH  30  32
ENDBRANCH  19  30
ENDBRANCH  18  19
ENDBRANCH   1  18
TORSDOF 8
ENDMDL
MODEL 8
REMARK VINA RESULT:      -9.8      3.588      8.529
REMARK  Name = 46937091
REMARK  8 active torsions:
REMARK  status: ('A' for Active; 'I' for Inactive)
REMARK    1  A    between atoms: C_1  and  C_4
REMARK    2  A    between atoms: C_1  and  C_18
REMARK    3  A    between atoms: C_10  and  C_12
REMARK    4  A    between atoms: C_18  and  C_19
REMARK    5  A    between atoms: C_19  and  N_20
REMARK    6  A    between atoms: C_19  and  C_30
REMARK    7  A    between atoms: C_24  and  C_27
REMARK    8  A    between atoms: C_30  and  O_32
REMARK                            x       y       z     vdW  Elec       q    Type
REMARK                         _______ _______ _______ _____ _____    ______ ____
ROOT
ATOM      1  C   UNL     1      32.124 -22.785 -17.471  0.00  0.00    +0.031 C 
ENDROOT
BRANCH   1   4
ATOM      2  O   UNL     1      34.897 -23.051 -16.210  0.00  0.00    -0.425 OA
ATOM      3  N   UNL     1      36.875 -22.313 -17.033  0.00  0.00    -0.368 NA
ATOM      4  C   UNL     1      33.427 -22.285 -18.042  0.00  0.00    +0.014 C 
ATOM      5  C   UNL     1      34.654 -22.443 -17.407  0.00  0.00    +0.170 C 
ATOM      6  C   UNL     1      33.463 -21.618 -19.271  0.00  0.00    -0.005 C 
ATOM      7  C   UNL     1      35.866 -21.993 -17.909  0.00  0.00    +0.151 C 
ATOM      8  C   UNL     1      34.666 -21.148 -19.813  0.00  0.00    -0.019 C 
ATOM      9  C   UNL     1      35.885 -21.328 -19.143  0.00  0.00    +0.088 C 
ATOM     10  C   UNL     1      36.246 -22.931 -16.059  0.00  0.00    +0.282 C 
BRANCH  10  12
ATOM     11 CL   UNL     1      38.442 -25.288 -11.060  0.00  0.00    -0.082 Cl
ATOM     12  C   UNL     1      36.777 -23.501 -14.851  0.00  0.00    +0.066 C 
ATOM     13  C   UNL     1      36.210 -23.176 -13.619  0.00  0.00    +0.007 C 
ATOM     14  C   UNL     1      37.858 -24.379 -14.911  0.00  0.00    +0.007 C 
ATOM     15  C   UNL     1      36.725 -23.728 -12.447  0.00  0.00    +0.012 C 
ATOM     16  C   UNL     1      38.373 -24.932 -13.738  0.00  0.00    +0.012 C 
ATOM     17  C   UNL     1      37.806 -24.606 -12.506  0.00  0.00    +0.058 C 
ENDBRANCH  10  12
ENDBRANCH   1   4
BRANCH   1  18
ATOM     18  C   UNL     1      32.074 -22.814 -15.934  0.00  0.00    +0.023 C 
BRANCH  18  19
ATOM     19  C   UNL     1      31.108 -23.866 -15.326  0.00  0.00    +0.087 C 
BRANCH  19  20
ATOM     20  N   UNL     1      29.675 -23.700 -15.814  0.00  0.00    -0.246 NA
ATOM     21  N   UNL     1      27.761 -24.158 -16.843  0.00  0.00    -0.251 NA
ATOM     22  C   UNL     1      28.850 -22.642 -15.557  0.00  0.00    +0.125 C 
ATOM     23  C   UNL     1      28.978 -24.585 -16.588  0.00  0.00    +0.201 C 
ATOM     24  C   UNL     1      27.674 -22.947 -16.202  0.00  0.00    +0.124 C 
BRANCH  24  27
ATOM     25  O   UNL     1      25.639 -22.166 -15.311  0.00  0.00    -0.269 OA
ATOM     26  N   UNL     1      26.294 -21.281 -17.322  0.00  0.00    -0.324 N 
ATOM     27  C   UNL     1      26.493 -22.142 -16.232  0.00  0.00    +0.257 C 
ATOM     28  H   UNL     1      25.488 -20.717 -17.364  0.00  0.00    +0.145 HD
ATOM     29  H   UNL     1      26.961 -21.241 -18.045  0.00  0.00    +0.145 HD
ENDBRANCH  24  27
ENDBRANCH  19  20
BRANCH  19  30
ATOM     30  C   UNL     1      31.224 -23.880 -13.778  0.00  0.00    +0.125 C 
ATOM     31  C   UNL     1      32.658 -23.962 -13.268  0.00  0.00    +0.033 C 
BRANCH  30  32
ATOM     32  O   UNL     1      30.465 -24.952 -13.223  0.00  0.00    -0.383 OA
ATOM     33  H   UNL     1      30.785 -25.794 -13.583  0.00  0.00    +0.210 HD
ENDBRANCH  30  32
ENDBRANCH  19  30
ENDBRANCH  18  19
ENDBRANCH   1  18
TORSDOF 8
ENDMDL
MODEL 9
REMARK VINA RESULT:      -9.4      3.615      7.467
REMARK  Name = 46937091
REMARK  8 active torsions:
REMARK  status: ('A' for Active; 'I' for Inactive)
REMARK    1  A    between atoms: C_1  and  C_4
REMARK    2  A    between atoms: C_1  and  C_18
REMARK    3  A    between atoms: C_10  and  C_12
REMARK    4  A    between atoms: C_18  and  C_19
REMARK    5  A    between atoms: C_19  and  N_20
REMARK    6  A    between atoms: C_19  and  C_30
REMARK    7  A    between atoms: C_24  and  C_27
REMARK    8  A    between atoms: C_30  and  O_32
REMARK                            x       y       z     vdW  Elec       q    Type
REMARK                         _______ _______ _______ _____ _____    ______ ____
ROOT
ATOM      1  C   UNL     1      33.041 -22.948 -17.664  0.00  0.00    +0.031 C 
ENDROOT
BRANCH   1   4
ATOM      2  O   UNL     1      34.751 -24.059 -15.384  0.00  0.00    -0.425 OA
ATOM      3  N   UNL     1      34.147 -24.384 -13.225  0.00  0.00    -0.368 NA
ATOM      4  C   UNL     1      32.614 -23.153 -16.233  0.00  0.00    +0.014 C 
ATOM      5  C   UNL     1      33.451 -23.666 -15.248  0.00  0.00    +0.170 C 
ATOM      6  C   UNL     1      31.318 -22.830 -15.817  0.00  0.00    -0.005 C 
ATOM      7  C   UNL     1      33.084 -23.866 -13.925  0.00  0.00    +0.151 C 
ATOM      8  C   UNL     1      30.908 -23.016 -14.491  0.00  0.00    -0.019 C 
ATOM      9  C   UNL     1      31.782 -23.536 -13.525  0.00  0.00    +0.088 C 
ATOM     10  C   UNL     1      35.093 -24.474 -14.133  0.00  0.00    +0.282 C 
BRANCH  10  12
ATOM     11 CL   UNL     1      40.677 -26.439 -13.563  0.00  0.00    -0.082 Cl
ATOM     12  C   UNL     1      36.442 -24.949 -13.996  0.00  0.00    +0.066 C 
ATOM     13  C   UNL     1      37.319 -24.314 -13.116  0.00  0.00    +0.007 C 
ATOM     14  C   UNL     1      36.875 -26.045 -14.741  0.00  0.00    +0.007 C 
ATOM     15  C   UNL     1      38.628 -24.774 -12.983  0.00  0.00    +0.012 C 
ATOM     16  C   UNL     1      38.185 -26.506 -14.607  0.00  0.00    +0.012 C 
ATOM     17  C   UNL     1      39.061 -25.870 -13.728  0.00  0.00    +0.058 C 
ENDBRANCH  10  12
ENDBRANCH   1   4
BRANCH   1  18
ATOM     18  C   UNL     1      34.563 -22.987 -17.884  0.00  0.00    +0.023 C 
BRANCH  18  19
ATOM     19  C   UNL     1      35.236 -21.602 -18.077  0.00  0.00    +0.087 C 
BRANCH  19  20
ATOM     20  N   UNL     1      34.841 -20.933 -19.388  0.00  0.00    -0.246 NA
ATOM     21  N   UNL     1      33.552 -20.140 -21.013  0.00  0.00    -0.251 NA
ATOM     22  C   UNL     1      35.692 -20.406 -20.317  0.00  0.00    +0.125 C 
ATOM     23  C   UNL     1      33.567 -20.750 -19.848  0.00  0.00    +0.201 C 
ATOM     24  C   UNL     1      34.874 -19.922 -21.310  0.00  0.00    +0.124 C 
BRANCH  24  27
ATOM     25  O   UNL     1      34.632 -19.331 -23.577  0.00  0.00    -0.269 OA
ATOM     26  N   UNL     1      36.487 -18.532 -22.492  0.00  0.00    -0.324 N 
ATOM     27  C   UNL     1      35.297 -19.273 -22.512  0.00  0.00    +0.257 C 
ATOM     28  H   UNL     1      36.798 -18.076 -23.308  0.00  0.00    +0.145 HD
ATOM     29  H   UNL     1      37.013 -18.467 -21.662  0.00  0.00    +0.145 HD
ENDBRANCH  24  27
ENDBRANCH  19  20
BRANCH  19  30
ATOM     30  C   UNL     1      36.774 -21.715 -17.896  0.00  0.00    +0.125 C 
ATOM     31  C   UNL     1      37.193 -22.414 -16.606  0.00  0.00    +0.033 C 
BRANCH  30  32
ATOM     32  O   UNL     1      37.387 -20.429 -17.954  0.00  0.00    -0.383 OA
ATOM     33  H   UNL     1      37.046 -19.943 -18.721  0.00  0.00    +0.210 HD
ENDBRANCH  30  32
ENDBRANCH  19  30
ENDBRANCH  18  19
ENDBRANCH   1  18
TORSDOF 8
ENDMDL
