MODEL 1
REMARK VINA RESULT:     -13.1      0.000      0.000
REMARK  Name = 9800765
REMARK  5 active torsions:
REMARK  status: ('A' for Active; 'I' for Inactive)
REMARK    1  A    between atoms: C_3  and  C_17
REMARK    2  A    between atoms: C_5  and  N_8
REMARK    3  A    between atoms: N_8  and  C_14
REMARK    4  A    between atoms: C_17  and  C_20
REMARK    5  A    between atoms: C_23  and  C_26
REMARK                            x       y       z     vdW  Elec       q    Type
REMARK                         _______ _______ _______ _____ _____    ______ ____
ROOT
ATOM      1  O   UNL     1      36.646 -22.419 -15.521  0.00  0.00    -0.337 OA
ATOM      2  N   UNL     1      35.929 -22.405 -16.711  0.00  0.00    -0.079 NA
ATOM      3  C   UNL     1      34.767 -22.995 -16.422  0.00  0.00    +0.106 C 
ATOM      4  C   UNL     1      34.694 -23.399 -15.077  0.00  0.00    +0.076 C 
ATOM      5  C   UNL     1      35.896 -23.012 -14.565  0.00  0.00    +0.252 C 
ENDROOT
BRANCH   3   6
ATOM      6  C   UNL     1      33.743 -23.154 -17.468  0.00  0.00    +0.066 C 
ATOM      7  C   UNL     1      32.293 -23.169 -16.925  0.00  0.00    +0.011 C 
BRANCH   6   9
ATOM      8  F   UNL     1      36.833 -20.661 -20.272  0.00  0.00    -0.204 F 
ATOM      9  C   UNL     1      34.017 -22.097 -18.542  0.00  0.00    -0.015 C 
ATOM     10  C   UNL     1      35.318 -21.863 -18.917  0.00  0.00    +0.026 C 
ATOM     11  C   UNL     1      32.950 -21.422 -19.087  0.00  0.00    -0.004 C 
ATOM     12  C   UNL     1      34.508 -20.198 -20.468  0.00  0.00    +0.027 C 
ATOM     13  C   UNL     1      35.568 -20.901 -19.895  0.00  0.00    +0.140 C 
ATOM     14  C   UNL     1      33.199 -20.459 -20.064  0.00  0.00    +0.002 C 
BRANCH  12  15
ATOM     15  C   UNL     1      34.762 -19.199 -21.484  0.00  0.00    +0.002 C 
ATOM     16  C   UNL     1      34.702 -19.549 -22.834  0.00  0.00    +0.000 C 
ATOM     17  C   UNL     1      35.064 -17.889 -21.115  0.00  0.00    +0.000 C 
ATOM     18  C   UNL     1      34.945 -18.586 -23.813  0.00  0.00    +0.000 C 
ATOM     19  C   UNL     1      35.307 -16.927 -22.095  0.00  0.00    +0.000 C 
ATOM     20  C   UNL     1      35.248 -17.275 -23.445  0.00  0.00    +0.000 C 
ENDBRANCH  12  15
ENDBRANCH   6   9
ENDBRANCH   3   6
BRANCH   5  21
ATOM     21  N   UNL     1      36.379 -23.150 -13.298  0.00  0.00    -0.147 NA
BRANCH  21  29
ATOM     22  O   UNL     1      39.142 -26.960 -14.330  0.00  0.00    -0.350 OA
ATOM     23  N   UNL     1      37.326 -25.241 -13.068  0.00  0.00    -0.277 N 
ATOM     24  N   UNL     1      35.427 -24.875 -11.896  0.00  0.00    -0.373 N 
ATOM     25  C   UNL     1      37.081 -26.681 -13.082  0.00  0.00    +0.125 C 
ATOM     26  C   UNL     1      38.726 -24.852 -13.205  0.00  0.00    +0.125 C 
ATOM     27  C   UNL     1      37.753 -27.294 -14.305  0.00  0.00    +0.164 C 
ATOM     28  C   UNL     1      39.325 -25.545 -14.422  0.00  0.00    +0.164 C 
ATOM     29  C   UNL     1      36.356 -24.348 -12.770  0.00  0.00    +0.182 C 
ATOM     30  H   UNL     1      35.525 -25.800 -11.572  0.00  0.00    +0.158 HD
ATOM     31  H   UNL     1      34.665 -24.327 -11.597  0.00  0.00    +0.158 HD
ENDBRANCH  21  29
ENDBRANCH   5  21
TORSDOF 5
ENDMDL
MODEL 2
REMARK VINA RESULT:     -12.9      1.080      1.583
REMARK  Name = 9800765
REMARK  5 active torsions:
REMARK  status: ('A' for Active; 'I' for Inactive)
REMARK    1  A    between atoms: C_3  and  C_17
REMARK    2  A    between atoms: C_5  and  N_8
REMARK    3  A    between atoms: N_8  and  C_14
REMARK    4  A    between atoms: C_17  and  C_20
REMARK    5  A    between atoms: C_23  and  C_26
REMARK                            x       y       z     vdW  Elec       q    Type
REMARK                         _______ _______ _______ _____ _____    ______ ____
ROOT
ATOM      1  O   UNL     1      37.530 -21.362 -16.283  0.00  0.00    -0.337 OA
ATOM      2  N   UNL     1      36.811 -21.382 -17.472  0.00  0.00    -0.079 NA
ATOM      3  C   UNL     1      35.891 -22.335 -17.304  0.00  0.00    +0.106 C 
ATOM      4  C   UNL     1      35.980 -22.946 -16.041  0.00  0.00    +0.076 C 
ATOM      5  C   UNL     1      37.021 -22.296 -15.448  0.00  0.00    +0.252 C 
ENDROOT
BRANCH   3   6
ATOM      6  C   UNL     1      34.937 -22.633 -18.384  0.00  0.00    +0.066 C 
ATOM      7  C   UNL     1      33.533 -23.050 -17.880  0.00  0.00    +0.011 C 
BRANCH   6   9
ATOM      8  F   UNL     1      37.338 -19.358 -21.054  0.00  0.00    -0.204 F 
ATOM      9  C   UNL     1      34.945 -21.441 -19.346  0.00  0.00    -0.015 C 
ATOM     10  C   UNL     1      36.156 -20.942 -19.762  0.00  0.00    +0.026 C 
ATOM     11  C   UNL     1      33.741 -20.916 -19.753  0.00  0.00    -0.004 C 
ATOM     12  C   UNL     1      34.961 -19.300 -21.070  0.00  0.00    +0.027 C 
ATOM     13  C   UNL     1      36.165 -19.856 -20.638  0.00  0.00    +0.140 C 
ATOM     14  C   UNL     1      33.749 -19.830 -20.628  0.00  0.00    +0.002 C 
BRANCH  12  15
ATOM     15  C   UNL     1      34.964 -18.174 -21.980  0.00  0.00    +0.002 C 
ATOM     16  C   UNL     1      34.964 -16.873 -21.477  0.00  0.00    +0.000 C 
ATOM     17  C   UNL     1      34.969 -18.390 -23.357  0.00  0.00    +0.000 C 
ATOM     18  C   UNL     1      34.969 -15.788 -22.352  0.00  0.00    +0.000 C 
ATOM     19  C   UNL     1      34.973 -17.304 -24.233  0.00  0.00    +0.000 C 
ATOM     20  C   UNL     1      34.972 -16.002 -23.731  0.00  0.00    +0.000 C 
ENDBRANCH  12  15
ENDBRANCH   6   9
ENDBRANCH   3   6
BRANCH   5  21
ATOM     21  N   UNL     1      37.557 -22.477 -14.208  0.00  0.00    -0.147 NA
BRANCH  21  29
ATOM     22  O   UNL     1      38.599 -27.180 -14.128  0.00  0.00    -0.350 OA
ATOM     23  N   UNL     1      37.583 -24.658 -13.456  0.00  0.00    -0.277 N 
ATOM     24  N   UNL     1      35.954 -23.335 -12.614  0.00  0.00    -0.373 N 
ATOM     25  C   UNL     1      36.785 -25.857 -13.213  0.00  0.00    +0.125 C 
ATOM     26  C   UNL     1      39.026 -24.876 -13.501  0.00  0.00    +0.125 C 
ATOM     27  C   UNL     1      37.192 -26.943 -14.201  0.00  0.00    +0.164 C 
ATOM     28  C   UNL     1      39.335 -26.005 -14.477  0.00  0.00    +0.164 C 
ATOM     29  C   UNL     1      37.041 -23.419 -13.459  0.00  0.00    +0.182 C 
ATOM     30  H   UNL     1      35.665 -24.126 -12.103  0.00  0.00    +0.158 HD
ATOM     31  H   UNL     1      35.466 -22.485 -12.522  0.00  0.00    +0.158 HD
ENDBRANCH  21  29
ENDBRANCH   5  21
TORSDOF 5
ENDMDL
MODEL 3
REMARK VINA RESULT:     -12.2      3.831      6.896
REMARK  Name = 9800765
REMARK  5 active torsions:
REMARK  status: ('A' for Active; 'I' for Inactive)
REMARK    1  A    between atoms: C_3  and  C_17
REMARK    2  A    between atoms: C_5  and  N_8
REMARK    3  A    between atoms: N_8  and  C_14
REMARK    4  A    between atoms: C_17  and  C_20
REMARK    5  A    between atoms: C_23  and  C_26
REMARK                            x       y       z     vdW  Elec       q    Type
REMARK                         _______ _______ _______ _____ _____    ______ ____
ROOT
ATOM      1  O   UNL     1      36.250 -19.803 -19.964  0.00  0.00    -0.337 OA
ATOM      2  N   UNL     1      36.572 -18.841 -20.914  0.00  0.00    -0.079 NA
ATOM      3  C   UNL     1      35.527 -18.812 -21.745  0.00  0.00    +0.106 C 
ATOM      4  C   UNL     1      34.525 -19.725 -21.374  0.00  0.00    +0.076 C 
ATOM      5  C   UNL     1      35.033 -20.315 -20.254  0.00  0.00    +0.252 C 
ENDROOT
BRANCH   3   6
ATOM      6  C   UNL     1      35.526 -17.889 -22.891  0.00  0.00    +0.066 C 
ATOM      7  C   UNL     1      35.006 -18.524 -24.204  0.00  0.00    +0.011 C 
BRANCH   6   9
ATOM      8  F   UNL     1      33.085 -13.825 -23.966  0.00  0.00    -0.204 F 
ATOM      9  C   UNL     1      34.788 -16.619 -22.456  0.00  0.00    -0.015 C 
ATOM     10  C   UNL     1      34.270 -15.796 -23.427  0.00  0.00    +0.026 C 
ATOM     11  C   UNL     1      34.675 -16.353 -21.112  0.00  0.00    -0.004 C 
ATOM     12  C   UNL     1      33.465 -14.340 -21.676  0.00  0.00    +0.027 C 
ATOM     13  C   UNL     1      33.597 -14.639 -23.031  0.00  0.00    +0.140 C 
ATOM     14  C   UNL     1      34.003 -15.197 -20.716  0.00  0.00    +0.002 C 
BRANCH  12  15
ATOM     15  C   UNL     1      32.767 -13.142 -21.260  0.00  0.00    +0.002 C 
ATOM     16  C   UNL     1      32.311 -13.023 -19.946  0.00  0.00    +0.000 C 
ATOM     17  C   UNL     1      32.552 -12.108 -22.170  0.00  0.00    +0.000 C 
ATOM     18  C   UNL     1      31.640 -11.868 -19.544  0.00  0.00    +0.000 C 
ATOM     19  C   UNL     1      31.880 -10.953 -21.767  0.00  0.00    +0.000 C 
ATOM     20  C   UNL     1      31.423 -10.833 -20.454  0.00  0.00    +0.000 C 
ENDBRANCH  12  15
ENDBRANCH   6   9
ENDBRANCH   3   6
BRANCH   5  21
ATOM     21  N   UNL     1      34.487 -21.284 -19.467  0.00  0.00    -0.147 NA
BRANCH  21  29
ATOM     22  O   UNL     1      33.498 -23.518 -15.313  0.00  0.00    -0.350 OA
ATOM     23  N   UNL     1      34.801 -22.656 -17.638  0.00  0.00    -0.277 N 
ATOM     24  N   UNL     1      36.669 -22.042 -18.754  0.00  0.00    -0.373 N 
ATOM     25  C   UNL     1      35.561 -22.868 -16.409  0.00  0.00    +0.125 C 
ATOM     26  C   UNL     1      33.560 -23.420 -17.736  0.00  0.00    +0.125 C 
ATOM     27  C   UNL     1      34.644 -22.671 -15.209  0.00  0.00    +0.164 C 
ATOM     28  C   UNL     1      32.731 -23.198 -16.477  0.00  0.00    +0.164 C 
ATOM     29  C   UNL     1      35.295 -21.948 -18.679  0.00  0.00    +0.182 C 
ATOM     30  H   UNL     1      37.163 -22.579 -18.092  0.00  0.00    +0.158 HD
ATOM     31  H   UNL     1      37.157 -21.572 -19.469  0.00  0.00    +0.158 HD
ENDBRANCH  21  29
ENDBRANCH   5  21
TORSDOF 5
ENDMDL
MODEL 4
REMARK VINA RESULT:     -12.0     10.584     14.294
REMARK  Name = 9800765
REMARK  5 active torsions:
REMARK  status: ('A' for Active; 'I' for Inactive)
REMARK    1  A    between atoms: C_3  and  C_17
REMARK    2  A    between atoms: C_5  and  N_8
REMARK    3  A    between atoms: N_8  and  C_14
REMARK    4  A    between atoms: C_17  and  C_20
REMARK    5  A    between atoms: C_23  and  C_26
REMARK                            x       y       z     vdW  Elec       q    Type
REMARK                         _______ _______ _______ _____ _____    ______ ____
ROOT
ATOM      1  O   UNL     1      32.211 -12.513 -20.234  0.00  0.00    -0.337 OA
ATOM      2  N   UNL     1      31.955 -11.289 -19.628  0.00  0.00    -0.079 NA
ATOM      3  C   UNL     1      31.783 -10.432 -20.638  0.00  0.00    +0.106 C 
ATOM      4  C   UNL     1      31.918 -11.053 -21.892  0.00  0.00    +0.076 C 
ATOM      5  C   UNL     1      32.184 -12.352 -21.576  0.00  0.00    +0.252 C 
ENDROOT
BRANCH   3   6
ATOM      6  C   UNL     1      31.488  -9.018 -20.359  0.00  0.00    +0.066 C 
ATOM      7  C   UNL     1      31.907  -8.560 -18.940  0.00  0.00    +0.011 C 
BRANCH   6   9
ATOM      8  F   UNL     1      35.299  -6.945 -22.552  0.00  0.00    -0.204 F 
ATOM      9  C   UNL     1      32.085  -8.191 -21.503  0.00  0.00    -0.015 C 
ATOM     10  C   UNL     1      33.437  -7.945 -21.499  0.00  0.00    +0.026 C 
ATOM     11  C   UNL     1      31.244  -7.726 -22.487  0.00  0.00    -0.004 C 
ATOM     12  C   UNL     1      33.156  -6.707 -23.554  0.00  0.00    +0.027 C 
ATOM     13  C   UNL     1      33.981  -7.193 -22.540  0.00  0.00    +0.140 C 
ATOM     14  C   UNL     1      31.787  -6.973 -23.527  0.00  0.00    +0.002 C 
BRANCH  12  15
ATOM     15  C   UNL     1      33.715  -5.927 -24.637  0.00  0.00    +0.002 C 
ATOM     16  C   UNL     1      32.951  -4.927 -25.242  0.00  0.00    +0.000 C 
ATOM     17  C   UNL     1      35.016  -6.172 -25.075  0.00  0.00    +0.000 C 
ATOM     18  C   UNL     1      33.490  -4.174 -26.284  0.00  0.00    +0.000 C 
ATOM     19  C   UNL     1      35.554  -5.419 -26.118  0.00  0.00    +0.000 C 
ATOM     20  C   UNL     1      34.791  -4.420 -26.724  0.00  0.00    +0.000 C 
ENDBRANCH  12  15
ENDBRANCH   6   9
ENDBRANCH   3   6
BRANCH   5  21
ATOM     21  N   UNL     1      32.408 -13.412 -22.402  0.00  0.00    -0.147 NA
BRANCH  21  29
ATOM     22  O   UNL     1      34.536 -16.027 -25.844  0.00  0.00    -0.350 OA
ATOM     23  N   UNL     1      34.100 -14.482 -23.549  0.00  0.00    -0.277 N 
ATOM     24  N   UNL     1      34.529 -13.975 -21.388  0.00  0.00    -0.373 N 
ATOM     25  C   UNL     1      35.068 -15.576 -23.522  0.00  0.00    +0.125 C 
ATOM     26  C   UNL     1      33.846 -13.915 -24.870  0.00  0.00    +0.125 C 
ATOM     27  C   UNL     1      34.672 -16.625 -24.554  0.00  0.00    +0.164 C 
ATOM     28  C   UNL     1      33.504 -15.037 -25.843  0.00  0.00    +0.164 C 
ATOM     29  C   UNL     1      33.614 -13.921 -22.419  0.00  0.00    +0.182 C 
ATOM     30  H   UNL     1      35.411 -14.390 -21.532  0.00  0.00    +0.158 HD
ATOM     31  H   UNL     1      34.301 -13.600 -20.506  0.00  0.00    +0.158 HD
ENDBRANCH  21  29
ENDBRANCH   5  21
TORSDOF 5
ENDMDL
MODEL 5
REMARK VINA RESULT:     -11.4      8.121     13.293
REMARK  Name = 9800765
REMARK  5 active torsions:
REMARK  status: ('A' for Active; 'I' for Inactive)
REMARK    1  A    between atoms: C_3  and  C_17
REMARK    2  A    between atoms: C_5  and  N_8
REMARK    3  A    between atoms: N_8  and  C_14
REMARK    4  A    between atoms: C_17  and  C_20
REMARK    5  A    between atoms: C_23  and  C_26
REMARK                            x       y       z     vdW  Elec       q    Type
REMARK                         _______ _______ _______ _____ _____    ______ ____
ROOT
ATOM      1  O   UNL     1      31.539 -12.381 -20.616  0.00  0.00    -0.337 OA
ATOM      2  N   UNL     1      32.123 -13.338 -21.437  0.00  0.00    -0.079 NA
ATOM      3  C   UNL     1      32.645 -12.648 -22.455  0.00  0.00    +0.106 C 
ATOM      4  C   UNL     1      32.423 -11.266 -22.332  0.00  0.00    +0.076 C 
ATOM      5  C   UNL     1      31.728 -11.159 -21.164  0.00  0.00    +0.252 C 
ENDROOT
BRANCH   3   6
ATOM      6  C   UNL     1      33.355 -13.355 -23.533  0.00  0.00    +0.066 C 
ATOM      7  C   UNL     1      34.393 -12.479 -24.276  0.00  0.00    +0.011 C 
BRANCH   6   9
ATOM      8  F   UNL     1      35.036 -17.883 -24.073  0.00  0.00    -0.204 F 
ATOM      9  C   UNL     1      33.915 -14.651 -22.940  0.00  0.00    -0.015 C 
ATOM     10  C   UNL     1      34.221 -15.685 -23.793  0.00  0.00    +0.026 C 
ATOM     11  C   UNL     1      34.089 -14.730 -21.578  0.00  0.00    -0.004 C 
ATOM     12  C   UNL     1      34.920 -16.978 -21.877  0.00  0.00    +0.027 C 
ATOM     13  C   UNL     1      34.732 -16.865 -23.254  0.00  0.00    +0.140 C 
ATOM     14  C   UNL     1      34.598 -15.911 -21.039  0.00  0.00    +0.002 C 
BRANCH  12  15
ATOM     15  C   UNL     1      35.451 -18.200 -21.312  0.00  0.00    +0.002 C 
ATOM     16  C   UNL     1      36.826 -18.338 -21.118  0.00  0.00    +0.000 C 
ATOM     17  C   UNL     1      34.589 -19.239 -20.961  0.00  0.00    +0.000 C 
ATOM     18  C   UNL     1      37.338 -19.515 -20.573  0.00  0.00    +0.000 C 
ATOM     19  C   UNL     1      35.102 -20.416 -20.416  0.00  0.00    +0.000 C 
ATOM     20  C   UNL     1      36.476 -20.556 -20.223  0.00  0.00    +0.000 C 
ENDBRANCH  12  15
ENDBRANCH   6   9
ENDBRANCH   3   6
BRANCH   5  21
ATOM     21  N   UNL     1      31.245 -10.045 -20.546  0.00  0.00    -0.147 NA
BRANCH  21  29
ATOM     22  O   UNL     1      32.810  -6.775 -23.720  0.00  0.00    -0.350 OA
ATOM     23  N   UNL     1      32.265  -8.130 -21.330  0.00  0.00    -0.277 N 
ATOM     24  N   UNL     1      32.841  -8.781 -19.242  0.00  0.00    -0.373 N 
ATOM     25  C   UNL     1      33.533  -7.424 -21.498  0.00  0.00    +0.125 C 
ATOM     26  C   UNL     1      31.167  -7.632 -22.155  0.00  0.00    +0.125 C 
ATOM     27  C   UNL     1      33.882  -7.362 -22.980  0.00  0.00    +0.164 C 
ATOM     28  C   UNL     1      31.621  -7.561 -23.607  0.00  0.00    +0.164 C 
ATOM     29  C   UNL     1      32.075  -9.050 -20.358  0.00  0.00    +0.182 C 
ATOM     30  H   UNL     1      33.432  -7.993 -19.229  0.00  0.00    +0.158 HD
ATOM     31  H   UNL     1      32.797  -9.376 -18.459  0.00  0.00    +0.158 HD
ENDBRANCH  21  29
ENDBRANCH   5  21
TORSDOF 5
ENDMDL
MODEL 6
REMARK VINA RESULT:     -11.4      9.747     13.654
REMARK  Name = 9800765
REMARK  5 active torsions:
REMARK  status: ('A' for Active; 'I' for Inactive)
REMARK    1  A    between atoms: C_3  and  C_17
REMARK    2  A    between atoms: C_5  and  N_8
REMARK    3  A    between atoms: N_8  and  C_14
REMARK    4  A    between atoms: C_17  and  C_20
REMARK    5  A    between atoms: C_23  and  C_26
REMARK                            x       y       z     vdW  Elec       q    Type
REMARK                         _______ _______ _______ _____ _____    ______ ____
ROOT
ATOM      1  O   UNL     1      33.521 -12.267 -23.273  0.00  0.00    -0.337 OA
ATOM      2  N   UNL     1      33.105 -10.979 -22.958  0.00  0.00    -0.079 NA
ATOM      3  C   UNL     1      32.282 -11.127 -21.915  0.00  0.00    +0.106 C 
ATOM      4  C   UNL     1      32.142 -12.472 -21.534  0.00  0.00    +0.076 C 
ATOM      5  C   UNL     1      32.939 -13.137 -22.418  0.00  0.00    +0.252 C 
ENDROOT
BRANCH   3   6
ATOM      6  C   UNL     1      31.647  -9.947 -21.309  0.00  0.00    +0.066 C 
ATOM      7  C   UNL     1      31.980  -9.760 -19.808  0.00  0.00    +0.011 C 
BRANCH   6   9
ATOM      8  F   UNL     1      34.762  -6.553 -22.861  0.00  0.00    -0.204 F 
ATOM      9  C   UNL     1      31.977  -8.741 -22.194  0.00  0.00    -0.015 C 
ATOM     10  C   UNL     1      33.236  -8.195 -22.117  0.00  0.00    +0.026 C 
ATOM     11  C   UNL     1      31.001  -8.253 -23.031  0.00  0.00    -0.004 C 
ATOM     12  C   UNL     1      32.570  -6.578 -23.784  0.00  0.00    +0.027 C 
ATOM     13  C   UNL     1      33.537  -7.098 -22.924  0.00  0.00    +0.140 C 
ATOM     14  C   UNL     1      31.302  -7.156 -23.837  0.00  0.00    +0.002 C 
BRANCH  12  15
ATOM     15  C   UNL     1      32.878  -5.441 -24.624  0.00  0.00    +0.002 C 
ATOM     16  C   UNL     1      32.258  -4.213 -24.388  0.00  0.00    +0.000 C 
ATOM     17  C   UNL     1      33.795  -5.571 -25.666  0.00  0.00    +0.000 C 
ATOM     18  C   UNL     1      32.555  -3.116 -25.196  0.00  0.00    +0.000 C 
ATOM     19  C   UNL     1      34.092  -4.473 -26.475  0.00  0.00    +0.000 C 
ATOM     20  C   UNL     1      33.471  -3.246 -26.241  0.00  0.00    +0.000 C 
ENDBRANCH  12  15
ENDBRANCH   6   9
ENDBRANCH   3   6
BRANCH   5  21
ATOM     21  N   UNL     1      33.188 -14.473 -22.519  0.00  0.00    -0.147 NA
BRANCH  21  29
ATOM     22  O   UNL     1      35.527 -18.668 -22.912  0.00  0.00    -0.350 OA
ATOM     23  N   UNL     1      34.775 -16.095 -22.100  0.00  0.00    -0.277 N 
ATOM     24  N   UNL     1      34.526 -14.511 -20.505  0.00  0.00    -0.373 N 
ATOM     25  C   UNL     1      35.292 -17.049 -21.122  0.00  0.00    +0.125 C 
ATOM     26  C   UNL     1      35.200 -16.332 -23.477  0.00  0.00    +0.125 C 
ATOM     27  C   UNL     1      35.001 -18.467 -21.598  0.00  0.00    +0.164 C 
ATOM     28  C   UNL     1      34.912 -17.781 -23.850  0.00  0.00    +0.164 C 
ATOM     29  C   UNL     1      34.107 -14.978 -21.734  0.00  0.00    +0.182 C 
ATOM     30  H   UNL     1      35.232 -14.988 -20.011  0.00  0.00    +0.158 HD
ATOM     31  H   UNL     1      34.118 -13.701 -20.120  0.00  0.00    +0.158 HD
ENDBRANCH  21  29
ENDBRANCH   5  21
TORSDOF 5
ENDMDL
MODEL 7
REMARK VINA RESULT:     -11.2      1.811      2.625
REMARK  Name = 9800765
REMARK  5 active torsions:
REMARK  status: ('A' for Active; 'I' for Inactive)
REMARK    1  A    between atoms: C_3  and  C_17
REMARK    2  A    between atoms: C_5  and  N_8
REMARK    3  A    between atoms: N_8  and  C_14
REMARK    4  A    between atoms: C_17  and  C_20
REMARK    5  A    between atoms: C_23  and  C_26
REMARK                            x       y       z     vdW  Elec       q    Type
REMARK                         _______ _______ _______ _____ _____    ______ ____
ROOT
ATOM      1  O   UNL     1      36.434 -23.463 -15.470  0.00  0.00    -0.337 OA
ATOM      2  N   UNL     1      35.457 -22.817 -16.218  0.00  0.00    -0.079 NA
ATOM      3  C   UNL     1      34.502 -23.733 -16.403  0.00  0.00    +0.106 C 
ATOM      4  C   UNL     1      34.819 -24.963 -15.801  0.00  0.00    +0.076 C 
ATOM      5  C   UNL     1      36.037 -24.733 -15.233  0.00  0.00    +0.252 C 
ENDROOT
BRANCH   3   6
ATOM      6  C   UNL     1      33.293 -23.388 -17.168  0.00  0.00    +0.066 C 
ATOM      7  C   UNL     1      32.102 -22.942 -16.284  0.00  0.00    +0.011 C 
BRANCH   6   9
ATOM      8  F   UNL     1      32.198 -19.793 -20.250  0.00  0.00    -0.204 F 
ATOM      9  C   UNL     1      33.704 -22.382 -18.247  0.00  0.00    -0.015 C 
ATOM     10  C   UNL     1      32.747 -21.539 -18.758  0.00  0.00    +0.026 C 
ATOM     11  C   UNL     1      35.015 -22.363 -18.663  0.00  0.00    -0.004 C 
ATOM     12  C   UNL     1      34.442 -20.578 -20.185  0.00  0.00    +0.027 C 
ATOM     13  C   UNL     1      33.121 -20.623 -19.741  0.00  0.00    +0.140 C 
ATOM     14  C   UNL     1      35.389 -21.448 -19.646  0.00  0.00    +0.002 C 
BRANCH  12  15
ATOM     15  C   UNL     1      34.836 -19.628 -21.204  0.00  0.00    +0.002 C 
ATOM     16  C   UNL     1      34.481 -19.849 -22.535  0.00  0.00    +0.000 C 
ATOM     17  C   UNL     1      35.568 -18.494 -20.855  0.00  0.00    +0.000 C 
ATOM     18  C   UNL     1      34.859 -18.934 -23.517  0.00  0.00    +0.000 C 
ATOM     19  C   UNL     1      35.945 -17.579 -21.838  0.00  0.00    +0.000 C 
ATOM     20  C   UNL     1      35.592 -17.799 -23.170  0.00  0.00    +0.000 C 
ENDBRANCH  12  15
ENDBRANCH   6   9
ENDBRANCH   3   6
BRANCH   5  21
ATOM     21  N   UNL     1      36.827 -25.579 -14.514  0.00  0.00    -0.147 NA
BRANCH  21  29
ATOM     22  O   UNL     1      36.584 -23.864 -10.017  0.00  0.00    -0.350 OA
ATOM     23  N   UNL     1      37.561 -24.778 -12.478  0.00  0.00    -0.277 N 
ATOM     24  N   UNL     1      39.051 -24.694 -14.177  0.00  0.00    -0.373 N 
ATOM     25  C   UNL     1      38.231 -23.679 -11.788  0.00  0.00    +0.125 C 
ATOM     26  C   UNL     1      36.800 -25.677 -11.614  0.00  0.00    +0.125 C 
ATOM     27  C   UNL     1      37.224 -22.948 -10.908  0.00  0.00    +0.164 C 
ATOM     28  C   UNL     1      35.856 -24.858 -10.742  0.00  0.00    +0.164 C 
ATOM     29  C   UNL     1      37.776 -25.047 -13.785  0.00  0.00    +0.182 C 
ATOM     30  H   UNL     1      39.674 -24.297 -13.525  0.00  0.00    +0.158 HD
ATOM     31  H   UNL     1      39.339 -24.836 -15.107  0.00  0.00    +0.158 HD
ENDBRANCH  21  29
ENDBRANCH   5  21
TORSDOF 5
ENDMDL
MODEL 8
REMARK VINA RESULT:     -11.1      9.714     13.514
REMARK  Name = 9800765
REMARK  5 active torsions:
REMARK  status: ('A' for Active; 'I' for Inactive)
REMARK    1  A    between atoms: C_3  and  C_17
REMARK    2  A    between atoms: C_5  and  N_8
REMARK    3  A    between atoms: N_8  and  C_14
REMARK    4  A    between atoms: C_17  and  C_20
REMARK    5  A    between atoms: C_23  and  C_26
REMARK                            x       y       z     vdW  Elec       q    Type
REMARK                         _______ _______ _______ _____ _____    ______ ____
ROOT
ATOM      1  O   UNL     1      33.308 -12.335 -22.860  0.00  0.00    -0.337 OA
ATOM      2  N   UNL     1      32.905 -11.073 -22.442  0.00  0.00    -0.079 NA
ATOM      3  C   UNL     1      32.203 -11.287 -21.325  0.00  0.00    +0.106 C 
ATOM      4  C   UNL     1      32.131 -12.650 -20.994  0.00  0.00    +0.076 C 
ATOM      5  C   UNL     1      32.840 -13.256 -21.988  0.00  0.00    +0.252 C 
ENDROOT
BRANCH   3   6
ATOM      6  C   UNL     1      31.614 -10.150 -20.600  0.00  0.00    +0.066 C 
ATOM      7  C   UNL     1      32.109 -10.018 -19.138  0.00  0.00    +0.011 C 
BRANCH   6   9
ATOM      8  F   UNL     1      30.339  -7.330 -24.347  0.00  0.00    -0.204 F 
ATOM      9  C   UNL     1      31.819  -8.900 -21.462  0.00  0.00    -0.015 C 
ATOM     10  C   UNL     1      30.972  -8.689 -22.523  0.00  0.00    +0.026 C 
ATOM     11  C   UNL     1      32.843  -8.040 -21.140  0.00  0.00    -0.004 C 
ATOM     12  C   UNL     1      32.186  -6.658 -23.009  0.00  0.00    +0.027 C 
ATOM     13  C   UNL     1      31.157  -7.551 -23.308  0.00  0.00    +0.140 C 
ATOM     14  C   UNL     1      33.029  -6.902 -21.925  0.00  0.00    +0.002 C 
BRANCH  12  15
ATOM     15  C   UNL     1      32.382  -5.475 -23.819  0.00  0.00    +0.002 C 
ATOM     16  C   UNL     1      33.186  -5.537 -24.958  0.00  0.00    +0.000 C 
ATOM     17  C   UNL     1      31.767  -4.275 -23.464  0.00  0.00    +0.000 C 
ATOM     18  C   UNL     1      33.375  -4.398 -25.740  0.00  0.00    +0.000 C 
ATOM     19  C   UNL     1      31.956  -3.136 -24.247  0.00  0.00    +0.000 C 
ATOM     20  C   UNL     1      32.761  -3.197 -25.385  0.00  0.00    +0.000 C 
ENDBRANCH  12  15
ENDBRANCH   6   9
ENDBRANCH   3   6
BRANCH   5  21
ATOM     21  N   UNL     1      33.101 -14.580 -22.178  0.00  0.00    -0.147 NA
BRANCH  21  29
ATOM     22  O   UNL     1      35.608 -18.608 -23.023  0.00  0.00    -0.350 OA
ATOM     23  N   UNL     1      34.768 -16.160 -21.952  0.00  0.00    -0.277 N 
ATOM     24  N   UNL     1      34.493 -14.747 -20.208  0.00  0.00    -0.373 N 
ATOM     25  C   UNL     1      35.351 -17.178 -21.081  0.00  0.00    +0.125 C 
ATOM     26  C   UNL     1      35.164 -16.246 -23.355  0.00  0.00    +0.125 C 
ATOM     27  C   UNL     1      35.109 -18.556 -21.685  0.00  0.00    +0.164 C 
ATOM     28  C   UNL     1      34.930 -17.665 -23.858  0.00  0.00    +0.164 C 
ATOM     29  C   UNL     1      34.062 -15.114 -21.466  0.00  0.00    +0.182 C 
ATOM     30  H   UNL     1      35.232 -15.236 -19.778  0.00  0.00    +0.158 HD
ATOM     31  H   UNL     1      34.061 -13.997 -19.738  0.00  0.00    +0.158 HD
ENDBRANCH  21  29
ENDBRANCH   5  21
TORSDOF 5
ENDMDL
MODEL 9
REMARK VINA RESULT:     -11.1      8.344     13.540
REMARK  Name = 9800765
REMARK  5 active torsions:
REMARK  status: ('A' for Active; 'I' for Inactive)
REMARK    1  A    between atoms: C_3  and  C_17
REMARK    2  A    between atoms: C_5  and  N_8
REMARK    3  A    between atoms: N_8  and  C_14
REMARK    4  A    between atoms: C_17  and  C_20
REMARK    5  A    between atoms: C_23  and  C_26
REMARK                            x       y       z     vdW  Elec       q    Type
REMARK                         _______ _______ _______ _____ _____    ______ ____
ROOT
ATOM      1  O   UNL     1      31.333 -12.064 -20.886  0.00  0.00    -0.337 OA
ATOM      2  N   UNL     1      31.892 -13.000 -21.747  0.00  0.00    -0.079 NA
ATOM      3  C   UNL     1      32.631 -12.286 -22.601  0.00  0.00    +0.106 C 
ATOM      4  C   UNL     1      32.577 -10.908 -22.330  0.00  0.00    +0.076 C 
ATOM      5  C   UNL     1      31.752 -10.830 -21.247  0.00  0.00    +0.252 C 
ENDROOT
BRANCH   3   6
ATOM      6  C   UNL     1      33.380 -12.966 -23.670  0.00  0.00    +0.066 C 
ATOM      7  C   UNL     1      34.448 -12.073 -24.349  0.00  0.00    +0.011 C 
BRANCH   6   9
ATOM      8  F   UNL     1      34.695 -15.702 -19.874  0.00  0.00    -0.204 F 
ATOM      9  C   UNL     1      33.914 -14.280 -23.091  0.00  0.00    -0.015 C 
ATOM     10  C   UNL     1      34.060 -14.386 -21.729  0.00  0.00    +0.026 C 
ATOM     11  C   UNL     1      34.227 -15.301 -23.958  0.00  0.00    -0.004 C 
ATOM     12  C   UNL     1      34.873 -16.637 -22.054  0.00  0.00    +0.027 C 
ATOM     13  C   UNL     1      34.547 -15.582 -21.202  0.00  0.00    +0.140 C 
ATOM     14  C   UNL     1      34.713 -16.496 -23.432  0.00  0.00    +0.002 C 
BRANCH  12  15
ATOM     15  C   UNL     1      35.377 -17.881 -21.512  0.00  0.00    +0.002 C 
ATOM     16  C   UNL     1      36.752 -18.073 -21.371  0.00  0.00    +0.000 C 
ATOM     17  C   UNL     1      34.489 -18.886 -21.129  0.00  0.00    +0.000 C 
ATOM     18  C   UNL     1      37.238 -19.271 -20.848  0.00  0.00    +0.000 C 
ATOM     19  C   UNL     1      34.976 -20.084 -20.606  0.00  0.00    +0.000 C 
ATOM     20  C   UNL     1      36.350 -20.278 -20.466  0.00  0.00    +0.000 C 
ENDBRANCH  12  15
ENDBRANCH   6   9
ENDBRANCH   3   6
BRANCH   5  21
ATOM     21  N   UNL     1      31.340  -9.732 -20.553  0.00  0.00    -0.147 NA
BRANCH  21  29
ATOM     22  O   UNL     1      32.762  -6.617 -23.944  0.00  0.00    -0.350 OA
ATOM     23  N   UNL     1      32.326  -7.859 -21.471  0.00  0.00    -0.277 N 
ATOM     24  N   UNL     1      32.998  -8.415 -19.384  0.00  0.00    -0.373 N 
ATOM     25  C   UNL     1      33.586  -7.166 -21.730  0.00  0.00    +0.125 C 
ATOM     26  C   UNL     1      31.192  -7.395 -22.266  0.00  0.00    +0.125 C 
ATOM     27  C   UNL     1      33.867  -7.174 -23.228  0.00  0.00    +0.164 C 
ATOM     28  C   UNL     1      31.578  -7.393 -23.740  0.00  0.00    +0.164 C 
ATOM     29  C   UNL     1      32.181  -8.733 -20.450  0.00  0.00    +0.182 C 
ATOM     30  H   UNL     1      33.590  -7.630 -19.435  0.00  0.00    +0.158 HD
ATOM     31  H   UNL     1      32.990  -8.974 -18.574  0.00  0.00    +0.158 HD
ENDBRANCH  21  29
ENDBRANCH   5  21
TORSDOF 5
ENDMDL
