MODEL 1
REMARK VINA RESULT:     -11.5      0.000      0.000
REMARK  Name = 57336276
REMARK  5 active torsions:
REMARK  status: ('A' for Active; 'I' for Inactive)
REMARK    1  A    between atoms: C_2  and  C_16
REMARK    2  A    between atoms: C_6  and  O_17
REMARK    3  A    between atoms: O_17  and  C_18
REMARK    4  A    between atoms: C_18  and  C_21
REMARK    5  A    between atoms: C_22  and  C_26
REMARK                            x       y       z     vdW  Elec       q    Type
REMARK                         _______ _______ _______ _____ _____    ______ ____
ROOT
ATOM      1  N   UNL     1      33.959 -12.016 -24.458  0.00  0.00    -0.210 NA
ATOM      2  C   UNL     1      33.878 -14.401 -24.073  0.00  0.00    +0.073 C 
ATOM      3  C   UNL     1      33.278 -14.188 -22.837  0.00  0.00    +0.011 C 
ATOM      4  C   UNL     1      34.196 -13.291 -24.839  0.00  0.00    +0.107 C 
ATOM      5  C   UNL     1      33.017 -12.890 -22.411  0.00  0.00    +0.058 C 
ATOM      6  C   UNL     1      33.374 -11.848 -23.251  0.00  0.00    +0.225 C 
ENDROOT
BRANCH   2  16
ATOM      7  S   UNL     1      35.098 -18.714 -21.544  0.00  0.00    -0.007 S 
ATOM      8  O   UNL     1      34.146 -19.362 -20.663  0.00  0.00    -0.173 OA
ATOM      9  O   UNL     1      36.507 -19.054 -21.493  0.00  0.00    -0.173 OA
ATOM     10  O   UNL     1      33.657 -16.073 -25.626  0.00  0.00    -0.270 OA
ATOM     11  N   UNL     1      34.976 -16.576 -23.760  0.00  0.00    -0.272 N 
ATOM     12  C   UNL     1      34.531 -18.936 -23.222  0.00  0.00    +0.172 C 
ATOM     13  C   UNL     1      34.939 -16.950 -21.323  0.00  0.00    +0.172 C 
ATOM     14  C   UNL     1      35.215 -17.963 -24.170  0.00  0.00    +0.119 C 
ATOM     15  C   UNL     1      35.580 -16.190 -22.475  0.00  0.00    +0.119 C 
ATOM     16  C   UNL     1      34.166 -15.758 -24.551  0.00  0.00    +0.251 C 
ENDBRANCH   2  16
BRANCH   6  17
ATOM     17  O   UNL     1      33.127 -10.560 -22.853  0.00  0.00    -0.455 OA
BRANCH  17  18
ATOM     18  C   UNL     1      31.904 -10.325 -22.167  0.00  0.00    +0.238 C 
BRANCH  18  21
ATOM     19  O   UNL     1      32.261  -8.521 -18.969  0.00  0.00    -0.358 OA
ATOM     20  N   UNL     1      32.800  -7.566 -19.822  0.00  0.00    -0.078 NA
ATOM     21  C   UNL     1      32.158  -9.393 -21.018  0.00  0.00    +0.075 A 
ATOM     22  C   UNL     1      32.727  -8.109 -21.040  0.00  0.00    +0.122 A 
ATOM     23  C   UNL     1      31.882  -9.605 -19.693  0.00  0.00    +0.154 A 
ATOM     24  C   UNL     1      31.287 -10.718 -18.940  0.00  0.00    +0.075 C 
BRANCH  22  26
ATOM     25  F   UNL     1      34.576  -5.303 -25.480  0.00  0.00    -0.204 F 
ATOM     26  C   UNL     1      33.205  -7.384 -22.187  0.00  0.00    +0.021 C 
ATOM     27  C   UNL     1      34.547  -7.467 -22.556  0.00  0.00    +0.004 C 
ATOM     28  C   UNL     1      32.325  -6.597 -22.932  0.00  0.00    +0.004 C 
ATOM     29  C   UNL     1      35.010  -6.765 -23.669  0.00  0.00    +0.030 C 
ATOM     30  C   UNL     1      32.789  -5.894 -24.045  0.00  0.00    +0.030 C 
ATOM     31  C   UNL     1      34.131  -5.978 -24.412  0.00  0.00    +0.140 C 
ENDBRANCH  22  26
ENDBRANCH  18  21
ENDBRANCH  17  18
ENDBRANCH   6  17
TORSDOF 5
ENDMDL
MODEL 2
REMARK VINA RESULT:     -10.5      4.315     10.068
REMARK  Name = 57336276
REMARK  5 active torsions:
REMARK  status: ('A' for Active; 'I' for Inactive)
REMARK    1  A    between atoms: C_2  and  C_16
REMARK    2  A    between atoms: C_6  and  O_17
REMARK    3  A    between atoms: O_17  and  C_18
REMARK    4  A    between atoms: C_18  and  C_21
REMARK    5  A    between atoms: C_22  and  C_26
REMARK                            x       y       z     vdW  Elec       q    Type
REMARK                         _______ _______ _______ _____ _____    ______ ____
ROOT
ATOM      1  N   UNL     1      32.788 -11.450 -22.821  0.00  0.00    -0.210 NA
ATOM      2  C   UNL     1      32.187 -10.155 -20.870  0.00  0.00    +0.073 C 
ATOM      3  C   UNL     1      31.783 -11.314 -20.217  0.00  0.00    +0.011 C 
ATOM      4  C   UNL     1      32.679 -10.275 -22.160  0.00  0.00    +0.107 C 
ATOM      5  C   UNL     1      31.881 -12.541 -20.864  0.00  0.00    +0.058 C 
ATOM      6  C   UNL     1      32.385 -12.554 -22.154  0.00  0.00    +0.225 C 
ENDROOT
BRANCH   2  16
ATOM      7  S   UNL     1      31.409  -5.439 -22.778  0.00  0.00    -0.007 S 
ATOM      8  O   UNL     1      30.147  -5.078 -23.394  0.00  0.00    -0.173 OA
ATOM      9  O   UNL     1      32.590  -4.619 -22.968  0.00  0.00    -0.173 OA
ATOM     10  O   UNL     1      31.726  -8.852 -19.041  0.00  0.00    -0.270 OA
ATOM     11  N   UNL     1      32.424  -7.711 -20.961  0.00  0.00    -0.272 N 
ATOM     12  C   UNL     1      31.131  -5.619 -21.024  0.00  0.00    +0.172 C 
ATOM     13  C   UNL     1      31.803  -7.109 -23.270  0.00  0.00    +0.172 C 
ATOM     14  C   UNL     1      32.266  -6.384 -20.360  0.00  0.00    +0.119 C 
ATOM     15  C   UNL     1      32.865  -7.714 -22.364  0.00  0.00    +0.119 C 
ATOM     16  C   UNL     1      32.096  -8.845 -20.214  0.00  0.00    +0.251 C 
ENDBRANCH   2  16
BRANCH   6  17
ATOM     17  O   UNL     1      32.492 -13.751 -22.813  0.00  0.00    -0.455 OA
BRANCH  17  18
ATOM     18  C   UNL     1      33.749 -14.412 -22.741  0.00  0.00    +0.238 C 
BRANCH  18  21
ATOM     19  O   UNL     1      34.193 -15.527 -26.229  0.00  0.00    -0.358 OA
ATOM     20  N   UNL     1      34.633 -16.671 -25.575  0.00  0.00    -0.078 NA
ATOM     21  C   UNL     1      34.019 -15.097 -24.048  0.00  0.00    +0.075 A 
ATOM     22  C   UNL     1      34.519 -16.391 -24.273  0.00  0.00    +0.122 A 
ATOM     23  C   UNL     1      33.830 -14.597 -25.309  0.00  0.00    +0.154 A 
ATOM     24  C   UNL     1      33.337 -13.316 -25.835  0.00  0.00    +0.075 C 
BRANCH  22  26
ATOM     25  F   UNL     1      35.967 -20.171 -20.450  0.00  0.00    -0.204 F 
ATOM     26  C   UNL     1      34.893 -17.368 -23.285  0.00  0.00    +0.021 C 
ATOM     27  C   UNL     1      35.319 -16.956 -22.023  0.00  0.00    +0.004 C 
ATOM     28  C   UNL     1      34.831 -18.728 -23.590  0.00  0.00    +0.004 C 
ATOM     29  C   UNL     1      35.681 -17.903 -21.065  0.00  0.00    +0.030 C 
ATOM     30  C   UNL     1      35.193 -19.675 -22.632  0.00  0.00    +0.030 C 
ATOM     31  C   UNL     1      35.619 -19.262 -21.370  0.00  0.00    +0.140 C 
ENDBRANCH  22  26
ENDBRANCH  18  21
ENDBRANCH  17  18
ENDBRANCH   6  17
TORSDOF 5
ENDMDL
MODEL 3
REMARK VINA RESULT:     -10.4      8.404     12.680
REMARK  Name = 57336276
REMARK  5 active torsions:
REMARK  status: ('A' for Active; 'I' for Inactive)
REMARK    1  A    between atoms: C_2  and  C_16
REMARK    2  A    between atoms: C_6  and  O_17
REMARK    3  A    between atoms: O_17  and  C_18
REMARK    4  A    between atoms: C_18  and  C_21
REMARK    5  A    between atoms: C_22  and  C_26
REMARK                            x       y       z     vdW  Elec       q    Type
REMARK                         _______ _______ _______ _____ _____    ______ ____
ROOT
ATOM      1  N   UNL     1      36.000 -22.581 -16.611  0.00  0.00    -0.210 NA
ATOM      2  C   UNL     1      37.818 -23.550 -15.345  0.00  0.00    +0.073 C 
ATOM      3  C   UNL     1      38.719 -22.700 -15.977  0.00  0.00    +0.011 C 
ATOM      4  C   UNL     1      36.480 -23.452 -15.695  0.00  0.00    +0.107 C 
ATOM      5  C   UNL     1      38.262 -21.791 -16.925  0.00  0.00    +0.058 C 
ATOM      6  C   UNL     1      36.905 -21.772 -17.203  0.00  0.00    +0.225 C 
ENDROOT
BRANCH   2  16
ATOM      7  S   UNL     1      35.998 -24.702 -10.671  0.00  0.00    -0.007 S 
ATOM      8  O   UNL     1      34.698 -25.321 -10.504  0.00  0.00    -0.173 OA
ATOM      9  O   UNL     1      36.680 -24.090  -9.546  0.00  0.00    -0.173 OA
ATOM     10  O   UNL     1      38.877 -25.499 -14.769  0.00  0.00    -0.270 OA
ATOM     11  N   UNL     1      37.968 -24.266 -13.000  0.00  0.00    -0.272 N 
ATOM     12  C   UNL     1      37.093 -25.912 -11.395  0.00  0.00    +0.172 C 
ATOM     13  C   UNL     1      35.866 -23.488 -11.973  0.00  0.00    +0.172 C 
ATOM     14  C   UNL     1      38.333 -25.255 -11.982  0.00  0.00    +0.119 C 
ATOM     15  C   UNL     1      37.238 -23.092 -12.499  0.00  0.00    +0.119 C 
ATOM     16  C   UNL     1      38.268 -24.520 -14.341  0.00  0.00    +0.251 C 
ENDBRANCH   2  16
BRANCH   6  17
ATOM     17  O   UNL     1      36.431 -20.885 -18.134  0.00  0.00    -0.455 OA
BRANCH  17  18
ATOM     18  C   UNL     1      36.103 -21.412 -19.413  0.00  0.00    +0.238 C 
BRANCH  18  21
ATOM     19  O   UNL     1      32.425 -21.679 -19.486  0.00  0.00    -0.358 OA
ATOM     20  N   UNL     1      32.587 -20.627 -20.379  0.00  0.00    -0.078 NA
ATOM     21  C   UNL     1      34.620 -21.314 -19.620  0.00  0.00    +0.075 A 
ATOM     22  C   UNL     1      33.906 -20.427 -20.443  0.00  0.00    +0.122 A 
ATOM     23  C   UNL     1      33.643 -22.080 -19.041  0.00  0.00    +0.154 A 
ATOM     24  C   UNL     1      33.654 -23.193 -18.081  0.00  0.00    +0.075 C 
BRANCH  22  26
ATOM     25  F   UNL     1      35.985 -16.429 -23.714  0.00  0.00    -0.204 F 
ATOM     26  C   UNL     1      34.443 -19.394 -21.288  0.00  0.00    +0.021 C 
ATOM     27  C   UNL     1      34.756 -18.145 -20.751  0.00  0.00    +0.004 C 
ATOM     28  C   UNL     1      34.651 -19.641 -22.646  0.00  0.00    +0.004 C 
ATOM     29  C   UNL     1      35.277 -17.144 -21.571  0.00  0.00    +0.030 C 
ATOM     30  C   UNL     1      35.172 -18.639 -23.465  0.00  0.00    +0.030 C 
ATOM     31  C   UNL     1      35.485 -17.391 -22.928  0.00  0.00    +0.140 C 
ENDBRANCH  22  26
ENDBRANCH  18  21
ENDBRANCH  17  18
ENDBRANCH   6  17
TORSDOF 5
ENDMDL
MODEL 4
REMARK VINA RESULT:     -10.3      4.634     10.387
REMARK  Name = 57336276
REMARK  5 active torsions:
REMARK  status: ('A' for Active; 'I' for Inactive)
REMARK    1  A    between atoms: C_2  and  C_16
REMARK    2  A    between atoms: C_6  and  O_17
REMARK    3  A    between atoms: O_17  and  C_18
REMARK    4  A    between atoms: C_18  and  C_21
REMARK    5  A    between atoms: C_22  and  C_26
REMARK                            x       y       z     vdW  Elec       q    Type
REMARK                         _______ _______ _______ _____ _____    ______ ____
ROOT
ATOM      1  N   UNL     1      32.420 -14.340 -21.360  0.00  0.00    -0.210 NA
ATOM      2  C   UNL     1      33.349 -12.390 -22.446  0.00  0.00    +0.073 C 
ATOM      3  C   UNL     1      34.606 -12.985 -22.454  0.00  0.00    +0.011 C 
ATOM      4  C   UNL     1      32.298 -13.103 -21.892  0.00  0.00    +0.107 C 
ATOM      5  C   UNL     1      34.771 -14.257 -21.917  0.00  0.00    +0.058 C 
ATOM      6  C   UNL     1      33.656 -14.886 -21.386  0.00  0.00    +0.225 C 
ENDROOT
BRANCH   2  16
ATOM      7  S   UNL     1      32.466  -7.855 -20.179  0.00  0.00    -0.007 S 
ATOM      8  O   UNL     1      33.475  -7.219 -19.355  0.00  0.00    -0.173 OA
ATOM      9  O   UNL     1      31.083  -7.419 -20.129  0.00  0.00    -0.173 OA
ATOM     10  O   UNL     1      33.651 -10.837 -24.105  0.00  0.00    -0.270 OA
ATOM     11  N   UNL     1      32.404 -10.131 -22.256  0.00  0.00    -0.272 N 
ATOM     12  C   UNL     1      33.014  -7.777 -21.876  0.00  0.00    +0.172 C 
ATOM     13  C   UNL     1      32.511  -9.608 -19.848  0.00  0.00    +0.172 C 
ATOM     14  C   UNL     1      32.249  -8.760 -22.750  0.00  0.00    +0.119 C 
ATOM     15  C   UNL     1      31.800 -10.394 -20.941  0.00  0.00    +0.119 C 
ATOM     16  C   UNL     1      33.143 -11.049 -23.005  0.00  0.00    +0.251 C 
ENDBRANCH   2  16
BRANCH   6  17
ATOM     17  O   UNL     1      33.793 -16.140 -20.851  0.00  0.00    -0.455 OA
BRANCH  17  18
ATOM     18  C   UNL     1      35.043 -16.789 -21.051  0.00  0.00    +0.238 C 
BRANCH  18  21
ATOM     19  O   UNL     1      34.800 -18.564 -24.275  0.00  0.00    -0.358 OA
ATOM     20  N   UNL     1      34.707 -19.653 -23.417  0.00  0.00    -0.078 NA
ATOM     21  C   UNL     1      34.924 -17.735 -22.209  0.00  0.00    +0.075 A 
ATOM     22  C   UNL     1      34.783 -19.133 -22.189  0.00  0.00    +0.122 A 
ATOM     23  C   UNL     1      34.928 -17.428 -23.544  0.00  0.00    +0.154 A 
ATOM     24  C   UNL     1      35.040 -16.173 -24.301  0.00  0.00    +0.075 C 
BRANCH  22  26
ATOM     25  F   UNL     1      34.539 -22.444 -17.719  0.00  0.00    -0.204 F 
ATOM     26  C   UNL     1      34.720 -19.989 -21.034  0.00  0.00    +0.021 C 
ATOM     27  C   UNL     1      35.895 -20.476 -20.461  0.00  0.00    +0.004 C 
ATOM     28  C   UNL     1      33.484 -20.332 -20.486  0.00  0.00    +0.004 C 
ATOM     29  C   UNL     1      35.834 -21.304 -19.341  0.00  0.00    +0.030 C 
ATOM     30  C   UNL     1      33.423 -21.162 -19.366  0.00  0.00    +0.030 C 
ATOM     31  C   UNL     1      34.598 -21.648 -18.794  0.00  0.00    +0.140 C 
ENDBRANCH  22  26
ENDBRANCH  18  21
ENDBRANCH  17  18
ENDBRANCH   6  17
TORSDOF 5
ENDMDL
MODEL 5
REMARK VINA RESULT:     -10.2      4.310     10.049
REMARK  Name = 57336276
REMARK  5 active torsions:
REMARK  status: ('A' for Active; 'I' for Inactive)
REMARK    1  A    between atoms: C_2  and  C_16
REMARK    2  A    between atoms: C_6  and  O_17
REMARK    3  A    between atoms: O_17  and  C_18
REMARK    4  A    between atoms: C_18  and  C_21
REMARK    5  A    between atoms: C_22  and  C_26
REMARK                            x       y       z     vdW  Elec       q    Type
REMARK                         _______ _______ _______ _____ _____    ______ ____
ROOT
ATOM      1  N   UNL     1      32.600 -12.587 -22.432  0.00  0.00    -0.210 NA
ATOM      2  C   UNL     1      32.053 -11.136 -20.578  0.00  0.00    +0.073 C 
ATOM      3  C   UNL     1      32.161 -12.207 -19.699  0.00  0.00    +0.011 C 
ATOM      4  C   UNL     1      32.281 -11.375 -21.924  0.00  0.00    +0.107 C 
ATOM      5  C   UNL     1      32.488 -13.469 -20.185  0.00  0.00    +0.058 C 
ATOM      6  C   UNL     1      32.696 -13.604 -21.548  0.00  0.00    +0.225 C 
ENDROOT
BRANCH   2  16
ATOM      7  S   UNL     1      32.085  -6.562 -22.937  0.00  0.00    -0.007 S 
ATOM      8  O   UNL     1      31.169  -6.271 -24.022  0.00  0.00    -0.173 OA
ATOM      9  O   UNL     1      33.245  -5.723 -22.699  0.00  0.00    -0.173 OA
ATOM     10  O   UNL     1      30.906  -9.740 -19.166  0.00  0.00    -0.270 OA
ATOM     11  N   UNL     1      32.304  -8.696 -20.725  0.00  0.00    -0.272 N 
ATOM     12  C   UNL     1      31.138  -6.646 -21.427  0.00  0.00    +0.172 C 
ATOM     13  C   UNL     1      32.644  -8.247 -23.126  0.00  0.00    +0.172 C 
ATOM     14  C   UNL     1      31.920  -7.341 -20.321  0.00  0.00    +0.119 C 
ATOM     15  C   UNL     1      33.263  -8.770 -21.838  0.00  0.00    +0.119 C 
ATOM     16  C   UNL     1      31.709  -9.793 -20.096  0.00  0.00    +0.251 C 
ENDBRANCH   2  16
BRANCH   6  17
ATOM     17  O   UNL     1      33.020 -14.837 -22.051  0.00  0.00    -0.455 OA
BRANCH  17  18
ATOM     18  C   UNL     1      34.392 -15.069 -22.343  0.00  0.00    +0.238 C 
BRANCH  18  21
ATOM     19  O   UNL     1      34.420 -16.558 -25.718  0.00  0.00    -0.358 OA
ATOM     20  N   UNL     1      34.884 -17.649 -24.992  0.00  0.00    -0.078 NA
ATOM     21  C   UNL     1      34.495 -15.898 -23.589  0.00  0.00    +0.075 A 
ATOM     22  C   UNL     1      34.920 -17.231 -23.724  0.00  0.00    +0.122 A 
ATOM     23  C   UNL     1      34.192 -15.522 -24.872  0.00  0.00    +0.154 A 
ATOM     24  C   UNL     1      33.695 -14.280 -25.479  0.00  0.00    +0.075 C 
BRANCH  22  26
ATOM     25  F   UNL     1      36.621 -20.661 -19.681  0.00  0.00    -0.204 F 
ATOM     26  C   UNL     1      35.359 -18.117 -22.680  0.00  0.00    +0.021 C 
ATOM     27  C   UNL     1      34.549 -19.180 -22.279  0.00  0.00    +0.004 C 
ATOM     28  C   UNL     1      36.596 -17.914 -22.066  0.00  0.00    +0.004 C 
ATOM     29  C   UNL     1      34.976 -20.040 -21.267  0.00  0.00    +0.030 C 
ATOM     30  C   UNL     1      37.022 -18.774 -21.053  0.00  0.00    +0.030 C 
ATOM     31  C   UNL     1      36.212 -19.836 -20.654  0.00  0.00    +0.140 C 
ENDBRANCH  22  26
ENDBRANCH  18  21
ENDBRANCH  17  18
ENDBRANCH   6  17
TORSDOF 5
ENDMDL
MODEL 6
REMARK VINA RESULT:      -9.8      4.482     10.107
REMARK  Name = 57336276
REMARK  5 active torsions:
REMARK  status: ('A' for Active; 'I' for Inactive)
REMARK    1  A    between atoms: C_2  and  C_16
REMARK    2  A    between atoms: C_6  and  O_17
REMARK    3  A    between atoms: O_17  and  C_18
REMARK    4  A    between atoms: C_18  and  C_21
REMARK    5  A    between atoms: C_22  and  C_26
REMARK                            x       y       z     vdW  Elec       q    Type
REMARK                         _______ _______ _______ _____ _____    ______ ____
ROOT
ATOM      1  N   UNL     1      34.220 -11.627 -23.828  0.00  0.00    -0.210 NA
ATOM      2  C   UNL     1      33.709  -9.379 -23.097  0.00  0.00    +0.073 C 
ATOM      3  C   UNL     1      32.650  -9.860 -22.335  0.00  0.00    +0.011 C 
ATOM      4  C   UNL     1      34.457 -10.296 -23.819  0.00  0.00    +0.107 C 
ATOM      5  C   UNL     1      32.376 -11.224 -22.318  0.00  0.00    +0.058 C 
ATOM      6  C   UNL     1      33.183 -12.057 -23.075  0.00  0.00    +0.225 C 
ENDROOT
BRANCH   2  16
ATOM      7  S   UNL     1      30.761  -5.223 -22.374  0.00  0.00    -0.007 S 
ATOM      8  O   UNL     1      30.180  -4.932 -21.078  0.00  0.00    -0.173 OA
ATOM      9  O   UNL     1      30.277  -4.561 -23.570  0.00  0.00    -0.173 OA
ATOM     10  O   UNL     1      35.189  -7.642 -22.882  0.00  0.00    -0.270 OA
ATOM     11  N   UNL     1      32.996  -7.054 -23.446  0.00  0.00    -0.272 N 
ATOM     12  C   UNL     1      32.522  -4.952 -22.259  0.00  0.00    +0.172 C 
ATOM     13  C   UNL     1      30.668  -6.987 -22.634  0.00  0.00    +0.172 C 
ATOM     14  C   UNL     1      33.260  -5.613 -23.413  0.00  0.00    +0.119 C 
ATOM     15  C   UNL     1      31.606  -7.430 -23.748  0.00  0.00    +0.119 C 
ATOM     16  C   UNL     1      34.025  -7.946 -23.136  0.00  0.00    +0.251 C 
ENDBRANCH   2  16
BRANCH   6  17
ATOM     17  O   UNL     1      32.932 -13.404 -23.074  0.00  0.00    -0.455 OA
BRANCH  17  18
ATOM     18  C   UNL     1      34.061 -14.265 -22.991  0.00  0.00    +0.238 C 
BRANCH  18  21
ATOM     19  O   UNL     1      34.019 -15.791 -26.349  0.00  0.00    -0.358 OA
ATOM     20  N   UNL     1      34.427 -16.895 -25.612  0.00  0.00    -0.078 NA
ATOM     21  C   UNL     1      34.124 -15.112 -24.229  0.00  0.00    +0.075 A 
ATOM     22  C   UNL     1      34.483 -16.466 -24.348  0.00  0.00    +0.122 A 
ATOM     23  C   UNL     1      33.841 -14.735 -25.515  0.00  0.00    +0.154 A 
ATOM     24  C   UNL     1      33.406 -13.477 -26.137  0.00  0.00    +0.075 C 
BRANCH  22  26
ATOM     25  F   UNL     1      36.010 -19.932 -20.267  0.00  0.00    -0.204 F 
ATOM     26  C   UNL     1      34.877 -17.361 -23.294  0.00  0.00    +0.021 C 
ATOM     27  C   UNL     1      34.861 -18.740 -23.506  0.00  0.00    +0.004 C 
ATOM     28  C   UNL     1      35.276 -16.852 -22.057  0.00  0.00    +0.004 C 
ATOM     29  C   UNL     1      35.244 -19.608 -22.484  0.00  0.00    +0.030 C 
ATOM     30  C   UNL     1      35.659 -17.720 -21.035  0.00  0.00    +0.030 C 
ATOM     31  C   UNL     1      35.642 -19.098 -21.248  0.00  0.00    +0.140 C 
ENDBRANCH  22  26
ENDBRANCH  18  21
ENDBRANCH  17  18
ENDBRANCH   6  17
TORSDOF 5
ENDMDL
MODEL 7
REMARK VINA RESULT:      -9.6      1.922      2.327
REMARK  Name = 57336276
REMARK  5 active torsions:
REMARK  status: ('A' for Active; 'I' for Inactive)
REMARK    1  A    between atoms: C_2  and  C_16
REMARK    2  A    between atoms: C_6  and  O_17
REMARK    3  A    between atoms: O_17  and  C_18
REMARK    4  A    between atoms: C_18  and  C_21
REMARK    5  A    between atoms: C_22  and  C_26
REMARK                            x       y       z     vdW  Elec       q    Type
REMARK                         _______ _______ _______ _____ _____    ______ ____
ROOT
ATOM      1  N   UNL     1      34.514 -13.490 -23.022  0.00  0.00    -0.210 NA
ATOM      2  C   UNL     1      34.435 -15.575 -24.243  0.00  0.00    +0.073 C 
ATOM      3  C   UNL     1      33.487 -15.041 -25.108  0.00  0.00    +0.011 C 
ATOM      4  C   UNL     1      34.914 -14.765 -23.224  0.00  0.00    +0.107 C 
ATOM      5  C   UNL     1      33.052 -13.732 -24.932  0.00  0.00    +0.058 C 
ATOM      6  C   UNL     1      33.592 -13.005 -23.883  0.00  0.00    +0.225 C 
ENDROOT
BRANCH   2  16
ATOM      7  S   UNL     1      34.787 -19.465 -20.891  0.00  0.00    -0.007 S 
ATOM      8  O   UNL     1      33.601 -20.076 -20.324  0.00  0.00    -0.173 OA
ATOM      9  O   UNL     1      36.093 -19.690 -20.301  0.00  0.00    -0.173 OA
ATOM     10  O   UNL     1      34.835 -17.427 -25.534  0.00  0.00    -0.270 OA
ATOM     11  N   UNL     1      35.409 -17.612 -23.273  0.00  0.00    -0.272 N 
ATOM     12  C   UNL     1      34.868 -19.920 -22.615  0.00  0.00    +0.172 C 
ATOM     13  C   UNL     1      34.510 -17.704 -20.979  0.00  0.00    +0.172 C 
ATOM     14  C   UNL     1      35.820 -19.015 -23.382  0.00  0.00    +0.119 C 
ATOM     15  C   UNL     1      35.500 -17.036 -21.923  0.00  0.00    +0.119 C 
ATOM     16  C   UNL     1      34.915 -16.953 -24.402  0.00  0.00    +0.251 C 
ENDBRANCH   2  16
BRANCH   6  17
ATOM     17  O   UNL     1      33.179 -11.713 -23.690  0.00  0.00    -0.455 OA
BRANCH  17  18
ATOM     18  C   UNL     1      33.601 -11.079 -22.488  0.00  0.00    +0.238 C 
BRANCH  18  21
ATOM     19  O   UNL     1      30.918 -11.717 -20.038  0.00  0.00    -0.358 OA
ATOM     20  N   UNL     1      30.745 -10.349 -20.202  0.00  0.00    -0.078 NA
ATOM     21  C   UNL     1      32.462 -11.072 -21.512  0.00  0.00    +0.075 A 
ATOM     22  C   UNL     1      31.677  -9.985 -21.087  0.00  0.00    +0.122 A 
ATOM     23  C   UNL     1      31.943 -12.137 -20.823  0.00  0.00    +0.154 A 
ATOM     24  C   UNL     1      32.263 -13.570 -20.770  0.00  0.00    +0.075 C 
BRANCH  22  26
ATOM     25  F   UNL     1      32.119  -4.669 -22.682  0.00  0.00    -0.204 F 
ATOM     26  C   UNL     1      31.791  -8.612 -21.499  0.00  0.00    +0.021 C 
ATOM     27  C   UNL     1      31.365  -8.227 -22.770  0.00  0.00    +0.004 C 
ATOM     28  C   UNL     1      32.329  -7.664 -20.628  0.00  0.00    +0.004 C 
ATOM     29  C   UNL     1      31.475  -6.895 -23.169  0.00  0.00    +0.030 C 
ATOM     30  C   UNL     1      32.439  -6.332 -21.028  0.00  0.00    +0.030 C 
ATOM     31  C   UNL     1      32.013  -5.948 -22.298  0.00  0.00    +0.140 C 
ENDBRANCH  22  26
ENDBRANCH  18  21
ENDBRANCH  17  18
ENDBRANCH   6  17
TORSDOF 5
ENDMDL
MODEL 8
REMARK VINA RESULT:      -9.4      4.903     10.049
REMARK  Name = 57336276
REMARK  5 active torsions:
REMARK  status: ('A' for Active; 'I' for Inactive)
REMARK    1  A    between atoms: C_2  and  C_16
REMARK    2  A    between atoms: C_6  and  O_17
REMARK    3  A    between atoms: O_17  and  C_18
REMARK    4  A    between atoms: C_18  and  C_21
REMARK    5  A    between atoms: C_22  and  C_26
REMARK                            x       y       z     vdW  Elec       q    Type
REMARK                         _______ _______ _______ _____ _____    ______ ____
ROOT
ATOM      1  N   UNL     1      31.687  -8.577 -23.246  0.00  0.00    -0.210 NA
ATOM      2  C   UNL     1      31.570  -6.362 -22.284  0.00  0.00    +0.073 C 
ATOM      3  C   UNL     1      32.422  -6.755 -21.258  0.00  0.00    +0.011 C 
ATOM      4  C   UNL     1      31.235  -7.302 -23.246  0.00  0.00    +0.107 C 
ATOM      5  C   UNL     1      32.907  -8.058 -21.226  0.00  0.00    +0.058 C 
ATOM      6  C   UNL     1      32.513  -8.922 -22.234  0.00  0.00    +0.225 C 
ENDROOT
BRANCH   2  16
ATOM      7  S   UNL     1      31.763  -2.804 -25.998  0.00  0.00    -0.007 S 
ATOM      8  O   UNL     1      31.070  -2.996 -27.257  0.00  0.00    -0.173 OA
ATOM      9  O   UNL     1      32.786  -1.786 -25.861  0.00  0.00    -0.173 OA
ATOM     10  O   UNL     1      30.062  -4.760 -21.639  0.00  0.00    -0.270 OA
ATOM     11  N   UNL     1      31.672  -4.083 -23.196  0.00  0.00    -0.272 N 
ATOM     12  C   UNL     1      30.534  -2.534 -24.732  0.00  0.00    +0.172 C 
ATOM     13  C   UNL     1      32.465  -4.372 -25.513  0.00  0.00    +0.172 C 
ATOM     14  C   UNL     1      31.119  -2.734 -23.342  0.00  0.00    +0.119 C 
ATOM     15  C   UNL     1      32.843  -4.374 -24.038  0.00  0.00    +0.119 C 
ATOM     16  C   UNL     1      31.040  -4.994 -22.347  0.00  0.00    +0.251 C 
ENDBRANCH   2  16
BRANCH   6  17
ATOM     17  O   UNL     1      32.978 -10.211 -22.224  0.00  0.00    -0.455 OA
BRANCH  17  18
ATOM     18  C   UNL     1      32.013 -11.241 -22.393  0.00  0.00    +0.238 C 
BRANCH  18  21
ATOM     19  O   UNL     1      31.925 -13.100 -19.208  0.00  0.00    -0.358 OA
ATOM     20  N   UNL     1      32.570 -14.045 -19.996  0.00  0.00    -0.078 NA
ATOM     21  C   UNL     1      32.104 -12.194 -21.237  0.00  0.00    +0.075 A 
ATOM     22  C   UNL     1      32.666 -13.481 -21.203  0.00  0.00    +0.122 A 
ATOM     23  C   UNL     1      31.653 -12.002 -19.957  0.00  0.00    +0.154 A 
ATOM     24  C   UNL     1      30.968 -10.897 -19.273  0.00  0.00    +0.075 C 
BRANCH  22  26
ATOM     25  F   UNL     1      35.085 -16.226 -25.401  0.00  0.00    -0.204 F 
ATOM     26  C   UNL     1      33.291 -14.191 -22.288  0.00  0.00    +0.021 C 
ATOM     27  C   UNL     1      34.185 -15.228 -22.021  0.00  0.00    +0.004 C 
ATOM     28  C   UNL     1      33.004 -13.841 -23.608  0.00  0.00    +0.004 C 
ATOM     29  C   UNL     1      34.790 -15.915 -23.072  0.00  0.00    +0.030 C 
ATOM     30  C   UNL     1      33.610 -14.529 -24.660  0.00  0.00    +0.030 C 
ATOM     31  C   UNL     1      34.503 -15.566 -24.392  0.00  0.00    +0.140 C 
ENDBRANCH  22  26
ENDBRANCH  18  21
ENDBRANCH  17  18
ENDBRANCH   6  17
TORSDOF 5
ENDMDL
MODEL 9
REMARK VINA RESULT:      -9.1      6.799     10.827
REMARK  Name = 57336276
REMARK  5 active torsions:
REMARK  status: ('A' for Active; 'I' for Inactive)
REMARK    1  A    between atoms: C_2  and  C_16
REMARK    2  A    between atoms: C_6  and  O_17
REMARK    3  A    between atoms: O_17  and  C_18
REMARK    4  A    between atoms: C_18  and  C_21
REMARK    5  A    between atoms: C_22  and  C_26
REMARK                            x       y       z     vdW  Elec       q    Type
REMARK                         _______ _______ _______ _____ _____    ______ ____
ROOT
ATOM      1  N   UNL     1      32.556 -21.239 -18.791  0.00  0.00    -0.210 NA
ATOM      2  C   UNL     1      33.013 -22.914 -17.109  0.00  0.00    +0.073 C 
ATOM      3  C   UNL     1      34.121 -23.345 -17.830  0.00  0.00    +0.011 C 
ATOM      4  C   UNL     1      32.269 -21.866 -17.628  0.00  0.00    +0.107 C 
ATOM      5  C   UNL     1      34.448 -22.724 -19.030  0.00  0.00    +0.058 C 
ATOM      6  C   UNL     1      33.640 -21.685 -19.463  0.00  0.00    +0.225 C 
ENDROOT
BRANCH   2  16
ATOM      7  S   UNL     1      35.774 -23.967 -12.895  0.00  0.00    -0.007 S 
ATOM      8  O   UNL     1      36.308 -22.905 -12.064  0.00  0.00    -0.173 OA
ATOM      9  O   UNL     1      36.262 -25.327 -12.769  0.00  0.00    -0.173 OA
ATOM     10  O   UNL     1      31.460 -23.454 -15.511  0.00  0.00    -0.270 OA
ATOM     11  N   UNL     1      33.643 -24.195 -15.109  0.00  0.00    -0.272 N 
ATOM     12  C   UNL     1      34.001 -23.989 -12.684  0.00  0.00    +0.172 C 
ATOM     13  C   UNL     1      35.943 -23.468 -14.601  0.00  0.00    +0.172 C 
ATOM     14  C   UNL     1      33.321 -24.768 -13.799  0.00  0.00    +0.119 C 
ATOM     15  C   UNL     1      35.054 -24.303 -15.510  0.00  0.00    +0.119 C 
ATOM     16  C   UNL     1      32.642 -23.549 -15.839  0.00  0.00    +0.251 C 
ENDBRANCH   2  16
BRANCH   6  17
ATOM     17  O   UNL     1      33.942 -21.056 -20.643  0.00  0.00    -0.455 OA
BRANCH  17  18
ATOM     18  C   UNL     1      34.138 -19.649 -20.587  0.00  0.00    +0.238 C 
BRANCH  18  21
ATOM     19  O   UNL     1      37.812 -19.406 -20.812  0.00  0.00    -0.358 OA
ATOM     20  N   UNL     1      37.470 -18.372 -21.675  0.00  0.00    -0.078 NA
ATOM     21  C   UNL     1      35.584 -19.344 -20.850  0.00  0.00    +0.075 A 
ATOM     22  C   UNL     1      36.135 -18.354 -21.681  0.00  0.00    +0.122 A 
ATOM     23  C   UNL     1      36.680 -19.977 -20.327  0.00  0.00    +0.154 A 
ATOM     24  C   UNL     1      36.862 -21.097 -19.392  0.00  0.00    +0.075 C 
BRANCH  22  26
ATOM     25  F   UNL     1      33.390 -14.630 -24.779  0.00  0.00    -0.204 F 
ATOM     26  C   UNL     1      35.426 -17.392 -22.482  0.00  0.00    +0.021 C 
ATOM     27  C   UNL     1      34.955 -16.213 -21.903  0.00  0.00    +0.004 C 
ATOM     28  C   UNL     1      35.207 -17.637 -23.838  0.00  0.00    +0.004 C 
ATOM     29  C   UNL     1      34.268 -15.280 -22.679  0.00  0.00    +0.030 C 
ATOM     30  C   UNL     1      34.519 -16.703 -24.614  0.00  0.00    +0.030 C 
ATOM     31  C   UNL     1      34.050 -15.526 -24.034  0.00  0.00    +0.140 C 
ENDBRANCH  22  26
ENDBRANCH  18  21
ENDBRANCH  17  18
ENDBRANCH   6  17
TORSDOF 5
ENDMDL
