MODEL 1
REMARK VINA RESULT:     -12.3      0.000      0.000
REMARK  Name = 16040279
REMARK  5 active torsions:
REMARK  status: ('A' for Active; 'I' for Inactive)
REMARK    1  A    between atoms: N_2  and  C_21
REMARK    2  A    between atoms: C_3  and  C_11
REMARK    3  A    between atoms: C_4  and  N_17
REMARK    4  A    between atoms: C_21  and  C_22
REMARK    5  A    between atoms: C_22  and  C_25
REMARK                            x       y       z     vdW  Elec       q    Type
REMARK                         _______ _______ _______ _____ _____    ______ ____
ROOT
ATOM      1  O   UNL     1      34.633 -17.374 -25.152  0.00  0.00    -0.275 OA
ATOM      2  N   UNL     1      35.106 -17.314 -22.881  0.00  0.00    -0.281 N 
ATOM      3  C   UNL     1      33.772 -14.775 -22.710  0.00  0.00    +0.015 C 
ATOM      4  C   UNL     1      34.793 -15.162 -21.626  0.00  0.00    -0.041 C 
ATOM      5  C   UNL     1      34.897 -16.685 -21.578  0.00  0.00    +0.072 C 
ATOM      6  C   UNL     1      34.275 -15.298 -24.058  0.00  0.00    +0.088 C 
ATOM      7  C   UNL     1      34.655 -16.766 -24.079  0.00  0.00    +0.226 C 
ENDROOT
BRANCH   3  11
ATOM      8  F   UNL     1      31.740 -13.483 -21.207  0.00  0.00    -0.204 F 
ATOM      9  F   UNL     1      34.712 -10.354 -24.567  0.00  0.00    -0.202 F 
ATOM     10  F   UNL     1      32.721  -9.241 -23.059  0.00  0.00    -0.202 F 
ATOM     11  C   UNL     1      33.486 -13.284 -22.802  0.00  0.00    +0.006 C 
ATOM     12  C   UNL     1      32.472 -12.723 -22.033  0.00  0.00    +0.138 C 
ATOM     13  C   UNL     1      34.244 -12.490 -23.658  0.00  0.00    +0.030 C 
ATOM     14  C   UNL     1      33.985 -11.122 -23.745  0.00  0.00    +0.167 C 
ATOM     15  C   UNL     1      32.212 -11.354 -22.120  0.00  0.00    +0.061 C 
ATOM     16  C   UNL     1      32.970 -10.554 -22.976  0.00  0.00    +0.170 C 
ENDBRANCH   3  11
BRANCH   4  17
ATOM     17  N   UNL     1      34.394 -14.685 -20.299  0.00  0.00    +0.383 N 
ATOM     18  H   UNL     1      33.376 -14.672 -20.234  0.00  0.00    -0.089 HD
ATOM     19  H   UNL     1      34.756 -13.741 -20.154  0.00  0.00    -0.089 HD
ATOM     20  H   UNL     1      34.773 -15.308 -19.585  0.00  0.00    -0.089 HD
ENDBRANCH   4  17
BRANCH   2  21
ATOM     21  C   UNL     1      35.577 -18.693 -22.852  0.00  0.00    +0.098 C 
BRANCH  21  22
ATOM     22  C   UNL     1      36.152 -19.088 -21.493  0.00  0.00    +0.048 C 
BRANCH  22  25
ATOM     23  O   UNL     1      35.192 -22.579 -18.137  0.00  0.00    -0.435 OA
ATOM     24  O   UNL     1      32.811 -22.400 -18.462  0.00  0.00    -0.435 OA
ATOM     25  C   UNL     1      35.222 -19.965 -20.693  0.00  0.00    -0.017 C 
ATOM     26  C   UNL     1      35.757 -20.863 -19.779  0.00  0.00    +0.036 C 
ATOM     27  C   UNL     1      33.843 -19.852 -20.893  0.00  0.00    -0.001 C 
ATOM     28  C   UNL     1      34.867 -21.644 -19.071  0.00  0.00    +0.176 C 
ATOM     29  C   UNL     1      33.507 -21.543 -19.257  0.00  0.00    +0.176 C 
ATOM     30  C   UNL     1      32.963 -20.654 -20.162  0.00  0.00    +0.040 C 
ATOM     31  C   UNL     1      33.884 -23.053 -17.755  0.00  0.00    +0.429 C 
ENDBRANCH  22  25
ENDBRANCH  21  22
ENDBRANCH   2  21
TORSDOF 5
ENDMDL
MODEL 2
REMARK VINA RESULT:     -12.0      3.453      5.550
REMARK  Name = 16040279
REMARK  5 active torsions:
REMARK  status: ('A' for Active; 'I' for Inactive)
REMARK    1  A    between atoms: N_2  and  C_21
REMARK    2  A    between atoms: C_3  and  C_11
REMARK    3  A    between atoms: C_4  and  N_17
REMARK    4  A    between atoms: C_21  and  C_22
REMARK    5  A    between atoms: C_22  and  C_25
REMARK                            x       y       z     vdW  Elec       q    Type
REMARK                         _______ _______ _______ _____ _____    ______ ____
ROOT
ATOM      1  O   UNL     1      33.277 -21.076 -19.561  0.00  0.00    -0.275 OA
ATOM      2  N   UNL     1      35.588 -20.981 -19.757  0.00  0.00    -0.281 N 
ATOM      3  C   UNL     1      35.320 -18.557 -21.278  0.00  0.00    +0.015 C 
ATOM      4  C   UNL     1      36.608 -19.389 -21.410  0.00  0.00    -0.041 C 
ATOM      5  C   UNL     1      36.778 -20.225 -20.143  0.00  0.00    +0.072 C 
ATOM      6  C   UNL     1      34.136 -19.517 -21.132  0.00  0.00    +0.088 C 
ATOM      7  C   UNL     1      34.290 -20.573 -20.054  0.00  0.00    +0.226 C 
ENDROOT
BRANCH   3  11
ATOM      8  F   UNL     1      34.897 -19.403 -23.954  0.00  0.00    -0.204 F 
ATOM      9  F   UNL     1      34.792 -14.017 -23.007  0.00  0.00    -0.202 F 
ATOM     10  F   UNL     1      34.401 -14.972 -25.539  0.00  0.00    -0.202 F 
ATOM     11  C   UNL     1      35.072 -17.593 -22.427  0.00  0.00    +0.006 C 
ATOM     12  C   UNL     1      34.873 -18.085 -23.714  0.00  0.00    +0.138 C 
ATOM     13  C   UNL     1      35.046 -16.224 -22.184  0.00  0.00    +0.030 C 
ATOM     14  C   UNL     1      34.819 -15.336 -23.236  0.00  0.00    +0.167 C 
ATOM     15  C   UNL     1      34.647 -17.198 -24.768  0.00  0.00    +0.061 C 
ATOM     16  C   UNL     1      34.619 -15.824 -24.528  0.00  0.00    +0.170 C 
ENDBRANCH   3  11
BRANCH   4  17
ATOM     17  N   UNL     1      37.794 -18.544 -21.568  0.00  0.00    +0.383 N 
ATOM     18  H   UNL     1      38.327 -18.540 -20.698  0.00  0.00    -0.089 HD
ATOM     19  H   UNL     1      37.505 -17.591 -21.795  0.00  0.00    -0.089 HD
ATOM     20  H   UNL     1      38.376 -18.911 -22.321  0.00  0.00    -0.089 HD
ENDBRANCH   4  17
BRANCH   2  21
ATOM     21  C   UNL     1      35.802 -22.057 -18.799  0.00  0.00    +0.098 C 
BRANCH  21  22
ATOM     22  C   UNL     1      36.793 -21.676 -17.701  0.00  0.00    +0.048 C 
BRANCH  22  25
ATOM     23  O   UNL     1      38.333 -23.865 -13.552  0.00  0.00    -0.435 OA
ATOM     24  O   UNL     1      36.095 -24.486 -12.911  0.00  0.00    -0.435 OA
ATOM     25  C   UNL     1      36.568 -22.434 -16.416  0.00  0.00    -0.017 C 
ATOM     26  C   UNL     1      37.660 -22.760 -15.623  0.00  0.00    +0.036 C 
ATOM     27  C   UNL     1      35.265 -22.788 -16.058  0.00  0.00    -0.001 C 
ATOM     28  C   UNL     1      37.404 -23.454 -14.457  0.00  0.00    +0.176 C 
ATOM     29  C   UNL     1      36.126 -23.809 -14.092  0.00  0.00    +0.176 C 
ATOM     30  C   UNL     1      35.033 -23.490 -14.872  0.00  0.00    +0.040 C 
ATOM     31  C   UNL     1      37.496 -24.517 -12.575  0.00  0.00    +0.429 C 
ENDBRANCH  22  25
ENDBRANCH  21  22
ENDBRANCH   2  21
TORSDOF 5
ENDMDL
MODEL 3
REMARK VINA RESULT:     -11.9      0.728      1.359
REMARK  Name = 16040279
REMARK  5 active torsions:
REMARK  status: ('A' for Active; 'I' for Inactive)
REMARK    1  A    between atoms: N_2  and  C_21
REMARK    2  A    between atoms: C_3  and  C_11
REMARK    3  A    between atoms: C_4  and  N_17
REMARK    4  A    between atoms: C_21  and  C_22
REMARK    5  A    between atoms: C_22  and  C_25
REMARK                            x       y       z     vdW  Elec       q    Type
REMARK                         _______ _______ _______ _____ _____    ______ ____
ROOT
ATOM      1  O   UNL     1      34.633 -16.836 -25.375  0.00  0.00    -0.275 OA
ATOM      2  N   UNL     1      34.976 -16.897 -23.080  0.00  0.00    -0.281 N 
ATOM      3  C   UNL     1      33.699 -14.332 -22.861  0.00  0.00    +0.015 C 
ATOM      4  C   UNL     1      34.645 -14.799 -21.741  0.00  0.00    -0.041 C 
ATOM      5  C   UNL     1      34.708 -16.325 -21.763  0.00  0.00    +0.072 C 
ATOM      6  C   UNL     1      34.266 -14.805 -24.203  0.00  0.00    +0.088 C 
ATOM      7  C   UNL     1      34.609 -16.280 -24.274  0.00  0.00    +0.226 C 
ENDROOT
BRANCH   3  11
ATOM      8  F   UNL     1      31.664 -13.048 -21.356  0.00  0.00    -0.204 F 
ATOM      9  F   UNL     1      34.810  -9.865 -24.500  0.00  0.00    -0.202 F 
ATOM     10  F   UNL     1      32.812  -8.760 -22.997  0.00  0.00    -0.202 F 
ATOM     11  C   UNL     1      33.458 -12.831 -22.896  0.00  0.00    +0.006 C 
ATOM     12  C   UNL     1      32.439 -12.274 -22.129  0.00  0.00    +0.138 C 
ATOM     13  C   UNL     1      34.259 -12.024 -23.697  0.00  0.00    +0.030 C 
ATOM     14  C   UNL     1      34.041 -10.646 -23.731  0.00  0.00    +0.167 C 
ATOM     15  C   UNL     1      32.220 -10.896 -22.164  0.00  0.00    +0.061 C 
ATOM     16  C   UNL     1      33.022 -10.083 -22.965  0.00  0.00    +0.170 C 
ENDBRANCH   3  11
BRANCH   4  17
ATOM     17  N   UNL     1      34.183 -14.375 -20.418  0.00  0.00    +0.383 N 
ATOM     18  H   UNL     1      33.767 -15.169 -19.932  0.00  0.00    -0.089 HD
ATOM     19  H   UNL     1      33.485 -13.636 -20.522  0.00  0.00    -0.089 HD
ATOM     20  H   UNL     1      34.973 -14.022 -19.877  0.00  0.00    -0.089 HD
ENDBRANCH   4  17
BRANCH   2  21
ATOM     21  C   UNL     1      35.408 -18.289 -23.093  0.00  0.00    +0.098 C 
BRANCH  21  22
ATOM     22  C   UNL     1      36.438 -18.592 -22.007  0.00  0.00    +0.048 C 
BRANCH  22  25
ATOM     23  O   UNL     1      32.919 -21.081 -19.600  0.00  0.00    -0.435 OA
ATOM     24  O   UNL     1      34.524 -22.354 -18.333  0.00  0.00    -0.435 OA
ATOM     25  C   UNL     1      35.957 -19.615 -21.008  0.00  0.00    -0.017 C 
ATOM     26  C   UNL     1      34.593 -19.805 -20.837  0.00  0.00    +0.036 C 
ATOM     27  C   UNL     1      36.900 -20.345 -20.279  0.00  0.00    -0.001 C 
ATOM     28  C   UNL     1      34.201 -20.751 -19.912  0.00  0.00    +0.176 C 
ATOM     29  C   UNL     1      35.119 -21.478 -19.187  0.00  0.00    +0.176 C 
ATOM     30  C   UNL     1      36.477 -21.298 -19.349  0.00  0.00    +0.040 C 
ATOM     31  C   UNL     1      33.131 -22.098 -18.600  0.00  0.00    +0.429 C 
ENDBRANCH  22  25
ENDBRANCH  21  22
ENDBRANCH   2  21
TORSDOF 5
ENDMDL
MODEL 4
REMARK VINA RESULT:     -11.7      1.493      2.694
REMARK  Name = 16040279
REMARK  5 active torsions:
REMARK  status: ('A' for Active; 'I' for Inactive)
REMARK    1  A    between atoms: N_2  and  C_21
REMARK    2  A    between atoms: C_3  and  C_11
REMARK    3  A    between atoms: C_4  and  N_17
REMARK    4  A    between atoms: C_21  and  C_22
REMARK    5  A    between atoms: C_22  and  C_25
REMARK                            x       y       z     vdW  Elec       q    Type
REMARK                         _______ _______ _______ _____ _____    ______ ____
ROOT
ATOM      1  O   UNL     1      35.268 -16.725 -20.228  0.00  0.00    -0.275 OA
ATOM      2  N   UNL     1      34.918 -16.890 -22.516  0.00  0.00    -0.281 N 
ATOM      3  C   UNL     1      34.187 -14.112 -22.565  0.00  0.00    +0.015 C 
ATOM      4  C   UNL     1      33.715 -15.033 -23.703  0.00  0.00    -0.041 C 
ATOM      5  C   UNL     1      34.669 -16.222 -23.792  0.00  0.00    +0.072 C 
ATOM      6  C   UNL     1      34.147 -14.902 -21.254  0.00  0.00    +0.088 C 
ATOM      7  C   UNL     1      34.859 -16.241 -21.286  0.00  0.00    +0.226 C 
ENDROOT
BRANCH   3  11
ATOM      8  F   UNL     1      34.768 -11.750 -24.027  0.00  0.00    -0.204 F 
ATOM      9  F   UNL     1      30.541 -11.548 -20.561  0.00  0.00    -0.202 F 
ATOM     10  F   UNL     1      31.213  -9.345 -22.034  0.00  0.00    -0.202 F 
ATOM     11  C   UNL     1      33.387 -12.826 -22.423  0.00  0.00    +0.006 C 
ATOM     12  C   UNL     1      33.733 -11.707 -23.176  0.00  0.00    +0.138 C 
ATOM     13  C   UNL     1      32.313 -12.777 -21.541  0.00  0.00    +0.030 C 
ATOM     14  C   UNL     1      31.576 -11.599 -21.409  0.00  0.00    +0.167 C 
ATOM     15  C   UNL     1      32.998 -10.529 -23.044  0.00  0.00    +0.061 C 
ATOM     16  C   UNL     1      31.919 -10.476 -22.161  0.00  0.00    +0.170 C 
ENDBRANCH   3  11
BRANCH   4  17
ATOM     17  N   UNL     1      33.709 -14.348 -24.998  0.00  0.00    +0.383 N 
ATOM     18  H   UNL     1      33.401 -14.996 -25.724  0.00  0.00    -0.089 HD
ATOM     19  H   UNL     1      34.652 -14.020 -25.214  0.00  0.00    -0.089 HD
ATOM     20  H   UNL     1      33.073 -13.552 -24.960  0.00  0.00    -0.089 HD
ENDBRANCH   4  17
BRANCH   2  21
ATOM     21  C   UNL     1      35.505 -18.222 -22.599  0.00  0.00    +0.098 C 
BRANCH  21  22
ATOM     22  C   UNL     1      34.462 -19.330 -22.467  0.00  0.00    +0.048 C 
BRANCH  22  25
ATOM     23  O   UNL     1      32.753 -22.009 -18.688  0.00  0.00    -0.435 OA
ATOM     24  O   UNL     1      34.965 -22.402 -17.816  0.00  0.00    -0.435 OA
ATOM     25  C   UNL     1      34.634 -20.154 -21.216  0.00  0.00    -0.017 C 
ATOM     26  C   UNL     1      33.511 -20.673 -20.587  0.00  0.00    +0.036 C 
ATOM     27  C   UNL     1      35.923 -20.373 -20.720  0.00  0.00    -0.001 C 
ATOM     28  C   UNL     1      33.719 -21.420 -19.445  0.00  0.00    +0.176 C 
ATOM     29  C   UNL     1      34.982 -21.644 -18.946  0.00  0.00    +0.176 C 
ATOM     30  C   UNL     1      36.106 -21.133 -19.562  0.00  0.00    +0.040 C 
ATOM     31  C   UNL     1      33.550 -22.630 -17.659  0.00  0.00    +0.429 C 
ENDBRANCH  22  25
ENDBRANCH  21  22
ENDBRANCH   2  21
TORSDOF 5
ENDMDL
MODEL 5
REMARK VINA RESULT:     -11.7      3.847      6.473
REMARK  Name = 16040279
REMARK  5 active torsions:
REMARK  status: ('A' for Active; 'I' for Inactive)
REMARK    1  A    between atoms: N_2  and  C_21
REMARK    2  A    between atoms: C_3  and  C_11
REMARK    3  A    between atoms: C_4  and  N_17
REMARK    4  A    between atoms: C_21  and  C_22
REMARK    5  A    between atoms: C_22  and  C_25
REMARK                            x       y       z     vdW  Elec       q    Type
REMARK                         _______ _______ _______ _____ _____    ______ ____
ROOT
ATOM      1  O   UNL     1      36.998 -22.048 -18.455  0.00  0.00    -0.275 OA
ATOM      2  N   UNL     1      34.687 -22.158 -18.637  0.00  0.00    -0.281 N 
ATOM      3  C   UNL     1      34.809 -20.284 -20.813  0.00  0.00    +0.015 C 
ATOM      4  C   UNL     1      33.491 -20.450 -20.035  0.00  0.00    -0.041 C 
ATOM      5  C   UNL     1      33.478 -21.834 -19.391  0.00  0.00    +0.072 C 
ATOM      6  C   UNL     1      35.972 -20.403 -19.824  0.00  0.00    +0.088 C 
ATOM      7  C   UNL     1      35.941 -21.631 -18.936  0.00  0.00    +0.226 C 
ENDROOT
BRANCH   3  11
ATOM      8  F   UNL     1      35.054 -20.187 -23.638  0.00  0.00    -0.204 F 
ATOM      9  F   UNL     1      34.984 -15.404 -20.986  0.00  0.00    -0.202 F 
ATOM     10  F   UNL     1      35.216 -15.458 -23.710  0.00  0.00    -0.202 F 
ATOM     11  C   UNL     1      34.919 -18.986 -21.595  0.00  0.00    +0.006 C 
ATOM     12  C   UNL     1      35.037 -19.019 -22.982  0.00  0.00    +0.138 C 
ATOM     13  C   UNL     1      34.901 -17.770 -20.918  0.00  0.00    +0.030 C 
ATOM     14  C   UNL     1      35.001 -16.576 -21.633  0.00  0.00    +0.167 C 
ATOM     15  C   UNL     1      35.138 -17.825 -23.698  0.00  0.00    +0.061 C 
ATOM     16  C   UNL     1      35.119 -16.604 -23.023  0.00  0.00    +0.170 C 
ENDBRANCH   3  11
BRANCH   4  17
ATOM     17  N   UNL     1      32.320 -20.336 -20.908  0.00  0.00    +0.383 N 
ATOM     18  H   UNL     1      31.970 -21.268 -21.131  0.00  0.00    -0.089 HD
ATOM     19  H   UNL     1      32.583 -19.856 -21.770  0.00  0.00    -0.089 HD
ATOM     20  H   UNL     1      31.590 -19.804 -20.432  0.00  0.00    -0.089 HD
ENDBRANCH   4  17
BRANCH   2  21
ATOM     21  C   UNL     1      34.580 -23.281 -17.714  0.00  0.00    +0.098 C 
BRANCH  21  22
ATOM     22  C   UNL     1      34.298 -22.835 -16.281  0.00  0.00    +0.048 C 
BRANCH  22  25
ATOM     23  O   UNL     1      29.384 -22.650 -16.732  0.00  0.00    -0.435 OA
ATOM     24  O   UNL     1      29.035 -23.934 -14.724  0.00  0.00    -0.435 OA
ATOM     25  C   UNL     1      32.892 -23.150 -15.832  0.00  0.00    -0.017 C 
ATOM     26  C   UNL     1      31.822 -22.692 -16.588  0.00  0.00    +0.036 C 
ATOM     27  C   UNL     1      32.705 -23.895 -14.664  0.00  0.00    -0.001 C 
ATOM     28  C   UNL     1      30.555 -23.005 -16.137  0.00  0.00    +0.176 C 
ATOM     29  C   UNL     1      30.356 -23.738 -14.989  0.00  0.00    +0.176 C 
ATOM     30  C   UNL     1      31.412 -24.198 -14.229  0.00  0.00    +0.040 C 
ATOM     31  C   UNL     1      28.426 -23.242 -15.832  0.00  0.00    +0.429 C 
ENDBRANCH  22  25
ENDBRANCH  21  22
ENDBRANCH   2  21
TORSDOF 5
ENDMDL
MODEL 6
REMARK VINA RESULT:     -11.6      3.807      6.560
REMARK  Name = 16040279
REMARK  5 active torsions:
REMARK  status: ('A' for Active; 'I' for Inactive)
REMARK    1  A    between atoms: N_2  and  C_21
REMARK    2  A    between atoms: C_3  and  C_11
REMARK    3  A    between atoms: C_4  and  N_17
REMARK    4  A    between atoms: C_21  and  C_22
REMARK    5  A    between atoms: C_22  and  C_25
REMARK                            x       y       z     vdW  Elec       q    Type
REMARK                         _______ _______ _______ _____ _____    ______ ____
ROOT
ATOM      1  O   UNL     1      37.077 -21.892 -18.586  0.00  0.00    -0.275 OA
ATOM      2  N   UNL     1      34.762 -22.012 -18.704  0.00  0.00    -0.281 N 
ATOM      3  C   UNL     1      34.819 -20.181 -20.918  0.00  0.00    +0.015 C 
ATOM      4  C   UNL     1      33.522 -20.336 -20.103  0.00  0.00    -0.041 C 
ATOM      5  C   UNL     1      33.531 -21.707 -19.432  0.00  0.00    +0.072 C 
ATOM      6  C   UNL     1      36.008 -20.276 -19.959  0.00  0.00    +0.088 C 
ATOM      7  C   UNL     1      36.005 -21.488 -19.046  0.00  0.00    +0.226 C 
ENDROOT
BRANCH   3  11
ATOM      8  F   UNL     1      34.981 -20.138 -23.751  0.00  0.00    -0.204 F 
ATOM      9  F   UNL     1      34.979 -15.305 -21.190  0.00  0.00    -0.202 F 
ATOM     10  F   UNL     1      35.131 -15.411 -23.918  0.00  0.00    -0.202 F 
ATOM     11  C   UNL     1      34.903 -18.898 -21.729  0.00  0.00    +0.006 C 
ATOM     12  C   UNL     1      34.980 -18.957 -23.117  0.00  0.00    +0.138 C 
ATOM     13  C   UNL     1      34.903 -17.669 -21.074  0.00  0.00    +0.030 C 
ATOM     14  C   UNL     1      34.979 -16.489 -21.815  0.00  0.00    +0.167 C 
ATOM     15  C   UNL     1      35.058 -17.777 -23.858  0.00  0.00    +0.061 C 
ATOM     16  C   UNL     1      35.057 -16.543 -23.207  0.00  0.00    +0.170 C 
ENDBRANCH   3  11
BRANCH   4  17
ATOM     17  N   UNL     1      32.328 -20.242 -20.946  0.00  0.00    +0.383 N 
ATOM     18  H   UNL     1      31.562 -20.753 -20.508  0.00  0.00    -0.089 HD
ATOM     19  H   UNL     1      32.526 -20.647 -21.863  0.00  0.00    -0.089 HD
ATOM     20  H   UNL     1      32.065 -19.263 -21.057  0.00  0.00    -0.089 HD
ENDBRANCH   4  17
BRANCH   2  21
ATOM     21  C   UNL     1      34.683 -23.117 -17.757  0.00  0.00    +0.098 C 
BRANCH  21  22
ATOM     22  C   UNL     1      33.424 -23.060 -16.894  0.00  0.00    +0.048 C 
BRANCH  22  25
ATOM     23  O   UNL     1      36.290 -24.648 -13.201  0.00  0.00    -0.435 OA
ATOM     24  O   UNL     1      34.464 -24.649 -11.630  0.00  0.00    -0.435 OA
ATOM     25  C   UNL     1      33.669 -23.482 -15.467  0.00  0.00    -0.017 C 
ATOM     26  C   UNL     1      34.947 -23.864 -15.083  0.00  0.00    +0.036 C 
ATOM     27  C   UNL     1      32.600 -23.479 -14.566  0.00  0.00    -0.001 C 
ATOM     28  C   UNL     1      35.122 -24.242 -13.768  0.00  0.00    +0.176 C 
ATOM     29  C   UNL     1      34.078 -24.243 -12.870  0.00  0.00    +0.176 C 
ATOM     30  C   UNL     1      32.803 -23.866 -13.239  0.00  0.00    +0.040 C 
ATOM     31  C   UNL     1      35.866 -24.904 -11.847  0.00  0.00    +0.429 C 
ENDBRANCH  22  25
ENDBRANCH  21  22
ENDBRANCH   2  21
TORSDOF 5
ENDMDL
MODEL 7
REMARK VINA RESULT:     -11.5      4.039      6.876
REMARK  Name = 16040279
REMARK  5 active torsions:
REMARK  status: ('A' for Active; 'I' for Inactive)
REMARK    1  A    between atoms: N_2  and  C_21
REMARK    2  A    between atoms: C_3  and  C_11
REMARK    3  A    between atoms: C_4  and  N_17
REMARK    4  A    between atoms: C_21  and  C_22
REMARK    5  A    between atoms: C_22  and  C_25
REMARK                            x       y       z     vdW  Elec       q    Type
REMARK                         _______ _______ _______ _____ _____    ______ ____
ROOT
ATOM      1  O   UNL     1      37.113 -21.979 -18.378  0.00  0.00    -0.275 OA
ATOM      2  N   UNL     1      34.795 -22.068 -18.457  0.00  0.00    -0.281 N 
ATOM      3  C   UNL     1      34.845 -20.315 -20.734  0.00  0.00    +0.015 C 
ATOM      4  C   UNL     1      33.560 -20.421 -19.895  0.00  0.00    -0.041 C 
ATOM      5  C   UNL     1      33.558 -21.768 -19.176  0.00  0.00    +0.072 C 
ATOM      6  C   UNL     1      36.048 -20.396 -19.790  0.00  0.00    +0.088 C 
ATOM      7  C   UNL     1      36.041 -21.574 -18.835  0.00  0.00    +0.226 C 
ENDROOT
BRANCH   3  11
ATOM      8  F   UNL     1      35.032 -20.376 -23.565  0.00  0.00    -0.204 F 
ATOM      9  F   UNL     1      35.007 -15.452 -21.183  0.00  0.00    -0.202 F 
ATOM     10  F   UNL     1      35.183 -15.658 -23.904  0.00  0.00    -0.202 F 
ATOM     11  C   UNL     1      34.937 -19.062 -21.590  0.00  0.00    +0.006 C 
ATOM     12  C   UNL     1      35.026 -19.172 -22.975  0.00  0.00    +0.138 C 
ATOM     13  C   UNL     1      34.931 -17.811 -20.981  0.00  0.00    +0.030 C 
ATOM     14  C   UNL     1      35.013 -16.659 -21.764  0.00  0.00    +0.167 C 
ATOM     15  C   UNL     1      35.110 -18.021 -23.758  0.00  0.00    +0.061 C 
ATOM     16  C   UNL     1      35.103 -16.764 -23.152  0.00  0.00    +0.170 C 
ENDBRANCH   3  11
BRANCH   4  17
ATOM     17  N   UNL     1      32.354 -20.339 -20.723  0.00  0.00    +0.383 N 
ATOM     18  H   UNL     1      32.478 -20.907 -21.561  0.00  0.00    -0.089 HD
ATOM     19  H   UNL     1      32.192 -19.367 -20.991  0.00  0.00    -0.089 HD
ATOM     20  H   UNL     1      31.553 -20.684 -20.194  0.00  0.00    -0.089 HD
ENDBRANCH   4  17
BRANCH   2  21
ATOM     21  C   UNL     1      34.714 -23.137 -17.470  0.00  0.00    +0.098 C 
BRANCH  21  22
ATOM     22  C   UNL     1      35.208 -22.702 -16.092  0.00  0.00    +0.048 C 
BRANCH  22  25
ATOM     23  O   UNL     1      39.489 -24.405 -14.317  0.00  0.00    -0.435 OA
ATOM     24  O   UNL     1      38.500 -26.484 -13.606  0.00  0.00    -0.435 OA
ATOM     25  C   UNL     1      36.066 -23.743 -15.418  0.00  0.00    -0.017 C 
ATOM     26  C   UNL     1      37.416 -23.484 -15.219  0.00  0.00    +0.036 C 
ATOM     27  C   UNL     1      35.480 -24.945 -15.012  0.00  0.00    -0.001 C 
ATOM     28  C   UNL     1      38.160 -24.467 -14.599  0.00  0.00    +0.176 C 
ATOM     29  C   UNL     1      37.595 -25.655 -14.193  0.00  0.00    +0.176 C 
ATOM     30  C   UNL     1      36.255 -25.924 -14.386  0.00  0.00    +0.040 C 
ATOM     31  C   UNL     1      39.698 -25.685 -13.687  0.00  0.00    +0.429 C 
ENDBRANCH  22  25
ENDBRANCH  21  22
ENDBRANCH   2  21
TORSDOF 5
ENDMDL
MODEL 8
REMARK VINA RESULT:     -11.5      3.034      5.171
REMARK  Name = 16040279
REMARK  5 active torsions:
REMARK  status: ('A' for Active; 'I' for Inactive)
REMARK    1  A    between atoms: N_2  and  C_21
REMARK    2  A    between atoms: C_3  and  C_11
REMARK    3  A    between atoms: C_4  and  N_17
REMARK    4  A    between atoms: C_21  and  C_22
REMARK    5  A    between atoms: C_22  and  C_25
REMARK                            x       y       z     vdW  Elec       q    Type
REMARK                         _______ _______ _______ _____ _____    ______ ____
ROOT
ATOM      1  O   UNL     1      33.287 -21.059 -19.532  0.00  0.00    -0.275 OA
ATOM      2  N   UNL     1      35.588 -20.944 -19.814  0.00  0.00    -0.281 N 
ATOM      3  C   UNL     1      35.268 -18.364 -21.039  0.00  0.00    +0.015 C 
ATOM      4  C   UNL     1      36.545 -19.176 -21.319  0.00  0.00    -0.041 C 
ATOM      5  C   UNL     1      36.765 -20.149 -20.163  0.00  0.00    +0.072 C 
ATOM      6  C   UNL     1      34.087 -19.334 -20.953  0.00  0.00    +0.088 C 
ATOM      7  C   UNL     1      34.281 -20.504 -20.008  0.00  0.00    +0.226 C 
ENDROOT
BRANCH   3  11
ATOM      8  F   UNL     1      34.509 -15.723 -20.330  0.00  0.00    -0.204 F 
ATOM      9  F   UNL     1      34.914 -16.840 -25.668  0.00  0.00    -0.202 F 
ATOM     10  F   UNL     1      34.191 -14.336 -24.843  0.00  0.00    -0.202 F 
ATOM     11  C   UNL     1      34.977 -17.277 -22.062  0.00  0.00    +0.006 C 
ATOM     12  C   UNL     1      34.610 -16.004 -21.636  0.00  0.00    +0.138 C 
ATOM     13  C   UNL     1      35.081 -17.564 -23.420  0.00  0.00    +0.030 C 
ATOM     14  C   UNL     1      34.815 -16.569 -24.361  0.00  0.00    +0.167 C 
ATOM     15  C   UNL     1      34.343 -15.009 -22.577  0.00  0.00    +0.061 C 
ATOM     16  C   UNL     1      34.446 -15.291 -23.940  0.00  0.00    +0.170 C 
ENDBRANCH   3  11
BRANCH   4  17
ATOM     17  N   UNL     1      37.728 -18.319 -21.432  0.00  0.00    +0.383 N 
ATOM     18  H   UNL     1      38.131 -18.172 -20.506  0.00  0.00    -0.089 HD
ATOM     19  H   UNL     1      37.459 -17.419 -21.833  0.00  0.00    -0.089 HD
ATOM     20  H   UNL     1      38.418 -18.768 -22.035  0.00  0.00    -0.089 HD
ENDBRANCH   4  17
BRANCH   2  21
ATOM     21  C   UNL     1      35.837 -22.122 -18.993  0.00  0.00    +0.098 C 
BRANCH  21  22
ATOM     22  C   UNL     1      36.804 -21.841 -17.844  0.00  0.00    +0.048 C 
BRANCH  22  25
ATOM     23  O   UNL     1      33.430 -23.818 -14.828  0.00  0.00    -0.435 OA
ATOM     24  O   UNL     1      35.029 -24.120 -13.051  0.00  0.00    -0.435 OA
ATOM     25  C   UNL     1      36.360 -22.453 -16.539  0.00  0.00    -0.017 C 
ATOM     26  C   UNL     1      35.033 -22.832 -16.385  0.00  0.00    +0.036 C 
ATOM     27  C   UNL     1      37.297 -22.621 -15.516  0.00  0.00    -0.001 C 
ATOM     28  C   UNL     1      34.674 -23.386 -15.173  0.00  0.00    +0.176 C 
ATOM     29  C   UNL     1      35.587 -23.559 -14.157  0.00  0.00    +0.176 C 
ATOM     30  C   UNL     1      36.908 -23.186 -14.298  0.00  0.00    +0.040 C 
ATOM     31  C   UNL     1      33.663 -24.282 -13.483  0.00  0.00    +0.429 C 
ENDBRANCH  22  25
ENDBRANCH  21  22
ENDBRANCH   2  21
TORSDOF 5
ENDMDL
MODEL 9
REMARK VINA RESULT:     -11.4      3.158      5.335
REMARK  Name = 16040279
REMARK  5 active torsions:
REMARK  status: ('A' for Active; 'I' for Inactive)
REMARK    1  A    between atoms: N_2  and  C_21
REMARK    2  A    between atoms: C_3  and  C_11
REMARK    3  A    between atoms: C_4  and  N_17
REMARK    4  A    between atoms: C_21  and  C_22
REMARK    5  A    between atoms: C_22  and  C_25
REMARK                            x       y       z     vdW  Elec       q    Type
REMARK                         _______ _______ _______ _____ _____    ______ ____
ROOT
ATOM      1  O   UNL     1      32.730 -21.539 -19.772  0.00  0.00    -0.275 OA
ATOM      2  N   UNL     1      35.046 -21.474 -19.638  0.00  0.00    -0.281 N 
ATOM      3  C   UNL     1      34.998 -18.836 -20.775  0.00  0.00    +0.015 C 
ATOM      4  C   UNL     1      36.289 -19.669 -20.864  0.00  0.00    -0.041 C 
ATOM      5  C   UNL     1      36.281 -20.698 -19.735  0.00  0.00    +0.072 C 
ATOM      6  C   UNL     1      33.801 -19.776 -20.945  0.00  0.00    +0.088 C 
ATOM      7  C   UNL     1      33.803 -20.991 -20.038  0.00  0.00    +0.226 C 
ENDROOT
BRANCH   3  11
ATOM      8  F   UNL     1      34.686 -16.117 -20.023  0.00  0.00    -0.204 F 
ATOM      9  F   UNL     1      34.989 -17.192 -25.377  0.00  0.00    -0.202 F 
ATOM     10  F   UNL     1      34.688 -14.617 -24.511  0.00  0.00    -0.202 F 
ATOM     11  C   UNL     1      34.914 -17.697 -21.779  0.00  0.00    +0.006 C 
ATOM     12  C   UNL     1      34.761 -16.388 -21.333  0.00  0.00    +0.138 C 
ATOM     13  C   UNL     1      34.991 -17.974 -23.141  0.00  0.00    +0.030 C 
ATOM     14  C   UNL     1      34.915 -16.931 -24.066  0.00  0.00    +0.167 C 
ATOM     15  C   UNL     1      34.683 -15.345 -22.258  0.00  0.00    +0.061 C 
ATOM     16  C   UNL     1      34.761 -15.617 -23.624  0.00  0.00    +0.170 C 
ENDBRANCH   3  11
BRANCH   4  17
ATOM     17  N   UNL     1      37.489 -18.841 -20.725  0.00  0.00    +0.383 N 
ATOM     18  H   UNL     1      37.270 -18.016 -20.166  0.00  0.00    -0.089 HD
ATOM     19  H   UNL     1      37.811 -18.551 -21.649  0.00  0.00    -0.089 HD
ATOM     20  H   UNL     1      38.223 -19.379 -20.263  0.00  0.00    -0.089 HD
ENDBRANCH   4  17
BRANCH   2  21
ATOM     21  C   UNL     1      35.123 -22.694 -18.844  0.00  0.00    +0.098 C 
BRANCH  21  22
ATOM     22  C   UNL     1      35.267 -22.411 -17.350  0.00  0.00    +0.048 C 
BRANCH  22  25
ATOM     23  O   UNL     1      33.346 -24.710 -13.425  0.00  0.00    -0.435 OA
ATOM     24  O   UNL     1      31.090 -24.452 -14.234  0.00  0.00    -0.435 OA
ATOM     25  C   UNL     1      34.117 -22.949 -16.535  0.00  0.00    -0.017 C 
ATOM     26  C   UNL     1      34.381 -23.585 -15.329  0.00  0.00    +0.036 C 
ATOM     27  C   UNL     1      32.814 -22.794 -17.017  0.00  0.00    -0.001 C 
ATOM     28  C   UNL     1      33.297 -24.061 -14.620  0.00  0.00    +0.176 C 
ATOM     29  C   UNL     1      32.008 -23.914 -15.082  0.00  0.00    +0.176 C 
ATOM     30  C   UNL     1      31.734 -23.284 -16.279  0.00  0.00    +0.040 C 
ATOM     31  C   UNL     1      31.944 -24.954 -13.186  0.00  0.00    +0.429 C 
ENDBRANCH  22  25
ENDBRANCH  21  22
ENDBRANCH   2  21
TORSDOF 5
ENDMDL
