MODEL 1
REMARK VINA RESULT:     -11.4      0.000      0.000
REMARK  Name = 46937134
REMARK  9 active torsions:
REMARK  status: ('A' for Active; 'I' for Inactive)
REMARK    1  A    between atoms: N_2  and  C_15
REMARK    2  A    between atoms: N_6  and  C_29
REMARK    3  A    between atoms: C_16  and  O_19
REMARK    4  A    between atoms: C_18  and  C_21
REMARK    5  A    between atoms: C_21  and  O_22
REMARK    6  A    between atoms: O_22  and  P_23
REMARK    7  A    between atoms: P_23  and  O_25
REMARK    8  A    between atoms: P_23  and  O_27
REMARK    9  A    between atoms: C_29  and  C_30
REMARK                            x       y       z     vdW  Elec       q    Type
REMARK                         _______ _______ _______ _____ _____    ______ ____
ROOT
ATOM      1  O   UNL     1      37.550 -22.795 -13.960  0.00  0.00    -0.208 OA
ATOM      2  N   UNL     1      33.388 -24.530 -13.659  0.00  0.00    -0.209 NA
ATOM      3  N   UNL     1      34.011 -23.553 -15.798  0.00  0.00    -0.279 N 
ATOM      4  N   UNL     1      35.318 -24.142 -12.583  0.00  0.00    -0.241 NA
ATOM      5  N   UNL     1      36.237 -22.656 -15.864  0.00  0.00    -0.301 NA
ATOM      6  N   UNL     1      34.809 -22.584 -17.711  0.00  0.00    -0.292 N 
ATOM      7  C   UNL     1      34.218 -23.907 -14.526  0.00  0.00    +0.191 C 
ATOM      8  C   UNL     1      34.102 -24.651 -12.488  0.00  0.00    +0.205 C 
ATOM      9  C   UNL     1      35.389 -23.675 -13.866  0.00  0.00    +0.183 C 
ATOM     10  C   UNL     1      35.075 -22.917 -16.434  0.00  0.00    +0.248 C 
ATOM     11  C   UNL     1      36.491 -23.013 -14.534  0.00  0.00    +0.224 C 
ATOM     12  H   UNL     1      33.157 -23.730 -16.257  0.00  0.00    +0.152 HD
ATOM     13  H   UNL     1      33.924 -22.804 -18.079  0.00  0.00    +0.151 HD
ENDROOT
BRANCH   2  15
ATOM     14  O   UNL     1      31.480 -24.595 -15.188  0.00  0.00    -0.338 OA
ATOM     15  C   UNL     1      31.975 -25.001 -13.898  0.00  0.00    +0.182 C 
ATOM     16  C   UNL     1      29.682 -24.512 -13.634  0.00  0.00    +0.144 C 
ATOM     17  C   UNL     1      30.984 -24.466 -12.869  0.00  0.00    +0.079 C 
ATOM     18  C   UNL     1      30.108 -24.173 -15.057  0.00  0.00    +0.174 C 
BRANCH  16  19
ATOM     19  O   UNL     1      29.179 -25.845 -13.590  0.00  0.00    -0.382 OA
ATOM     20  H   UNL     1      28.361 -25.865 -13.068  0.00  0.00    +0.210 HD
ENDBRANCH  16  19
BRANCH  18  21
ATOM     21  C   UNL     1      30.046 -22.680 -15.350  0.00  0.00    +0.186 C 
BRANCH  21  22
ATOM     22  O   UNL     1      29.285 -22.480 -16.529  0.00  0.00    -0.271 OA
BRANCH  22  23
ATOM     23  P   UNL     1      27.684 -22.712 -16.464  0.00  0.00    +0.473 P 
ATOM     24  O   UNL     1      27.103 -22.731 -15.080  0.00  0.00    -0.227 OA
BRANCH  23  25
ATOM     25  O   UNL     1      27.111 -21.549 -17.429  0.00  0.00    -0.303 OA
ATOM     26  H   UNL     1      26.232 -21.275 -17.120  0.00  0.00    +0.222 HD
ENDBRANCH  23  25
BRANCH  23  27
ATOM     27  O   UNL     1      27.456 -24.060 -17.328  0.00  0.00    -0.303 OA
ATOM     28  H   UNL     1      28.033 -24.762 -16.990  0.00  0.00    +0.222 HD
ENDBRANCH  23  27
ENDBRANCH  22  23
ENDBRANCH  21  22
ENDBRANCH  18  21
ENDBRANCH   2  15
BRANCH   6  29
ATOM     29  C   UNL     1      35.766 -21.916 -18.564  0.00  0.00    +0.117 C 
BRANCH  29  30
ATOM     30  C   UNL     1      35.067 -21.063 -19.577  0.00  0.00    -0.003 C 
ATOM     31  C   UNL     1      35.761 -20.145 -20.382  0.00  0.00    -0.002 C 
ATOM     32  C   UNL     1      35.043 -19.366 -21.322  0.00  0.00    -0.000 C 
ATOM     33  C   UNL     1      33.686 -21.213 -19.698  0.00  0.00    -0.003 C 
ATOM     34  C   UNL     1      37.151 -19.980 -20.276  0.00  0.00    -0.000 C 
ATOM     35  C   UNL     1      33.652 -19.530 -21.428  0.00  0.00    -0.000 C 
ATOM     36  C   UNL     1      32.979 -20.448 -20.621  0.00  0.00    -0.000 C 
ATOM     37  C   UNL     1      35.736 -18.447 -22.126  0.00  0.00    -0.000 C 
ATOM     38  C   UNL     1      37.824 -19.063 -21.082  0.00  0.00    -0.000 C 
ATOM     39  C   UNL     1      37.117 -18.298 -22.006  0.00  0.00    -0.000 C 
ENDBRANCH  29  30
ENDBRANCH   6  29
TORSDOF 9
ENDMDL
MODEL 2
REMARK VINA RESULT:     -10.5      3.013      6.323
REMARK  Name = 46937134
REMARK  9 active torsions:
REMARK  status: ('A' for Active; 'I' for Inactive)
REMARK    1  A    between atoms: N_2  and  C_15
REMARK    2  A    between atoms: N_6  and  C_29
REMARK    3  A    between atoms: C_16  and  O_19
REMARK    4  A    between atoms: C_18  and  C_21
REMARK    5  A    between atoms: C_21  and  O_22
REMARK    6  A    between atoms: O_22  and  P_23
REMARK    7  A    between atoms: P_23  and  O_25
REMARK    8  A    between atoms: P_23  and  O_27
REMARK    9  A    between atoms: C_29  and  C_30
REMARK                            x       y       z     vdW  Elec       q    Type
REMARK                         _______ _______ _______ _____ _____    ______ ____
ROOT
ATOM      1  O   UNL     1      30.940 -23.168 -16.795  0.00  0.00    -0.208 OA
ATOM      2  N   UNL     1      34.117 -23.748 -13.633  0.00  0.00    -0.209 NA
ATOM      3  N   UNL     1      34.879 -23.018 -15.825  0.00  0.00    -0.279 N 
ATOM      4  N   UNL     1      31.925 -23.852 -14.102  0.00  0.00    -0.241 NA
ATOM      5  N   UNL     1      33.125 -22.738 -17.440  0.00  0.00    -0.301 NA
ATOM      6  N   UNL     1      35.366 -22.337 -17.955  0.00  0.00    -0.292 N 
ATOM      7  C   UNL     1      33.961 -23.384 -14.927  0.00  0.00    +0.191 C 
ATOM      8  C   UNL     1      32.849 -24.024 -13.173  0.00  0.00    +0.205 C 
ATOM      9  C   UNL     1      32.627 -23.450 -15.204  0.00  0.00    +0.183 C 
ATOM     10  C   UNL     1      34.398 -22.699 -17.092  0.00  0.00    +0.248 C 
ATOM     11  C   UNL     1      32.134 -23.116 -16.525  0.00  0.00    +0.224 C 
ATOM     12  H   UNL     1      35.838 -22.977 -15.604  0.00  0.00    +0.152 HD
ATOM     13  H   UNL     1      36.298 -22.328 -17.638  0.00  0.00    +0.151 HD
ENDROOT
BRANCH   2  15
ATOM     14  O   UNL     1      36.554 -23.948 -13.691  0.00  0.00    -0.338 OA
ATOM     15  C   UNL     1      35.397 -23.840 -12.841  0.00  0.00    +0.182 C 
ATOM     16  C   UNL     1      36.922 -25.276 -11.753  0.00  0.00    +0.144 C 
ATOM     17  C   UNL     1      35.436 -25.046 -11.907  0.00  0.00    +0.079 C 
ATOM     18  C   UNL     1      37.470 -24.907 -13.126  0.00  0.00    +0.174 C 
BRANCH  16  19
ATOM     19  O   UNL     1      37.422 -24.363 -10.778  0.00  0.00    -0.382 OA
ATOM     20  H   UNL     1      38.093 -24.806 -10.235  0.00  0.00    +0.210 HD
ENDBRANCH  16  19
BRANCH  18  21
ATOM     21  C   UNL     1      37.542 -26.100 -14.070  0.00  0.00    +0.186 C 
BRANCH  21  22
ATOM     22  O   UNL     1      38.892 -26.520 -14.168  0.00  0.00    -0.271 OA
BRANCH  22  23
ATOM     23  P   UNL     1      40.005 -25.441 -14.636  0.00  0.00    +0.473 P 
ATOM     24  O   UNL     1      40.959 -25.010 -13.561  0.00  0.00    -0.227 OA
BRANCH  23  25
ATOM     25  O   UNL     1      40.692 -26.160 -15.911  0.00  0.00    -0.303 OA
ATOM     26  H   UNL     1      40.340 -25.773 -16.728  0.00  0.00    +0.222 HD
ENDBRANCH  23  25
BRANCH  23  27
ATOM     27  O   UNL     1      39.131 -24.255 -15.302  0.00  0.00    -0.303 OA
ATOM     28  H   UNL     1      39.413 -24.123 -16.221  0.00  0.00    +0.222 HD
ENDBRANCH  23  27
ENDBRANCH  22  23
ENDBRANCH  21  22
ENDBRANCH  18  21
ENDBRANCH   2  15
BRANCH   6  29
ATOM     29  C   UNL     1      35.100 -21.964 -19.325  0.00  0.00    +0.117 C 
BRANCH  29  30
ATOM     30  C   UNL     1      35.948 -20.799 -19.732  0.00  0.00    -0.003 C 
ATOM     31  C   UNL     1      35.665 -20.034 -20.875  0.00  0.00    -0.002 C 
ATOM     32  C   UNL     1      36.506 -18.945 -21.206  0.00  0.00    -0.000 C 
ATOM     33  C   UNL     1      37.044 -20.492 -18.925  0.00  0.00    -0.003 C 
ATOM     34  C   UNL     1      34.566 -20.327 -21.699  0.00  0.00    -0.000 C 
ATOM     35  C   UNL     1      37.606 -18.652 -20.384  0.00  0.00    -0.000 C 
ATOM     36  C   UNL     1      37.871 -19.422 -19.250  0.00  0.00    -0.000 C 
ATOM     37  C   UNL     1      36.223 -18.181 -22.351  0.00  0.00    -0.000 C 
ATOM     38  C   UNL     1      34.299 -19.558 -22.832  0.00  0.00    -0.000 C 
ATOM     39  C   UNL     1      35.126 -18.487 -23.156  0.00  0.00    -0.000 C 
ENDBRANCH  29  30
ENDBRANCH   6  29
TORSDOF 9
ENDMDL
MODEL 3
REMARK VINA RESULT:     -10.4     11.893     15.038
REMARK  Name = 46937134
REMARK  9 active torsions:
REMARK  status: ('A' for Active; 'I' for Inactive)
REMARK    1  A    between atoms: N_2  and  C_15
REMARK    2  A    between atoms: N_6  and  C_29
REMARK    3  A    between atoms: C_16  and  O_19
REMARK    4  A    between atoms: C_18  and  C_21
REMARK    5  A    between atoms: C_21  and  O_22
REMARK    6  A    between atoms: O_22  and  P_23
REMARK    7  A    between atoms: P_23  and  O_25
REMARK    8  A    between atoms: P_23  and  O_27
REMARK    9  A    between atoms: C_29  and  C_30
REMARK                            x       y       z     vdW  Elec       q    Type
REMARK                         _______ _______ _______ _____ _____    ______ ____
ROOT
ATOM      1  O   UNL     1      31.706  -8.778 -18.711  0.00  0.00    -0.208 OA
ATOM      2  N   UNL     1      32.305 -12.179 -21.627  0.00  0.00    -0.209 NA
ATOM      3  N   UNL     1      32.615  -9.928 -22.496  0.00  0.00    -0.279 N 
ATOM      4  N   UNL     1      31.795 -11.613 -19.516  0.00  0.00    -0.241 NA
ATOM      5  N   UNL     1      32.275  -8.188 -20.878  0.00  0.00    -0.301 NA
ATOM      6  N   UNL     1      32.853  -7.732 -23.094  0.00  0.00    -0.292 N 
ATOM      7  C   UNL     1      32.340 -10.829 -21.549  0.00  0.00    +0.191 C 
ATOM      8  C   UNL     1      31.969 -12.612 -20.364  0.00  0.00    +0.205 C 
ATOM      9  C   UNL     1      32.030 -10.493 -20.264  0.00  0.00    +0.183 C 
ATOM     10  C   UNL     1      32.567  -8.594 -22.100  0.00  0.00    +0.248 C 
ATOM     11  C   UNL     1      31.982  -9.102 -19.859  0.00  0.00    +0.224 C 
ATOM     12  H   UNL     1      32.837 -10.192 -23.419  0.00  0.00    +0.152 HD
ATOM     13  H   UNL     1      33.062  -8.095 -23.985  0.00  0.00    +0.151 HD
ENDROOT
BRANCH   2  15
ATOM     14  O   UNL     1      32.687 -14.440 -22.475  0.00  0.00    -0.338 OA
ATOM     15  C   UNL     1      32.573 -13.049 -22.829  0.00  0.00    +0.182 C 
ATOM     16  C   UNL     1      34.221 -13.985 -24.235  0.00  0.00    +0.144 C 
ATOM     17  C   UNL     1      33.863 -12.683 -23.557  0.00  0.00    +0.079 C 
ATOM     18  C   UNL     1      33.765 -15.034 -23.228  0.00  0.00    +0.174 C 
BRANCH  16  19
ATOM     19  O   UNL     1      33.448 -14.101 -25.428  0.00  0.00    -0.382 OA
ATOM     20  H   UNL     1      33.215 -13.215 -25.749  0.00  0.00    +0.210 HD
ENDBRANCH  16  19
BRANCH  18  21
ATOM     21  C   UNL     1      34.863 -15.423 -22.247  0.00  0.00    +0.186 C 
BRANCH  21  22
ATOM     22  O   UNL     1      35.686 -16.404 -22.855  0.00  0.00    -0.271 OA
BRANCH  22  23
ATOM     23  P   UNL     1      35.612 -17.924 -22.304  0.00  0.00    +0.473 P 
ATOM     24  O   UNL     1      34.736 -18.845 -23.103  0.00  0.00    -0.227 OA
BRANCH  23  25
ATOM     25  O   UNL     1      37.167 -18.358 -22.228  0.00  0.00    -0.303 OA
ATOM     26  H   UNL     1      37.725 -17.564 -22.240  0.00  0.00    +0.222 HD
ENDBRANCH  23  25
BRANCH  23  27
ATOM     27  O   UNL     1      35.197 -17.749 -20.751  0.00  0.00    -0.303 OA
ATOM     28  H   UNL     1      35.001 -18.619 -20.369  0.00  0.00    +0.222 HD
ENDBRANCH  23  27
ENDBRANCH  22  23
ENDBRANCH  21  22
ENDBRANCH  18  21
ENDBRANCH   2  15
BRANCH   6  29
ATOM     29  C   UNL     1      32.864  -6.299 -22.914  0.00  0.00    +0.117 C 
BRANCH  29  30
ATOM     30  C   UNL     1      33.414  -5.615 -24.127  0.00  0.00    -0.003 C 
ATOM     31  C   UNL     1      32.769  -4.517 -24.720  0.00  0.00    -0.002 C 
ATOM     32  C   UNL     1      33.340  -3.915 -25.867  0.00  0.00    -0.000 C 
ATOM     33  C   UNL     1      34.605  -6.111 -24.657  0.00  0.00    -0.003 C 
ATOM     34  C   UNL     1      31.570  -4.004 -24.201  0.00  0.00    -0.000 C 
ATOM     35  C   UNL     1      34.539  -4.429 -26.387  0.00  0.00    -0.000 C 
ATOM     36  C   UNL     1      35.167  -5.520 -25.784  0.00  0.00    -0.000 C 
ATOM     37  C   UNL     1      32.695  -2.818 -26.461  0.00  0.00    -0.000 C 
ATOM     38  C   UNL     1      30.942  -2.914 -24.803  0.00  0.00    -0.000 C 
ATOM     39  C   UNL     1      31.504  -2.322 -25.930  0.00  0.00    -0.000 C 
ENDBRANCH  29  30
ENDBRANCH   6  29
TORSDOF 9
ENDMDL
MODEL 4
REMARK VINA RESULT:     -10.3      0.781      2.208
REMARK  Name = 46937134
REMARK  9 active torsions:
REMARK  status: ('A' for Active; 'I' for Inactive)
REMARK    1  A    between atoms: N_2  and  C_15
REMARK    2  A    between atoms: N_6  and  C_29
REMARK    3  A    between atoms: C_16  and  O_19
REMARK    4  A    between atoms: C_18  and  C_21
REMARK    5  A    between atoms: C_21  and  O_22
REMARK    6  A    between atoms: O_22  and  P_23
REMARK    7  A    between atoms: P_23  and  O_25
REMARK    8  A    between atoms: P_23  and  O_27
REMARK    9  A    between atoms: C_29  and  C_30
REMARK                            x       y       z     vdW  Elec       q    Type
REMARK                         _______ _______ _______ _____ _____    ______ ____
ROOT
ATOM      1  O   UNL     1      37.693 -22.574 -13.046  0.00  0.00    -0.208 OA
ATOM      2  N   UNL     1      33.655 -24.508 -13.662  0.00  0.00    -0.209 NA
ATOM      3  N   UNL     1      34.726 -23.568 -15.632  0.00  0.00    -0.279 N 
ATOM      4  N   UNL     1      35.256 -23.989 -12.178  0.00  0.00    -0.241 NA
ATOM      5  N   UNL     1      36.864 -22.561 -15.210  0.00  0.00    -0.301 NA
ATOM      6  N   UNL     1      35.915 -22.619 -17.342  0.00  0.00    -0.292 N 
ATOM      7  C   UNL     1      34.640 -23.871 -14.334  0.00  0.00    +0.191 C 
ATOM      8  C   UNL     1      34.075 -24.556 -12.351  0.00  0.00    +0.205 C 
ATOM      9  C   UNL     1      35.610 -23.559 -13.427  0.00  0.00    +0.183 C 
ATOM     10  C   UNL     1      35.883 -22.899 -16.026  0.00  0.00    +0.248 C 
ATOM     11  C   UNL     1      36.810 -22.863 -13.844  0.00  0.00    +0.224 C 
ATOM     12  H   UNL     1      34.014 -23.802 -16.272  0.00  0.00    +0.152 HD
ATOM     13  H   UNL     1      35.152 -22.896 -17.900  0.00  0.00    +0.151 HD
ENDROOT
BRANCH   2  15
ATOM     14  O   UNL     1      31.916 -24.340 -15.373  0.00  0.00    -0.338 OA
ATOM     15  C   UNL     1      32.361 -25.058 -14.206  0.00  0.00    +0.182 C 
ATOM     16  C   UNL     1      30.004 -24.969 -14.107  0.00  0.00    +0.144 C 
ATOM     17  C   UNL     1      31.214 -24.995 -13.202  0.00  0.00    +0.079 C 
ATOM     18  C   UNL     1      30.488 -24.157 -15.302  0.00  0.00    +0.174 C 
BRANCH  16  19
ATOM     19  O   UNL     1      29.719 -26.303 -14.520  0.00  0.00    -0.382 OA
ATOM     20  H   UNL     1      30.438 -26.627 -15.085  0.00  0.00    +0.210 HD
ENDBRANCH  16  19
BRANCH  18  21
ATOM     21  C   UNL     1      30.213 -22.666 -15.150  0.00  0.00    +0.186 C 
BRANCH  21  22
ATOM     22  O   UNL     1      29.473 -22.225 -16.275  0.00  0.00    -0.271 OA
BRANCH  22  23
ATOM     23  P   UNL     1      27.950 -22.746 -16.451  0.00  0.00    +0.473 P 
ATOM     24  O   UNL     1      27.808 -24.061 -17.160  0.00  0.00    -0.227 OA
BRANCH  23  25
ATOM     25  O   UNL     1      27.383 -22.722 -14.937  0.00  0.00    -0.303 OA
ATOM     26  H   UNL     1      27.827 -23.409 -14.415  0.00  0.00    +0.222 HD
ENDBRANCH  23  25
BRANCH  23  27
ATOM     27  O   UNL     1      27.197 -21.498 -17.151  0.00  0.00    -0.303 OA
ATOM     28  H   UNL     1      27.468 -20.673 -16.719  0.00  0.00    +0.222 HD
ENDBRANCH  23  27
ENDBRANCH  22  23
ENDBRANCH  21  22
ENDBRANCH  18  21
ENDBRANCH   2  15
BRANCH   6  29
ATOM     29  C   UNL     1      37.017 -21.930 -17.974  0.00  0.00    +0.117 C 
BRANCH  29  30
ATOM     30  C   UNL     1      36.527 -21.040 -19.073  0.00  0.00    -0.003 C 
ATOM     31  C   UNL     1      35.172 -20.987 -19.441  0.00  0.00    -0.002 C 
ATOM     32  C   UNL     1      34.772 -20.124 -20.489  0.00  0.00    -0.000 C 
ATOM     33  C   UNL     1      37.473 -20.252 -19.728  0.00  0.00    -0.003 C 
ATOM     34  C   UNL     1      34.206 -21.772 -18.793  0.00  0.00    -0.000 C 
ATOM     35  C   UNL     1      35.739 -19.339 -21.139  0.00  0.00    -0.000 C 
ATOM     36  C   UNL     1      37.080 -19.403 -20.759  0.00  0.00    -0.000 C 
ATOM     37  C   UNL     1      33.418 -20.072 -20.858  0.00  0.00    -0.000 C 
ATOM     38  C   UNL     1      32.865 -21.709 -19.171  0.00  0.00    -0.000 C 
ATOM     39  C   UNL     1      32.472 -20.859 -20.202  0.00  0.00    -0.000 C 
ENDBRANCH  29  30
ENDBRANCH   6  29
TORSDOF 9
ENDMDL
MODEL 5
REMARK VINA RESULT:     -10.2     11.076     14.210
REMARK  Name = 46937134
REMARK  9 active torsions:
REMARK  status: ('A' for Active; 'I' for Inactive)
REMARK    1  A    between atoms: N_2  and  C_15
REMARK    2  A    between atoms: N_6  and  C_29
REMARK    3  A    between atoms: C_16  and  O_19
REMARK    4  A    between atoms: C_18  and  C_21
REMARK    5  A    between atoms: C_21  and  O_22
REMARK    6  A    between atoms: O_22  and  P_23
REMARK    7  A    between atoms: P_23  and  O_25
REMARK    8  A    between atoms: P_23  and  O_27
REMARK    9  A    between atoms: C_29  and  C_30
REMARK                            x       y       z     vdW  Elec       q    Type
REMARK                         _______ _______ _______ _____ _____    ______ ____
ROOT
ATOM      1  O   UNL     1      31.439 -10.760 -18.094  0.00  0.00    -0.208 OA
ATOM      2  N   UNL     1      32.454 -13.017 -21.876  0.00  0.00    -0.209 NA
ATOM      3  N   UNL     1      32.231 -10.603 -22.073  0.00  0.00    -0.279 N 
ATOM      4  N   UNL     1      32.025 -13.176 -19.679  0.00  0.00    -0.241 NA
ATOM      5  N   UNL     1      31.689  -9.489 -20.016  0.00  0.00    -0.301 NA
ATOM      6  N   UNL     1      31.972  -8.330 -22.023  0.00  0.00    -0.292 N 
ATOM      7  C   UNL     1      32.224 -11.766 -21.416  0.00  0.00    +0.191 C 
ATOM      8  C   UNL     1      32.322 -13.842 -20.782  0.00  0.00    +0.205 C 
ATOM      9  C   UNL     1      31.965 -11.871 -20.081  0.00  0.00    +0.183 C 
ATOM     10  C   UNL     1      31.951  -9.472 -21.310  0.00  0.00    +0.248 C 
ATOM     11  C   UNL     1      31.674 -10.689 -19.294  0.00  0.00    +0.224 C 
ATOM     12  H   UNL     1      32.421 -10.549 -23.038  0.00  0.00    +0.152 HD
ATOM     13  H   UNL     1      32.173  -8.381 -22.986  0.00  0.00    +0.151 HD
ENDROOT
BRANCH   2  15
ATOM     14  O   UNL     1      32.974 -14.869 -23.386  0.00  0.00    -0.338 OA
ATOM     15  C   UNL     1      32.787 -13.445 -23.283  0.00  0.00    +0.182 C 
ATOM     16  C   UNL     1      34.504 -13.803 -24.862  0.00  0.00    +0.144 C 
ATOM     17  C   UNL     1      34.064 -12.804 -23.817  0.00  0.00    +0.079 C 
ATOM     18  C   UNL     1      34.094 -15.139 -24.254  0.00  0.00    +0.174 C 
BRANCH  16  19
ATOM     19  O   UNL     1      33.755 -13.571 -26.053  0.00  0.00    -0.382 OA
ATOM     20  H   UNL     1      33.223 -14.356 -26.259  0.00  0.00    +0.210 HD
ENDBRANCH  16  19
BRANCH  18  21
ATOM     21  C   UNL     1      35.198 -15.766 -23.414  0.00  0.00    +0.186 C 
BRANCH  21  22
ATOM     22  O   UNL     1      35.017 -17.172 -23.404  0.00  0.00    -0.271 OA
BRANCH  22  23
ATOM     23  P   UNL     1      35.488 -18.002 -22.096  0.00  0.00    +0.473 P 
ATOM     24  O   UNL     1      35.257 -17.307 -20.787  0.00  0.00    -0.227 OA
BRANCH  23  25
ATOM     25  O   UNL     1      34.717 -19.413 -22.266  0.00  0.00    -0.303 OA
ATOM     26  H   UNL     1      35.361 -20.138 -22.245  0.00  0.00    +0.222 HD
ENDBRANCH  23  25
BRANCH  23  27
ATOM     27  O   UNL     1      37.028 -18.379 -22.417  0.00  0.00    -0.303 OA
ATOM     28  H   UNL     1      37.102 -19.333 -22.574  0.00  0.00    +0.222 HD
ENDBRANCH  23  27
ENDBRANCH  22  23
ENDBRANCH  21  22
ENDBRANCH  18  21
ENDBRANCH   2  15
BRANCH   6  29
ATOM     29  C   UNL     1      31.712  -7.034 -21.441  0.00  0.00    +0.117 C 
BRANCH  29  30
ATOM     30  C   UNL     1      31.801  -5.958 -22.478  0.00  0.00    -0.003 C 
ATOM     31  C   UNL     1      32.854  -5.904 -23.406  0.00  0.00    -0.002 C 
ATOM     32  C   UNL     1      32.882  -4.860 -24.362  0.00  0.00    -0.000 C 
ATOM     33  C   UNL     1      30.790  -4.997 -22.493  0.00  0.00    -0.003 C 
ATOM     34  C   UNL     1      33.880  -6.862 -23.407  0.00  0.00    -0.000 C 
ATOM     35  C   UNL     1      31.856  -3.901 -24.361  0.00  0.00    -0.000 C 
ATOM     36  C   UNL     1      30.817  -3.971 -23.432  0.00  0.00    -0.000 C 
ATOM     37  C   UNL     1      33.935  -4.805 -25.290  0.00  0.00    -0.000 C 
ATOM     38  C   UNL     1      34.919  -6.793 -24.335  0.00  0.00    -0.000 C 
ATOM     39  C   UNL     1      34.945  -5.766 -25.275  0.00  0.00    -0.000 C 
ENDBRANCH  29  30
ENDBRANCH   6  29
TORSDOF 9
ENDMDL
MODEL 6
REMARK VINA RESULT:      -9.3      8.526     11.768
REMARK  Name = 46937134
REMARK  9 active torsions:
REMARK  status: ('A' for Active; 'I' for Inactive)
REMARK    1  A    between atoms: N_2  and  C_15
REMARK    2  A    between atoms: N_6  and  C_29
REMARK    3  A    between atoms: C_16  and  O_19
REMARK    4  A    between atoms: C_18  and  C_21
REMARK    5  A    between atoms: C_21  and  O_22
REMARK    6  A    between atoms: O_22  and  P_23
REMARK    7  A    between atoms: P_23  and  O_25
REMARK    8  A    between atoms: P_23  and  O_27
REMARK    9  A    between atoms: C_29  and  C_30
REMARK                            x       y       z     vdW  Elec       q    Type
REMARK                         _______ _______ _______ _____ _____    ______ ____
ROOT
ATOM      1  O   UNL     1      35.318 -16.448 -25.498  0.00  0.00    -0.208 OA
ATOM      2  N   UNL     1      32.987 -13.703 -22.767  0.00  0.00    -0.209 NA
ATOM      3  N   UNL     1      33.845 -15.754 -21.780  0.00  0.00    -0.279 N 
ATOM      4  N   UNL     1      33.773 -14.024 -24.844  0.00  0.00    -0.241 NA
ATOM      5  N   UNL     1      35.067 -17.149 -23.303  0.00  0.00    -0.301 NA
ATOM      6  N   UNL     1      34.742 -17.734 -21.066  0.00  0.00    -0.292 N 
ATOM      7  C   UNL     1      33.648 -14.883 -22.773  0.00  0.00    +0.191 C 
ATOM      8  C   UNL     1      33.090 -13.217 -24.051  0.00  0.00    +0.205 C 
ATOM      9  C   UNL     1      34.123 -15.070 -24.038  0.00  0.00    +0.183 C 
ATOM     10  C   UNL     1      34.576 -16.894 -22.105  0.00  0.00    +0.248 C 
ATOM     11  C   UNL     1      34.882 -16.259 -24.369  0.00  0.00    +0.224 C 
ATOM     12  H   UNL     1      33.493 -15.599 -20.872  0.00  0.00    +0.152 HD
ATOM     13  H   UNL     1      34.351 -17.489 -20.197  0.00  0.00    +0.151 HD
ENDROOT
BRANCH   2  15
ATOM     14  O   UNL     1      31.361 -12.021 -22.056  0.00  0.00    -0.338 OA
ATOM     15  C   UNL     1      32.278 -13.039 -21.613  0.00  0.00    +0.182 C 
ATOM     16  C   UNL     1      32.349 -11.304 -20.014  0.00  0.00    +0.144 C 
ATOM     17  C   UNL     1      33.233 -12.361 -20.635  0.00  0.00    +0.079 C 
ATOM     18  C   UNL     1      31.451 -10.885 -21.172  0.00  0.00    +0.174 C 
BRANCH  16  19
ATOM     19  O   UNL     1      31.561 -11.915 -18.996  0.00  0.00    -0.382 OA
ATOM     20  H   UNL     1      32.133 -12.445 -18.419  0.00  0.00    +0.210 HD
ENDBRANCH  16  19
BRANCH  18  21
ATOM     21  C   UNL     1      32.023  -9.718 -21.966  0.00  0.00    +0.186 C 
BRANCH  21  22
ATOM     22  O   UNL     1      31.631  -8.508 -21.340  0.00  0.00    -0.271 OA
BRANCH  22  23
ATOM     23  P   UNL     1      32.776  -7.428 -20.962  0.00  0.00    +0.473 P 
ATOM     24  O   UNL     1      33.904  -7.329 -21.947  0.00  0.00    -0.227 OA
BRANCH  23  25
ATOM     25  O   UNL     1      31.932  -6.065 -20.752  0.00  0.00    -0.303 OA
ATOM     26  H   UNL     1      32.544  -5.324 -20.611  0.00  0.00    +0.222 HD
ENDBRANCH  23  25
BRANCH  23  27
ATOM     27  O   UNL     1      33.206  -7.835 -19.457  0.00  0.00    -0.303 OA
ATOM     28  H   UNL     1      32.935  -7.135 -18.843  0.00  0.00    +0.222 HD
ENDBRANCH  23  27
ENDBRANCH  22  23
ENDBRANCH  21  22
ENDBRANCH  18  21
ENDBRANCH   2  15
BRANCH   6  29
ATOM     29  C   UNL     1      35.468 -18.979 -21.171  0.00  0.00    +0.117 C 
BRANCH  29  30
ATOM     30  C   UNL     1      34.795 -20.054 -20.375  0.00  0.00    -0.003 C 
ATOM     31  C   UNL     1      35.469 -20.772 -19.374  0.00  0.00    -0.002 C 
ATOM     32  C   UNL     1      34.776 -21.777 -18.657  0.00  0.00    -0.000 C 
ATOM     33  C   UNL     1      33.457 -20.322 -20.663  0.00  0.00    -0.003 C 
ATOM     34  C   UNL     1      36.816 -20.517 -19.069  0.00  0.00    -0.000 C 
ATOM     35  C   UNL     1      33.430 -22.034 -18.962  0.00  0.00    -0.000 C 
ATOM     36  C   UNL     1      32.775 -21.309 -19.959  0.00  0.00    -0.000 C 
ATOM     37  C   UNL     1      35.451 -22.497 -17.657  0.00  0.00    -0.000 C 
ATOM     38  C   UNL     1      37.470 -21.241 -18.072  0.00  0.00    -0.000 C 
ATOM     39  C   UNL     1      36.788 -22.228 -17.367  0.00  0.00    -0.000 C 
ENDBRANCH  29  30
ENDBRANCH   6  29
TORSDOF 9
ENDMDL
MODEL 7
REMARK VINA RESULT:      -9.3      2.979      6.013
REMARK  Name = 46937134
REMARK  9 active torsions:
REMARK  status: ('A' for Active; 'I' for Inactive)
REMARK    1  A    between atoms: N_2  and  C_15
REMARK    2  A    between atoms: N_6  and  C_29
REMARK    3  A    between atoms: C_16  and  O_19
REMARK    4  A    between atoms: C_18  and  C_21
REMARK    5  A    between atoms: C_21  and  O_22
REMARK    6  A    between atoms: O_22  and  P_23
REMARK    7  A    between atoms: P_23  and  O_25
REMARK    8  A    between atoms: P_23  and  O_27
REMARK    9  A    between atoms: C_29  and  C_30
REMARK                            x       y       z     vdW  Elec       q    Type
REMARK                         _______ _______ _______ _____ _____    ______ ____
ROOT
ATOM      1  O   UNL     1      31.148 -22.499 -16.753  0.00  0.00    -0.208 OA
ATOM      2  N   UNL     1      34.913 -24.500 -15.253  0.00  0.00    -0.209 NA
ATOM      3  N   UNL     1      35.100 -23.232 -17.321  0.00  0.00    -0.279 N 
ATOM      4  N   UNL     1      32.731 -24.134 -14.879  0.00  0.00    -0.241 NA
ATOM      5  N   UNL     1      33.052 -22.207 -18.041  0.00  0.00    -0.301 NA
ATOM      6  N   UNL     1      35.043 -21.991 -19.243  0.00  0.00    -0.292 N 
ATOM      7  C   UNL     1      34.452 -23.727 -16.263  0.00  0.00    +0.191 C 
ATOM      8  C   UNL     1      33.829 -24.721 -14.435  0.00  0.00    +0.205 C 
ATOM      9  C   UNL     1      33.126 -23.509 -16.028  0.00  0.00    +0.183 C 
ATOM     10  C   UNL     1      34.338 -22.463 -18.197  0.00  0.00    +0.248 C 
ATOM     11  C   UNL     1      32.340 -22.708 -16.945  0.00  0.00    +0.224 C 
ATOM     12  H   UNL     1      36.059 -23.402 -17.472  0.00  0.00    +0.152 HD
ATOM     13  H   UNL     1      35.999 -22.217 -19.305  0.00  0.00    +0.151 HD
ENDROOT
BRANCH   2  15
ATOM     14  O   UNL     1      36.331 -26.214 -14.239  0.00  0.00    -0.338 OA
ATOM     15  C   UNL     1      36.313 -25.021 -15.045  0.00  0.00    +0.182 C 
ATOM     16  C   UNL     1      38.257 -24.922 -13.710  0.00  0.00    +0.144 C 
ATOM     17  C   UNL     1      37.228 -24.018 -14.349  0.00  0.00    +0.079 C 
ATOM     18  C   UNL     1      37.440 -26.148 -13.320  0.00  0.00    +0.174 C 
BRANCH  16  19
ATOM     19  O   UNL     1      39.218 -25.283 -14.699  0.00  0.00    -0.382 OA
ATOM     20  H   UNL     1      39.438 -24.504 -15.235  0.00  0.00    +0.210 HD
ENDBRANCH  16  19
BRANCH  18  21
ATOM     21  C   UNL     1      36.875 -26.054 -11.909  0.00  0.00    +0.186 C 
BRANCH  21  22
ATOM     22  O   UNL     1      37.521 -24.988 -11.233  0.00  0.00    -0.271 OA
BRANCH  22  23
ATOM     23  P   UNL     1      36.618 -23.758 -10.690  0.00  0.00    +0.473 P 
ATOM     24  O   UNL     1      37.171 -22.393 -10.975  0.00  0.00    -0.227 OA
BRANCH  23  25
ATOM     25  O   UNL     1      35.169 -24.058 -11.342  0.00  0.00    -0.303 OA
ATOM     26  H   UNL     1      35.058 -25.015 -11.457  0.00  0.00    +0.222 HD
ENDBRANCH  23  25
BRANCH  23  27
ATOM     27  O   UNL     1      36.401 -24.104  -9.125  0.00  0.00    -0.303 OA
ATOM     28  H   UNL     1      35.569 -23.710  -8.820  0.00  0.00    +0.222 HD
ENDBRANCH  23  27
ENDBRANCH  22  23
ENDBRANCH  21  22
ENDBRANCH  18  21
ENDBRANCH   2  15
BRANCH   6  29
ATOM     29  C   UNL     1      34.459 -21.170 -20.278  0.00  0.00    +0.117 C 
BRANCH  29  30
ATOM     30  C   UNL     1      35.431 -20.131 -20.743  0.00  0.00    -0.003 C 
ATOM     31  C   UNL     1      35.268 -19.448 -21.960  0.00  0.00    -0.002 C 
ATOM     32  C   UNL     1      36.224 -18.477 -22.343  0.00  0.00    -0.000 C 
ATOM     33  C   UNL     1      36.521 -19.858 -19.916  0.00  0.00    -0.003 C 
ATOM     34  C   UNL     1      34.178 -19.709 -22.805  0.00  0.00    -0.000 C 
ATOM     35  C   UNL     1      37.314 -18.217 -21.498  0.00  0.00    -0.000 C 
ATOM     36  C   UNL     1      37.460 -18.903 -20.292  0.00  0.00    -0.000 C 
ATOM     37  C   UNL     1      36.061 -17.796 -23.560  0.00  0.00    -0.000 C 
ATOM     38  C   UNL     1      34.031 -19.023 -24.011  0.00  0.00    -0.000 C 
ATOM     39  C   UNL     1      34.971 -18.068 -24.387  0.00  0.00    -0.000 C 
ENDBRANCH  29  30
ENDBRANCH   6  29
TORSDOF 9
ENDMDL
MODEL 8
REMARK VINA RESULT:      -9.3     10.749     14.316
REMARK  Name = 46937134
REMARK  9 active torsions:
REMARK  status: ('A' for Active; 'I' for Inactive)
REMARK    1  A    between atoms: N_2  and  C_15
REMARK    2  A    between atoms: N_6  and  C_29
REMARK    3  A    between atoms: C_16  and  O_19
REMARK    4  A    between atoms: C_18  and  C_21
REMARK    5  A    between atoms: C_21  and  O_22
REMARK    6  A    between atoms: O_22  and  P_23
REMARK    7  A    between atoms: P_23  and  O_25
REMARK    8  A    between atoms: P_23  and  O_27
REMARK    9  A    between atoms: C_29  and  C_30
REMARK                            x       y       z     vdW  Elec       q    Type
REMARK                         _______ _______ _______ _____ _____    ______ ____
ROOT
ATOM      1  O   UNL     1      36.406 -10.050 -25.879  0.00  0.00    -0.208 OA
ATOM      2  N   UNL     1      34.162  -7.343 -23.040  0.00  0.00    -0.209 NA
ATOM      3  N   UNL     1      33.523  -9.690 -23.044  0.00  0.00    -0.279 N 
ATOM      4  N   UNL     1      35.769  -7.471 -24.601  0.00  0.00    -0.241 NA
ATOM      5  N   UNL     1      34.766 -11.050 -24.583  0.00  0.00    -0.301 NA
ATOM      6  N   UNL     1      33.089 -11.930 -23.217  0.00  0.00    -0.292 N 
ATOM      7  C   UNL     1      34.234  -8.632 -23.444  0.00  0.00    +0.191 C 
ATOM      8  C   UNL     1      35.116  -6.674 -23.773  0.00  0.00    +0.205 C 
ATOM      9  C   UNL     1      35.212  -8.702 -24.392  0.00  0.00    +0.183 C 
ATOM     10  C   UNL     1      33.835 -10.900 -23.658  0.00  0.00    +0.248 C 
ATOM     11  C   UNL     1      35.531  -9.965 -25.026  0.00  0.00    +0.224 C 
ATOM     12  H   UNL     1      32.820  -9.618 -22.357  0.00  0.00    +0.152 HD
ATOM     13  H   UNL     1      32.410 -11.756 -22.526  0.00  0.00    +0.151 HD
ENDROOT
BRANCH   2  15
ATOM     14  O   UNL     1      33.627  -7.094 -20.666  0.00  0.00    -0.338 OA
ATOM     15  C   UNL     1      33.241  -6.741 -22.008  0.00  0.00    +0.182 C 
ATOM     16  C   UNL     1      31.252  -7.013 -20.768  0.00  0.00    +0.144 C 
ATOM     17  C   UNL     1      31.791  -7.184 -22.169  0.00  0.00    +0.079 C 
ATOM     18  C   UNL     1      32.444  -7.386 -19.895  0.00  0.00    +0.174 C 
BRANCH  16  19
ATOM     19  O   UNL     1      30.928  -5.639 -20.573  0.00  0.00    -0.382 OA
ATOM     20  H   UNL     1      29.969  -5.548 -20.450  0.00  0.00    +0.210 HD
ENDBRANCH  16  19
BRANCH  18  21
ATOM     21  C   UNL     1      32.471  -8.866 -19.537  0.00  0.00    +0.186 C 
BRANCH  21  22
ATOM     22  O   UNL     1      31.610  -9.562 -20.421  0.00  0.00    -0.271 OA
BRANCH  22  23
ATOM     23  P   UNL     1      31.131 -11.055 -20.018  0.00  0.00    +0.473 P 
ATOM     24  O   UNL     1      32.175 -11.894 -19.341  0.00  0.00    -0.227 OA
BRANCH  23  25
ATOM     25  O   UNL     1      29.800 -10.783 -19.141  0.00  0.00    -0.303 OA
ATOM     26  H   UNL     1      29.424 -11.630 -18.853  0.00  0.00    +0.222 HD
ENDBRANCH  23  25
BRANCH  23  27
ATOM     27  O   UNL     1      30.549 -11.658 -21.401  0.00  0.00    -0.303 OA
ATOM     28  H   UNL     1      29.580 -11.632 -21.382  0.00  0.00    +0.222 HD
ENDBRANCH  23  27
ENDBRANCH  22  23
ENDBRANCH  21  22
ENDBRANCH  18  21
ENDBRANCH   2  15
BRANCH   6  29
ATOM     29  C   UNL     1      33.239 -13.279 -23.712  0.00  0.00    +0.117 C 
BRANCH  29  30
ATOM     30  C   UNL     1      33.716 -14.193 -22.626  0.00  0.00    -0.003 C 
ATOM     31  C   UNL     1      34.271 -15.453 -22.903  0.00  0.00    -0.002 C 
ATOM     32  C   UNL     1      34.703 -16.271 -21.831  0.00  0.00    -0.000 C 
ATOM     33  C   UNL     1      33.591 -13.745 -21.311  0.00  0.00    -0.003 C 
ATOM     34  C   UNL     1      34.405 -15.921 -24.220  0.00  0.00    -0.000 C 
ATOM     35  C   UNL     1      34.567 -15.803 -20.514  0.00  0.00    -0.000 C 
ATOM     36  C   UNL     1      34.015 -14.548 -20.257  0.00  0.00    -0.000 C 
ATOM     37  C   UNL     1      35.256 -17.532 -22.108  0.00  0.00    -0.000 C 
ATOM     38  C   UNL     1      34.957 -17.176 -24.477  0.00  0.00    -0.000 C 
ATOM     39  C   UNL     1      35.382 -17.979 -23.423  0.00  0.00    -0.000 C 
ENDBRANCH  29  30
ENDBRANCH   6  29
TORSDOF 9
ENDMDL
MODEL 9
REMARK VINA RESULT:      -9.2     12.536     15.777
REMARK  Name = 46937134
REMARK  9 active torsions:
REMARK  status: ('A' for Active; 'I' for Inactive)
REMARK    1  A    between atoms: N_2  and  C_15
REMARK    2  A    between atoms: N_6  and  C_29
REMARK    3  A    between atoms: C_16  and  O_19
REMARK    4  A    between atoms: C_18  and  C_21
REMARK    5  A    between atoms: C_21  and  O_22
REMARK    6  A    between atoms: O_22  and  P_23
REMARK    7  A    between atoms: P_23  and  O_25
REMARK    8  A    between atoms: P_23  and  O_27
REMARK    9  A    between atoms: C_29  and  C_30
REMARK                            x       y       z     vdW  Elec       q    Type
REMARK                         _______ _______ _______ _____ _____    ______ ____
ROOT
ATOM      1  O   UNL     1      31.162 -10.784 -18.266  0.00  0.00    -0.208 OA
ATOM      2  N   UNL     1      32.708  -7.625 -21.104  0.00  0.00    -0.209 NA
ATOM      3  N   UNL     1      32.720  -9.918 -21.913  0.00  0.00    -0.279 N 
ATOM      4  N   UNL     1      31.850  -8.033 -19.071  0.00  0.00    -0.241 NA
ATOM      5  N   UNL     1      31.883 -11.527 -20.340  0.00  0.00    -0.301 NA
ATOM      6  N   UNL     1      32.639 -12.138 -22.462  0.00  0.00    -0.292 N 
ATOM      7  C   UNL     1      32.493  -8.957 -21.014  0.00  0.00    +0.191 C 
ATOM      8  C   UNL     1      32.301  -7.104 -19.896  0.00  0.00    +0.205 C 
ATOM      9  C   UNL     1      31.972  -9.197 -19.777  0.00  0.00    +0.183 C 
ATOM     10  C   UNL     1      32.390 -11.212 -21.517  0.00  0.00    +0.248 C 
ATOM     11  C   UNL     1      31.632 -10.546 -19.372  0.00  0.00    +0.224 C 
ATOM     12  H   UNL     1      33.098  -9.723 -22.802  0.00  0.00    +0.152 HD
ATOM     13  H   UNL     1      33.019 -11.843 -23.321  0.00  0.00    +0.151 HD
ENDROOT
BRANCH   2  15
ATOM     14  O   UNL     1      32.834  -5.478 -22.268  0.00  0.00    -0.338 OA
ATOM     15  C   UNL     1      33.273  -6.849 -22.267  0.00  0.00    +0.182 C 
ATOM     16  C   UNL     1      32.979  -6.219 -24.523  0.00  0.00    +0.144 C 
ATOM     17  C   UNL     1      32.875  -7.428 -23.622  0.00  0.00    +0.079 C 
ATOM     18  C   UNL     1      32.528  -5.078 -23.619  0.00  0.00    +0.174 C 
BRANCH  16  19
ATOM     19  O   UNL     1      34.347  -6.036 -24.877  0.00  0.00    -0.382 OA
ATOM     20  H   UNL     1      34.914  -6.376 -24.166  0.00  0.00    +0.210 HD
ENDBRANCH  16  19
BRANCH  18  21
ATOM     21  C   UNL     1      31.029  -4.818 -23.704  0.00  0.00    +0.186 C 
BRANCH  21  22
ATOM     22  O   UNL     1      30.663  -3.936 -22.657  0.00  0.00    -0.271 OA
BRANCH  22  23
ATOM     23  P   UNL     1      30.559  -2.353 -22.981  0.00  0.00    +0.473 P 
ATOM     24  O   UNL     1      30.015  -2.020 -24.339  0.00  0.00    -0.227 OA
BRANCH  23  25
ATOM     25  O   UNL     1      29.692  -1.786 -21.740  0.00  0.00    -0.303 OA
ATOM     26  H   UNL     1      28.852  -1.428 -22.069  0.00  0.00    +0.222 HD
ENDBRANCH  23  25
BRANCH  23  27
ATOM     27  O   UNL     1      32.048  -1.801 -22.678  0.00  0.00    -0.303 OA
ATOM     28  H   UNL     1      32.058  -0.835 -22.759  0.00  0.00    +0.222 HD
ENDBRANCH  23  27
ENDBRANCH  22  23
ENDBRANCH  21  22
ENDBRANCH  18  21
ENDBRANCH   2  15
BRANCH   6  29
ATOM     29  C   UNL     1      32.376 -13.546 -22.273  0.00  0.00    +0.117 C 
BRANCH  29  30
ATOM     30  C   UNL     1      33.188 -14.371 -23.222  0.00  0.00    -0.003 C 
ATOM     31  C   UNL     1      34.017 -15.415 -22.781  0.00  0.00    -0.002 C 
ATOM     32  C   UNL     1      34.761 -16.157 -23.730  0.00  0.00    -0.000 C 
ATOM     33  C   UNL     1      33.092 -14.064 -24.580  0.00  0.00    -0.003 C 
ATOM     34  C   UNL     1      34.126 -15.739 -21.419  0.00  0.00    -0.000 C 
ATOM     35  C   UNL     1      34.653 -15.833 -25.092  0.00  0.00    -0.000 C 
ATOM     36  C   UNL     1      33.823 -14.794 -25.513  0.00  0.00    -0.000 C 
ATOM     37  C   UNL     1      35.591 -17.201 -23.288  0.00  0.00    -0.000 C 
ATOM     38  C   UNL     1      34.955 -16.778 -20.997  0.00  0.00    -0.000 C 
ATOM     39  C   UNL     1      35.685 -17.508 -21.931  0.00  0.00    -0.000 C 
ENDBRANCH  29  30
ENDBRANCH   6  29
TORSDOF 9
ENDMDL
