MODEL 1
REMARK VINA RESULT:     -12.3      0.000      0.000
REMARK  Name = 11961293
REMARK  7 active torsions:
REMARK  status: ('A' for Active; 'I' for Inactive)
REMARK    1  A    between atoms: C_1  and  C_3
REMARK    2  A    between atoms: C_1  and  N_21
REMARK    3  A    between atoms: N_2  and  C_9
REMARK    4  A    between atoms: C_9  and  C_12
REMARK    5  A    between atoms: C_17  and  O_18
REMARK    6  A    between atoms: C_22  and  C_26
REMARK    7  A    between atoms: C_30  and  C_35
REMARK                            x       y       z     vdW  Elec       q    Type
REMARK                         _______ _______ _______ _____ _____    ______ ____
ROOT
ATOM      1  C   UNL     1      33.833 -14.922 -24.006  0.00  0.00    +0.089 C 
ENDROOT
BRANCH   1   3
ATOM      2  N   UNL     1      35.233 -18.266 -21.657  0.00  0.00    +0.387 N 
ATOM      3  C   UNL     1      34.784 -15.846 -23.251  0.00  0.00    +0.015 C 
ATOM      4  C   UNL     1      35.671 -18.207 -23.057  0.00  0.00    -0.077 C 
ATOM      5  C   UNL     1      35.289 -16.939 -21.028  0.00  0.00    -0.077 C 
ATOM      6  C   UNL     1      34.797 -17.248 -23.869  0.00  0.00    -0.021 C 
ATOM      7  C   UNL     1      34.401 -15.938 -21.770  0.00  0.00    -0.021 C 
ATOM      8  H   UNL     1      34.262 -18.579 -21.644  0.00  0.00    -0.080 HD
BRANCH   2   9
ATOM      9  C   UNL     1      36.044 -19.223 -20.906  0.00  0.00    -0.077 C 
BRANCH   9  12
ATOM     10  O   UNL     1      31.844 -22.233 -17.423  0.00  0.00    -0.226 OA
ATOM     11  N   UNL     1      33.693 -22.166 -18.830  0.00  0.00    -0.246 N 
ATOM     12  C   UNL     1      35.251 -20.494 -20.609  0.00  0.00    -0.017 C 
ATOM     13  C   UNL     1      33.795 -20.158 -20.251  0.00  0.00    +0.020 C 
ATOM     14  C   UNL     1      35.906 -21.292 -19.470  0.00  0.00    +0.020 C 
ATOM     15  C   UNL     1      33.012 -21.415 -19.883  0.00  0.00    +0.097 C 
ATOM     16  C   UNL     1      35.085 -22.530 -19.117  0.00  0.00    +0.097 C 
ATOM     17  C   UNL     1      33.010 -22.535 -17.667  0.00  0.00    +0.405 C 
BRANCH  17  18
ATOM     18  O   UNL     1      33.783 -23.280 -16.815  0.00  0.00    -0.430 OA
ATOM     19  C   UNL     1      33.264 -23.465 -15.492  0.00  0.00    +0.257 C 
ENDBRANCH  17  18
ENDBRANCH   9  12
ENDBRANCH   2   9
ENDBRANCH   1   3
BRANCH   1  21
ATOM     20  O   UNL     1      34.181 -12.077 -23.848  0.00  0.00    -0.270 OA
ATOM     21  N   UNL     1      33.155 -14.014 -23.094  0.00  0.00    -0.301 N 
ATOM     22  C   UNL     1      33.396 -12.654 -23.100  0.00  0.00    +0.247 C 
ATOM     23  H   UNL     1      32.504 -14.380 -22.453  0.00  0.00    +0.150 HD
BRANCH  22  26
ATOM     24  N   UNL     1      31.956  -8.367 -21.541  0.00  0.00    -0.318 N 
ATOM     25  N   UNL     1      33.080  -9.562 -23.040  0.00  0.00    -0.318 N 
ATOM     26  C   UNL     1      32.644 -11.866 -22.090  0.00  0.00    +0.068 C 
ATOM     27  C   UNL     1      32.564 -10.474 -22.157  0.00  0.00    +0.063 C 
ATOM     28  C   UNL     1      31.979 -12.485 -21.026  0.00  0.00    +0.006 C 
ATOM     29  C   UNL     1      31.865  -9.704 -21.231  0.00  0.00    +0.059 C 
ATOM     30  C   UNL     1      32.690  -8.317 -22.631  0.00  0.00    +0.144 C 
ATOM     31  C   UNL     1      31.271 -11.738 -20.081  0.00  0.00    +0.001 C 
ATOM     32  C   UNL     1      31.204 -10.342 -20.168  0.00  0.00    +0.016 C 
ATOM     33  H   UNL     1      31.557  -7.610 -21.054  0.00  0.00    +0.148 HD
ATOM     34  H   UNL     1      33.633  -9.767 -23.829  0.00  0.00    +0.148 HD
BRANCH  30  35
ATOM     35  C   UNL     1      33.026  -7.047 -23.298  0.00  0.00    +0.037 C 
ATOM     36  C   UNL     1      32.505  -5.802 -22.539  0.00  0.00    +0.003 C 
ATOM     37  C   UNL     1      34.541  -6.880 -23.570  0.00  0.00    +0.003 C 
ENDBRANCH  30  35
ENDBRANCH  22  26
ENDBRANCH   1  21
TORSDOF 7
ENDMDL
MODEL 2
REMARK VINA RESULT:     -11.6      2.819      4.897
REMARK  Name = 11961293
REMARK  7 active torsions:
REMARK  status: ('A' for Active; 'I' for Inactive)
REMARK    1  A    between atoms: C_1  and  C_3
REMARK    2  A    between atoms: C_1  and  N_21
REMARK    3  A    between atoms: N_2  and  C_9
REMARK    4  A    between atoms: C_9  and  C_12
REMARK    5  A    between atoms: C_17  and  O_18
REMARK    6  A    between atoms: C_22  and  C_26
REMARK    7  A    between atoms: C_30  and  C_35
REMARK                            x       y       z     vdW  Elec       q    Type
REMARK                         _______ _______ _______ _____ _____    ______ ____
ROOT
ATOM      1  C   UNL     1      36.156 -18.736 -21.374  0.00  0.00    +0.089 C 
ENDROOT
BRANCH   1   3
ATOM      2  N   UNL     1      34.378 -21.735 -18.824  0.00  0.00    +0.387 N 
ATOM      3  C   UNL     1      35.557 -20.066 -20.927  0.00  0.00    +0.015 C 
ATOM      4  C   UNL     1      33.539 -21.195 -19.901  0.00  0.00    -0.077 C 
ATOM      5  C   UNL     1      35.747 -21.987 -19.294  0.00  0.00    -0.077 C 
ATOM      6  C   UNL     1      34.113 -19.885 -20.444  0.00  0.00    -0.021 C 
ATOM      7  C   UNL     1      36.397 -20.703 -19.816  0.00  0.00    -0.021 C 
ATOM      8  H   UNL     1      34.425 -21.037 -18.081  0.00  0.00    -0.080 HD
BRANCH   2   9
ATOM      9  C   UNL     1      33.790 -22.959 -18.280  0.00  0.00    -0.077 C 
BRANCH   9  12
ATOM     10  O   UNL     1      32.209 -25.367 -12.754  0.00  0.00    -0.226 OA
ATOM     11  N   UNL     1      32.138 -23.707 -14.380  0.00  0.00    -0.246 N 
ATOM     12  C   UNL     1      33.338 -22.751 -16.836  0.00  0.00    -0.017 C 
ATOM     13  C   UNL     1      34.084 -23.702 -15.888  0.00  0.00    +0.020 C 
ATOM     14  C   UNL     1      31.820 -22.954 -16.705  0.00  0.00    +0.020 C 
ATOM     15  C   UNL     1      33.590 -23.551 -14.452  0.00  0.00    +0.097 C 
ATOM     16  C   UNL     1      31.366 -22.816 -15.253  0.00  0.00    +0.097 C 
ATOM     17  C   UNL     1      31.566 -24.619 -13.489  0.00  0.00    +0.405 C 
BRANCH  17  18
ATOM     18  O   UNL     1      30.196 -24.594 -13.514  0.00  0.00    -0.430 OA
ATOM     19  C   UNL     1      29.562 -25.586 -14.331  0.00  0.00    +0.257 C 
ENDBRANCH  17  18
ENDBRANCH   9  12
ENDBRANCH   2   9
ENDBRANCH   1   3
BRANCH   1  21
ATOM     20  O   UNL     1      35.497 -16.515 -23.070  0.00  0.00    -0.270 OA
ATOM     21  N   UNL     1      35.268 -17.630 -21.051  0.00  0.00    -0.301 N 
ATOM     22  C   UNL     1      35.017 -16.607 -21.943  0.00  0.00    +0.247 C 
ATOM     23  H   UNL     1      34.831 -17.611 -20.168  0.00  0.00    +0.150 HD
BRANCH  22  26
ATOM     24  N   UNL     1      32.841 -12.427 -22.771  0.00  0.00    -0.318 N 
ATOM     25  N   UNL     1      34.202 -14.032 -23.485  0.00  0.00    -0.318 N 
ATOM     26  C   UNL     1      34.108 -15.539 -21.453  0.00  0.00    +0.068 C 
ATOM     27  C   UNL     1      33.806 -14.419 -22.231  0.00  0.00    +0.063 C 
ATOM     28  C   UNL     1      33.509 -15.609 -20.191  0.00  0.00    +0.006 C 
ATOM     29  C   UNL     1      32.956 -13.401 -21.806  0.00  0.00    +0.059 C 
ATOM     30  C   UNL     1      33.600 -12.837 -23.762  0.00  0.00    +0.144 C 
ATOM     31  C   UNL     1      32.653 -14.603 -19.738  0.00  0.00    +0.001 C 
ATOM     32  C   UNL     1      32.364 -13.488 -20.535  0.00  0.00    +0.016 C 
ATOM     33  H   UNL     1      32.306 -11.602 -22.728  0.00  0.00    +0.148 HD
ATOM     34  H   UNL     1      34.813 -14.527 -24.079  0.00  0.00    +0.148 HD
BRANCH  30  35
ATOM     35  C   UNL     1      33.753 -12.065 -25.009  0.00  0.00    +0.037 C 
ATOM     36  C   UNL     1      34.941 -11.074 -24.973  0.00  0.00    +0.003 C 
ATOM     37  C   UNL     1      33.872 -12.957 -26.270  0.00  0.00    +0.003 C 
ENDBRANCH  30  35
ENDBRANCH  22  26
ENDBRANCH   1  21
TORSDOF 7
ENDMDL
MODEL 3
REMARK VINA RESULT:     -11.5      3.434     12.636
REMARK  Name = 11961293
REMARK  7 active torsions:
REMARK  status: ('A' for Active; 'I' for Inactive)
REMARK    1  A    between atoms: C_1  and  C_3
REMARK    2  A    between atoms: C_1  and  N_21
REMARK    3  A    between atoms: N_2  and  C_9
REMARK    4  A    between atoms: C_9  and  C_12
REMARK    5  A    between atoms: C_17  and  O_18
REMARK    6  A    between atoms: C_22  and  C_26
REMARK    7  A    between atoms: C_30  and  C_35
REMARK                            x       y       z     vdW  Elec       q    Type
REMARK                         _______ _______ _______ _____ _____    ______ ____
ROOT
ATOM      1  C   UNL     1      31.433 -11.889 -20.829  0.00  0.00    +0.089 C 
ENDROOT
BRANCH   1   3
ATOM      2  N   UNL     1      33.081  -7.989 -21.687  0.00  0.00    +0.387 N 
ATOM      3  C   UNL     1      31.502 -10.414 -21.214  0.00  0.00    +0.015 C 
ATOM      4  C   UNL     1      32.501  -8.729 -22.815  0.00  0.00    -0.077 C 
ATOM      5  C   UNL     1      32.242  -8.108 -20.487  0.00  0.00    -0.077 C 
ATOM      6  C   UNL     1      32.345 -10.214 -22.479  0.00  0.00    -0.021 C 
ATOM      7  C   UNL     1      32.077  -9.572 -20.071  0.00  0.00    -0.021 C 
ATOM      8  H   UNL     1      33.991  -8.399 -21.475  0.00  0.00    -0.080 HD
BRANCH   2   9
ATOM      9  C   UNL     1      33.272  -6.583 -22.041  0.00  0.00    -0.077 C 
BRANCH   9  12
ATOM     10  O   UNL     1      36.084  -3.912 -26.919  0.00  0.00    -0.226 OA
ATOM     11  N   UNL     1      34.270  -4.933 -25.886  0.00  0.00    -0.246 N 
ATOM     12  C   UNL     1      33.403  -6.415 -23.553  0.00  0.00    -0.017 C 
ATOM     13  C   UNL     1      34.880  -6.355 -23.971  0.00  0.00    +0.020 C 
ATOM     14  C   UNL     1      32.666  -5.152 -24.027  0.00  0.00    +0.020 C 
ATOM     15  C   UNL     1      35.021  -6.117 -25.471  0.00  0.00    +0.097 C 
ATOM     16  C   UNL     1      32.847  -4.935 -25.528  0.00  0.00    +0.097 C 
ATOM     17  C   UNL     1      34.892  -3.917 -26.616  0.00  0.00    +0.405 C 
BRANCH  17  18
ATOM     18  O   UNL     1      34.029  -2.914 -26.967  0.00  0.00    -0.430 OA
ATOM     19  C   UNL     1      33.774  -2.761 -28.369  0.00  0.00    +0.257 C 
ENDBRANCH  17  18
ENDBRANCH   9  12
ENDBRANCH   2   9
ENDBRANCH   1   3
BRANCH   1  21
ATOM     20  O   UNL     1      33.612 -13.743 -20.587  0.00  0.00    -0.270 OA
ATOM     21  N   UNL     1      31.981 -12.728 -21.883  0.00  0.00    -0.301 N 
ATOM     22  C   UNL     1      33.035 -13.591 -21.661  0.00  0.00    +0.247 C 
ATOM     23  H   UNL     1      31.586 -12.680 -22.784  0.00  0.00    +0.150 HD
BRANCH  22  26
ATOM     24  N   UNL     1      35.393 -17.382 -23.381  0.00  0.00    -0.318 N 
ATOM     25  N   UNL     1      34.701 -16.216 -21.620  0.00  0.00    -0.318 N 
ATOM     26  C   UNL     1      33.495 -14.360 -22.846  0.00  0.00    +0.068 C 
ATOM     27  C   UNL     1      34.240 -15.533 -22.715  0.00  0.00    +0.063 C 
ATOM     28  C   UNL     1      33.198 -13.945 -24.148  0.00  0.00    +0.006 C 
ATOM     29  C   UNL     1      34.684 -16.281 -23.802  0.00  0.00    +0.059 C 
ATOM     30  C   UNL     1      35.383 -17.313 -22.068  0.00  0.00    +0.144 C 
ATOM     31  C   UNL     1      33.630 -14.675 -25.258  0.00  0.00    +0.001 C 
ATOM     32  C   UNL     1      34.377 -15.849 -25.103  0.00  0.00    +0.016 C 
ATOM     33  H   UNL     1      35.815 -18.073 -23.940  0.00  0.00    +0.148 HD
ATOM     34  H   UNL     1      34.565 -15.962 -20.678  0.00  0.00    +0.148 HD
BRANCH  30  35
ATOM     35  C   UNL     1      36.043 -18.322 -21.221  0.00  0.00    +0.037 C 
ATOM     36  C   UNL     1      35.239 -19.640 -21.101  0.00  0.00    +0.003 C 
ATOM     37  C   UNL     1      37.489 -18.647 -21.670  0.00  0.00    +0.003 C 
ENDBRANCH  30  35
ENDBRANCH  22  26
ENDBRANCH   1  21
TORSDOF 7
ENDMDL
MODEL 4
REMARK VINA RESULT:     -11.4      2.655     12.235
REMARK  Name = 11961293
REMARK  7 active torsions:
REMARK  status: ('A' for Active; 'I' for Inactive)
REMARK    1  A    between atoms: C_1  and  C_3
REMARK    2  A    between atoms: C_1  and  N_21
REMARK    3  A    between atoms: N_2  and  C_9
REMARK    4  A    between atoms: C_9  and  C_12
REMARK    5  A    between atoms: C_17  and  O_18
REMARK    6  A    between atoms: C_22  and  C_26
REMARK    7  A    between atoms: C_30  and  C_35
REMARK                            x       y       z     vdW  Elec       q    Type
REMARK                         _______ _______ _______ _____ _____    ______ ____
ROOT
ATOM      1  C   UNL     1      36.835 -21.535 -19.126  0.00  0.00    +0.089 C 
ENDROOT
BRANCH   1   3
ATOM      2  N   UNL     1      35.319 -18.309 -21.565  0.00  0.00    +0.387 N 
ATOM      3  C   UNL     1      36.384 -20.761 -20.361  0.00  0.00    +0.015 C 
ATOM      4  C   UNL     1      36.730 -18.673 -21.746  0.00  0.00    -0.077 C 
ATOM      5  C   UNL     1      34.475 -19.504 -21.442  0.00  0.00    -0.077 C 
ATOM      6  C   UNL     1      37.241 -19.507 -20.569  0.00  0.00    -0.021 C 
ATOM      7  C   UNL     1      34.907 -20.366 -20.254  0.00  0.00    -0.021 C 
ATOM      8  H   UNL     1      35.240 -17.778 -20.698  0.00  0.00    -0.080 HD
BRANCH   2   9
ATOM      9  C   UNL     1      34.861 -17.469 -22.672  0.00  0.00    -0.077 C 
BRANCH   9  12
ATOM     10  O   UNL     1      32.095 -12.731 -19.717  0.00  0.00    -0.226 OA
ATOM     11  N   UNL     1      33.482 -13.612 -21.361  0.00  0.00    -0.246 N 
ATOM     12  C   UNL     1      34.852 -15.996 -22.270  0.00  0.00    -0.017 C 
ATOM     13  C   UNL     1      34.399 -15.830 -20.812  0.00  0.00    +0.020 C 
ATOM     14  C   UNL     1      33.942 -15.182 -23.204  0.00  0.00    +0.020 C 
ATOM     15  C   UNL     1      34.319 -14.356 -20.422  0.00  0.00    +0.097 C 
ATOM     16  C   UNL     1      33.871 -13.719 -22.772  0.00  0.00    +0.097 C 
ATOM     17  C   UNL     1      32.424 -12.824 -20.898  0.00  0.00    +0.405 C 
BRANCH  17  18
ATOM     18  O   UNL     1      31.783 -12.155 -21.907  0.00  0.00    -0.430 OA
ATOM     19  C   UNL     1      31.259 -10.863 -21.574  0.00  0.00    +0.257 C 
ENDBRANCH  17  18
ENDBRANCH   9  12
ENDBRANCH   2   9
ENDBRANCH   1   3
BRANCH   1  21
ATOM     20  O   UNL     1      36.857 -22.481 -16.416  0.00  0.00    -0.270 OA
ATOM     21  N   UNL     1      35.691 -22.010 -18.363  0.00  0.00    -0.301 N 
ATOM     22  C   UNL     1      35.810 -22.446 -17.058  0.00  0.00    +0.247 C 
ATOM     23  H   UNL     1      34.804 -22.021 -18.790  0.00  0.00    +0.150 HD
BRANCH  22  26
ATOM     24  N   UNL     1      33.675 -24.469 -13.285  0.00  0.00    -0.318 N 
ATOM     25  N   UNL     1      35.545 -23.753 -14.249  0.00  0.00    -0.318 N 
ATOM     26  C   UNL     1      34.554 -22.923 -16.425  0.00  0.00    +0.068 C 
ATOM     27  C   UNL     1      34.546 -23.497 -15.152  0.00  0.00    +0.063 C 
ATOM     28  C   UNL     1      33.320 -22.817 -17.075  0.00  0.00    +0.006 C 
ATOM     29  C   UNL     1      33.388 -23.952 -14.527  0.00  0.00    +0.059 C 
ATOM     30  C   UNL     1      34.976 -24.334 -13.151  0.00  0.00    +0.144 C 
ATOM     31  C   UNL     1      32.142 -23.265 -16.473  0.00  0.00    +0.001 C 
ATOM     32  C   UNL     1      32.158 -23.837 -15.195  0.00  0.00    +0.016 C 
ATOM     33  H   UNL     1      33.044 -24.856 -12.636  0.00  0.00    +0.148 HD
ATOM     34  H   UNL     1      36.502 -23.554 -14.371  0.00  0.00    +0.148 HD
BRANCH  30  35
ATOM     35  C   UNL     1      35.693 -24.770 -11.939  0.00  0.00    +0.037 C 
ATOM     36  C   UNL     1      36.822 -25.788 -12.230  0.00  0.00    +0.003 C 
ATOM     37  C   UNL     1      36.269 -23.594 -11.112  0.00  0.00    +0.003 C 
ENDBRANCH  30  35
ENDBRANCH  22  26
ENDBRANCH   1  21
TORSDOF 7
ENDMDL
MODEL 5
REMARK VINA RESULT:     -11.3      2.633     12.522
REMARK  Name = 11961293
REMARK  7 active torsions:
REMARK  status: ('A' for Active; 'I' for Inactive)
REMARK    1  A    between atoms: C_1  and  C_3
REMARK    2  A    between atoms: C_1  and  N_21
REMARK    3  A    between atoms: N_2  and  C_9
REMARK    4  A    between atoms: C_9  and  C_12
REMARK    5  A    between atoms: C_17  and  O_18
REMARK    6  A    between atoms: C_22  and  C_26
REMARK    7  A    between atoms: C_30  and  C_35
REMARK                            x       y       z     vdW  Elec       q    Type
REMARK                         _______ _______ _______ _____ _____    ______ ____
ROOT
ATOM      1  C   UNL     1      34.411 -22.790 -19.256  0.00  0.00    +0.089 C 
ENDROOT
BRANCH   1   3
ATOM      2  N   UNL     1      35.686 -19.123 -21.149  0.00  0.00    +0.387 N 
ATOM      3  C   UNL     1      34.809 -21.327 -19.426  0.00  0.00    +0.015 C 
ATOM      4  C   UNL     1      34.309 -19.165 -20.641  0.00  0.00    -0.077 C 
ATOM      5  C   UNL     1      36.621 -19.743 -20.200  0.00  0.00    -0.077 C 
ATOM      6  C   UNL     1      33.858 -20.606 -20.388  0.00  0.00    -0.021 C 
ATOM      7  C   UNL     1      36.249 -21.203 -19.933  0.00  0.00    -0.021 C 
ATOM      8  H   UNL     1      35.718 -19.659 -22.017  0.00  0.00    -0.080 HD
BRANCH   2   9
ATOM      9  C   UNL     1      36.085 -17.745 -21.435  0.00  0.00    -0.077 C 
BRANCH   9  12
ATOM     10  O   UNL     1      34.062 -13.118 -25.085  0.00  0.00    -0.226 OA
ATOM     11  N   UNL     1      33.837 -14.586 -23.298  0.00  0.00    -0.246 N 
ATOM     12  C   UNL     1      34.924 -16.955 -22.034  0.00  0.00    -0.017 C 
ATOM     13  C   UNL     1      35.186 -16.636 -23.514  0.00  0.00    +0.020 C 
ATOM     14  C   UNL     1      34.683 -15.658 -21.246  0.00  0.00    +0.020 C 
ATOM     15  C   UNL     1      34.063 -15.786 -24.103  0.00  0.00    +0.097 C 
ATOM     16  C   UNL     1      33.568 -14.825 -21.876  0.00  0.00    +0.097 C 
ATOM     17  C   UNL     1      33.838 -13.322 -23.894  0.00  0.00    +0.405 C 
BRANCH  17  18
ATOM     18  O   UNL     1      33.556 -12.319 -23.004  0.00  0.00    -0.430 OA
ATOM     19  C   UNL     1      33.674 -10.981 -23.503  0.00  0.00    +0.257 C 
ENDBRANCH  17  18
ENDBRANCH   9  12
ENDBRANCH   2   9
ENDBRANCH   1   3
BRANCH   1  21
ATOM     20  O   UNL     1      32.020 -22.448 -17.704  0.00  0.00    -0.270 OA
ATOM     21  N   UNL     1      34.232 -23.122 -17.851  0.00  0.00    -0.301 N 
ATOM     22  C   UNL     1      33.035 -22.917 -17.195  0.00  0.00    +0.247 C 
ATOM     23  H   UNL     1      34.990 -23.505 -17.351  0.00  0.00    +0.150 HD
BRANCH  22  26
ATOM     24  N   UNL     1      35.262 -25.008 -13.514  0.00  0.00    -0.318 N 
ATOM     25  N   UNL     1      35.262 -24.458 -15.667  0.00  0.00    -0.318 N 
ATOM     26  C   UNL     1      33.022 -23.282 -15.756  0.00  0.00    +0.068 C 
ATOM     27  C   UNL     1      34.079 -23.977 -15.166  0.00  0.00    +0.063 C 
ATOM     28  C   UNL     1      31.950 -22.943 -14.924  0.00  0.00    +0.006 C 
ATOM     29  C   UNL     1      34.103 -24.333 -13.820  0.00  0.00    +0.059 C 
ATOM     30  C   UNL     1      35.933 -25.065 -14.643  0.00  0.00    +0.144 C 
ATOM     31  C   UNL     1      31.946 -23.287 -13.570  0.00  0.00    +0.001 C 
ATOM     32  C   UNL     1      33.017 -23.985 -12.999  0.00  0.00    +0.016 C 
ATOM     33  H   UNL     1      35.531 -25.371 -12.639  0.00  0.00    +0.148 HD
ATOM     34  H   UNL     1      35.571 -24.379 -16.599  0.00  0.00    +0.148 HD
BRANCH  30  35
ATOM     35  C   UNL     1      37.251 -25.717 -14.744  0.00  0.00    +0.037 C 
ATOM     36  C   UNL     1      38.425 -24.784 -14.357  0.00  0.00    +0.003 C 
ATOM     37  C   UNL     1      37.351 -27.027 -13.925  0.00  0.00    +0.003 C 
ENDBRANCH  30  35
ENDBRANCH  22  26
ENDBRANCH   1  21
TORSDOF 7
ENDMDL
MODEL 6
REMARK VINA RESULT:     -11.1      2.768     11.374
REMARK  Name = 11961293
REMARK  7 active torsions:
REMARK  status: ('A' for Active; 'I' for Inactive)
REMARK    1  A    between atoms: C_1  and  C_3
REMARK    2  A    between atoms: C_1  and  N_21
REMARK    3  A    between atoms: N_2  and  C_9
REMARK    4  A    between atoms: C_9  and  C_12
REMARK    5  A    between atoms: C_17  and  O_18
REMARK    6  A    between atoms: C_22  and  C_26
REMARK    7  A    between atoms: C_30  and  C_35
REMARK                            x       y       z     vdW  Elec       q    Type
REMARK                         _______ _______ _______ _____ _____    ______ ____
ROOT
ATOM      1  C   UNL     1      35.656 -22.023 -19.834  0.00  0.00    +0.089 C 
ENDROOT
BRANCH   1   3
ATOM      2  N   UNL     1      35.895 -18.159 -21.749  0.00  0.00    +0.387 N 
ATOM      3  C   UNL     1      35.693 -20.507 -20.006  0.00  0.00    +0.015 C 
ATOM      4  C   UNL     1      34.612 -18.517 -21.131  0.00  0.00    -0.077 C 
ATOM      5  C   UNL     1      37.023 -18.548 -20.892  0.00  0.00    -0.077 C 
ATOM      6  C   UNL     1      34.525 -20.022 -20.872  0.00  0.00    -0.021 C 
ATOM      7  C   UNL     1      37.019 -20.056 -20.626  0.00  0.00    -0.021 C 
ATOM      8  H   UNL     1      35.976 -18.672 -22.627  0.00  0.00    -0.080 HD
BRANCH   2   9
ATOM      9  C   UNL     1      35.943 -16.725 -22.038  0.00  0.00    -0.077 C 
BRANCH   9  12
ATOM     10  O   UNL     1      32.307 -11.665 -22.111  0.00  0.00    -0.226 OA
ATOM     11  N   UNL     1      32.785 -13.856 -21.498  0.00  0.00    -0.246 N 
ATOM     12  C   UNL     1      34.550 -16.107 -21.955  0.00  0.00    -0.017 C 
ATOM     13  C   UNL     1      34.387 -14.983 -22.990  0.00  0.00    +0.020 C 
ATOM     14  C   UNL     1      34.275 -15.569 -20.541  0.00  0.00    +0.020 C 
ATOM     15  C   UNL     1      33.022 -14.312 -22.867  0.00  0.00    +0.097 C 
ATOM     16  C   UNL     1      32.911 -14.886 -20.462  0.00  0.00    +0.097 C 
ATOM     17  C   UNL     1      32.415 -12.532 -21.246  0.00  0.00    +0.405 C 
BRANCH  17  18
ATOM     18  O   UNL     1      32.180 -12.294 -19.917  0.00  0.00    -0.430 OA
ATOM     19  C   UNL     1      31.162 -11.330 -19.619  0.00  0.00    +0.257 C 
ENDBRANCH  17  18
ENDBRANCH   9  12
ENDBRANCH   2   9
ENDBRANCH   1   3
BRANCH   1  21
ATOM     20  O   UNL     1      32.950 -22.554 -19.037  0.00  0.00    -0.270 OA
ATOM     21  N   UNL     1      35.198 -22.385 -18.502  0.00  0.00    -0.301 N 
ATOM     22  C   UNL     1      33.867 -22.621 -18.222  0.00  0.00    +0.247 C 
ATOM     23  H   UNL     1      35.859 -22.465 -17.776  0.00  0.00    +0.150 HD
BRANCH  22  26
ATOM     24  N   UNL     1      30.562 -23.209 -14.814  0.00  0.00    -0.318 N 
ATOM     25  N   UNL     1      31.042 -22.707 -16.925  0.00  0.00    -0.318 N 
ATOM     26  C   UNL     1      33.559 -22.955 -16.808  0.00  0.00    +0.068 C 
ATOM     27  C   UNL     1      32.248 -22.966 -16.326  0.00  0.00    +0.063 C 
ATOM     28  C   UNL     1      34.568 -23.277 -15.895  0.00  0.00    +0.006 C 
ATOM     29  C   UNL     1      31.922 -23.277 -15.009  0.00  0.00    +0.059 C 
ATOM     30  C   UNL     1      30.066 -22.865 -15.982  0.00  0.00    +0.144 C 
ATOM     31  C   UNL     1      34.271 -23.594 -14.567  0.00  0.00    +0.001 C 
ATOM     32  C   UNL     1      32.949 -23.598 -14.106  0.00  0.00    +0.016 C 
ATOM     33  H   UNL     1      30.066 -23.381 -13.981  0.00  0.00    +0.148 HD
ATOM     34  H   UNL     1      30.905 -22.453 -17.866  0.00  0.00    +0.148 HD
BRANCH  30  35
ATOM     35  C   UNL     1      28.620 -22.684 -16.201  0.00  0.00    +0.037 C 
ATOM     36  C   UNL     1      27.964 -23.865 -16.959  0.00  0.00    +0.003 C 
ATOM     37  C   UNL     1      27.831 -22.417 -14.896  0.00  0.00    +0.003 C 
ENDBRANCH  30  35
ENDBRANCH  22  26
ENDBRANCH   1  21
TORSDOF 7
ENDMDL
MODEL 7
REMARK VINA RESULT:     -11.0      2.755      4.606
REMARK  Name = 11961293
REMARK  7 active torsions:
REMARK  status: ('A' for Active; 'I' for Inactive)
REMARK    1  A    between atoms: C_1  and  C_3
REMARK    2  A    between atoms: C_1  and  N_21
REMARK    3  A    between atoms: N_2  and  C_9
REMARK    4  A    between atoms: C_9  and  C_12
REMARK    5  A    between atoms: C_17  and  O_18
REMARK    6  A    between atoms: C_22  and  C_26
REMARK    7  A    between atoms: C_30  and  C_35
REMARK                            x       y       z     vdW  Elec       q    Type
REMARK                         _______ _______ _______ _____ _____    ______ ____
ROOT
ATOM      1  C   UNL     1      36.113 -18.297 -21.950  0.00  0.00    +0.089 C 
ENDROOT
BRANCH   1   3
ATOM      2  N   UNL     1      35.067 -21.258 -18.984  0.00  0.00    +0.387 N 
ATOM      3  C   UNL     1      35.756 -19.647 -21.335  0.00  0.00    +0.015 C 
ATOM      4  C   UNL     1      34.044 -20.928 -19.984  0.00  0.00    -0.077 C 
ATOM      5  C   UNL     1      36.394 -21.375 -19.603  0.00  0.00    -0.077 C 
ATOM      6  C   UNL     1      34.367 -19.609 -20.690  0.00  0.00    -0.021 C 
ATOM      7  C   UNL     1      36.798 -20.071 -20.295  0.00  0.00    -0.021 C 
ATOM      8  H   UNL     1      35.103 -20.497 -18.306  0.00  0.00    -0.080 HD
BRANCH   2   9
ATOM      9  C   UNL     1      34.719 -22.494 -18.283  0.00  0.00    -0.077 C 
BRANCH   9  12
ATOM     10  O   UNL     1      38.532 -24.328 -13.708  0.00  0.00    -0.226 OA
ATOM     11  N   UNL     1      36.506 -23.515 -14.506  0.00  0.00    -0.246 N 
ATOM     12  C   UNL     1      35.141 -22.426 -16.818  0.00  0.00    -0.017 C 
ATOM     13  C   UNL     1      36.672 -22.390 -16.691  0.00  0.00    +0.020 C 
ATOM     14  C   UNL     1      34.571 -23.617 -16.030  0.00  0.00    +0.020 C 
ATOM     15  C   UNL     1      37.106 -22.393 -15.228  0.00  0.00    +0.097 C 
ATOM     16  C   UNL     1      35.043 -23.597 -14.577  0.00  0.00    +0.097 C 
ATOM     17  C   UNL     1      37.306 -24.394 -13.771  0.00  0.00    +0.405 C 
BRANCH  17  18
ATOM     18  O   UNL     1      36.575 -25.350 -13.116  0.00  0.00    -0.430 OA
ATOM     19  C   UNL     1      37.309 -26.218 -12.244  0.00  0.00    +0.257 C 
ENDBRANCH  17  18
ENDBRANCH   9  12
ENDBRANCH   2   9
ENDBRANCH   1   3
BRANCH   1  21
ATOM     20  O   UNL     1      35.608 -15.786 -23.246  0.00  0.00    -0.270 OA
ATOM     21  N   UNL     1      35.184 -17.266 -21.514  0.00  0.00    -0.301 N 
ATOM     22  C   UNL     1      35.014 -16.087 -22.213  0.00  0.00    +0.247 C 
ATOM     23  H   UNL     1      34.658 -17.413 -20.694  0.00  0.00    +0.150 HD
BRANCH  22  26
ATOM     24  N   UNL     1      32.924 -11.789 -22.416  0.00  0.00    -0.318 N 
ATOM     25  N   UNL     1      34.369 -13.239 -23.281  0.00  0.00    -0.318 N 
ATOM     26  C   UNL     1      34.048 -15.126 -21.624  0.00  0.00    +0.068 C 
ATOM     27  C   UNL     1      33.832 -13.866 -22.186  0.00  0.00    +0.063 C 
ATOM     28  C   UNL     1      33.308 -15.440 -20.480  0.00  0.00    +0.006 C 
ATOM     29  C   UNL     1      32.932 -12.941 -21.664  0.00  0.00    +0.059 C 
ATOM     30  C   UNL     1      33.796 -12.002 -23.376  0.00  0.00    +0.144 C 
ATOM     31  C   UNL     1      32.398 -14.532 -19.933  0.00  0.00    +0.001 C 
ATOM     32  C   UNL     1      32.198 -13.273 -20.513  0.00  0.00    +0.016 C 
ATOM     33  H   UNL     1      32.383 -10.980 -22.268  0.00  0.00    +0.148 HD
ATOM     34  H   UNL     1      35.047 -13.614 -23.889  0.00  0.00    +0.148 HD
BRANCH  30  35
ATOM     35  C   UNL     1      34.088 -10.996 -24.413  0.00  0.00    +0.037 C 
ATOM     36  C   UNL     1      34.959  -9.824 -23.900  0.00  0.00    +0.003 C 
ATOM     37  C   UNL     1      34.740 -11.597 -25.682  0.00  0.00    +0.003 C 
ENDBRANCH  30  35
ENDBRANCH  22  26
ENDBRANCH   1  21
TORSDOF 7
ENDMDL
MODEL 8
REMARK VINA RESULT:     -11.0      1.293      2.680
REMARK  Name = 11961293
REMARK  7 active torsions:
REMARK  status: ('A' for Active; 'I' for Inactive)
REMARK    1  A    between atoms: C_1  and  C_3
REMARK    2  A    between atoms: C_1  and  N_21
REMARK    3  A    between atoms: N_2  and  C_9
REMARK    4  A    between atoms: C_9  and  C_12
REMARK    5  A    between atoms: C_17  and  O_18
REMARK    6  A    between atoms: C_22  and  C_26
REMARK    7  A    between atoms: C_30  and  C_35
REMARK                            x       y       z     vdW  Elec       q    Type
REMARK                         _______ _______ _______ _____ _____    ______ ____
ROOT
ATOM      1  C   UNL     1      33.770 -14.874 -24.219  0.00  0.00    +0.089 C 
ENDROOT
BRANCH   1   3
ATOM      2  N   UNL     1      35.194 -18.115 -21.744  0.00  0.00    +0.387 N 
ATOM      3  C   UNL     1      34.730 -15.772 -23.445  0.00  0.00    +0.015 C 
ATOM      4  C   UNL     1      35.592 -18.133 -23.157  0.00  0.00    -0.077 C 
ATOM      5  C   UNL     1      35.286 -16.759 -21.185  0.00  0.00    -0.077 C 
ATOM      6  C   UNL     1      34.707 -17.204 -23.992  0.00  0.00    -0.021 C 
ATOM      7  C   UNL     1      34.390 -15.784 -21.951  0.00  0.00    -0.021 C 
ATOM      8  H   UNL     1      34.220 -18.412 -21.687  0.00  0.00    -0.080 HD
BRANCH   2   9
ATOM      9  C   UNL     1      36.015 -19.045 -20.968  0.00  0.00    -0.077 C 
BRANCH   9  12
ATOM     10  O   UNL     1      31.948 -22.245 -17.496  0.00  0.00    -0.226 OA
ATOM     11  N   UNL     1      33.768 -22.097 -18.934  0.00  0.00    -0.246 N 
ATOM     12  C   UNL     1      35.255 -20.341 -20.693  0.00  0.00    -0.017 C 
ATOM     13  C   UNL     1      33.799 -20.048 -20.299  0.00  0.00    +0.020 C 
ATOM     14  C   UNL     1      35.949 -21.156 -19.590  0.00  0.00    +0.020 C 
ATOM     15  C   UNL     1      33.051 -21.332 -19.953  0.00  0.00    +0.097 C 
ATOM     16  C   UNL     1      35.162 -22.422 -19.257  0.00  0.00    +0.097 C 
ATOM     17  C   UNL     1      33.117 -22.514 -17.770  0.00  0.00    +0.405 C 
BRANCH  17  18
ATOM     18  O   UNL     1      33.921 -23.264 -16.954  0.00  0.00    -0.430 OA
ATOM     19  C   UNL     1      33.390 -23.581 -15.661  0.00  0.00    +0.257 C 
ENDBRANCH  17  18
ENDBRANCH   9  12
ENDBRANCH   2   9
ENDBRANCH   1   3
BRANCH   1  21
ATOM     20  O   UNL     1      33.764 -12.756 -26.157  0.00  0.00    -0.270 OA
ATOM     21  N   UNL     1      34.057 -13.469 -23.972  0.00  0.00    -0.301 N 
ATOM     22  C   UNL     1      34.027 -12.526 -24.980  0.00  0.00    +0.247 C 
ATOM     23  H   UNL     1      34.280 -13.182 -23.056  0.00  0.00    +0.150 HD
BRANCH  22  26
ATOM     24  N   UNL     1      33.193  -8.828 -22.061  0.00  0.00    -0.318 N 
ATOM     25  N   UNL     1      32.691 -10.899 -22.691  0.00  0.00    -0.318 N 
ATOM     26  C   UNL     1      34.369 -11.140 -24.570  0.00  0.00    +0.068 C 
ATOM     27  C   UNL     1      33.705 -10.499 -23.523  0.00  0.00    +0.063 C 
ATOM     28  C   UNL     1      35.377 -10.414 -25.214  0.00  0.00    +0.006 C 
ATOM     29  C   UNL     1      34.002  -9.203 -23.110  0.00  0.00    +0.059 C 
ATOM     30  C   UNL     1      32.421  -9.867 -21.836  0.00  0.00    +0.144 C 
ATOM     31  C   UNL     1      35.696  -9.112 -24.822  0.00  0.00    +0.001 C 
ATOM     32  C   UNL     1      35.016  -8.489 -23.769  0.00  0.00    +0.016 C 
ATOM     33  H   UNL     1      33.193  -7.968 -21.583  0.00  0.00    +0.148 HD
ATOM     34  H   UNL     1      32.239 -11.774 -22.707  0.00  0.00    +0.148 HD
BRANCH  30  35
ATOM     35  C   UNL     1      31.398  -9.874 -20.775  0.00  0.00    +0.037 C 
ATOM     36  C   UNL     1      30.961 -11.299 -20.356  0.00  0.00    +0.003 C 
ATOM     37  C   UNL     1      31.820  -9.081 -19.514  0.00  0.00    +0.003 C 
ENDBRANCH  30  35
ENDBRANCH  22  26
ENDBRANCH   1  21
TORSDOF 7
ENDMDL
MODEL 9
REMARK VINA RESULT:     -10.5      2.214     11.820
REMARK  Name = 11961293
REMARK  7 active torsions:
REMARK  status: ('A' for Active; 'I' for Inactive)
REMARK    1  A    between atoms: C_1  and  C_3
REMARK    2  A    between atoms: C_1  and  N_21
REMARK    3  A    between atoms: N_2  and  C_9
REMARK    4  A    between atoms: C_9  and  C_12
REMARK    5  A    between atoms: C_17  and  O_18
REMARK    6  A    between atoms: C_22  and  C_26
REMARK    7  A    between atoms: C_30  and  C_35
REMARK                            x       y       z     vdW  Elec       q    Type
REMARK                         _______ _______ _______ _____ _____    ______ ____
ROOT
ATOM      1  C   UNL     1      34.683 -20.451 -21.233  0.00  0.00    +0.089 C 
ENDROOT
BRANCH   1   3
ATOM      2  N   UNL     1      34.642 -16.367 -22.640  0.00  0.00    +0.387 N 
ATOM      3  C   UNL     1      35.191 -19.084 -21.682  0.00  0.00    +0.015 C 
ATOM      4  C   UNL     1      35.095 -16.591 -21.261  0.00  0.00    -0.077 C 
ATOM      5  C   UNL     1      35.195 -17.380 -23.550  0.00  0.00    -0.077 C 
ATOM      6  C   UNL     1      34.673 -17.974 -20.760  0.00  0.00    -0.021 C 
ATOM      7  C   UNL     1      34.775 -18.790 -23.127  0.00  0.00    -0.021 C 
ATOM      8  H   UNL     1      33.626 -16.452 -22.656  0.00  0.00    -0.080 HD
BRANCH   2   9
ATOM      9  C   UNL     1      35.008 -15.023 -23.088  0.00  0.00    -0.077 C 
BRANCH   9  12
ATOM     10  O   UNL     1      32.547  -9.410 -21.965  0.00  0.00    -0.226 OA
ATOM     11  N   UNL     1      32.408 -11.720 -22.178  0.00  0.00    -0.246 N 
ATOM     12  C   UNL     1      33.793 -14.098 -23.080  0.00  0.00    -0.017 C 
ATOM     13  C   UNL     1      34.168 -12.700 -23.594  0.00  0.00    +0.020 C 
ATOM     14  C   UNL     1      33.190 -14.001 -21.669  0.00  0.00    +0.020 C 
ATOM     15  C   UNL     1      32.977 -11.748 -23.525  0.00  0.00    +0.097 C 
ATOM     16  C   UNL     1      32.016 -13.025 -21.634  0.00  0.00    +0.097 C 
ATOM     17  C   UNL     1      32.221 -10.506 -21.512  0.00  0.00    +0.405 C 
BRANCH  17  18
ATOM     18  O   UNL     1      31.627 -10.661 -20.287  0.00  0.00    -0.430 OA
ATOM     19  C   UNL     1      31.917  -9.652 -19.312  0.00  0.00    +0.257 C 
ENDBRANCH  17  18
ENDBRANCH   9  12
ENDBRANCH   2   9
ENDBRANCH   1   3
BRANCH   1  21
ATOM     20  O   UNL     1      33.760 -22.516 -19.465  0.00  0.00    -0.270 OA
ATOM     21  N   UNL     1      35.275 -20.833 -19.960  0.00  0.00    -0.301 N 
ATOM     22  C   UNL     1      34.751 -21.846 -19.182  0.00  0.00    +0.247 C 
ATOM     23  H   UNL     1      36.076 -20.355 -19.644  0.00  0.00    +0.150 HD
BRANCH  22  26
ATOM     24  N   UNL     1      34.533 -23.419 -14.669  0.00  0.00    -0.318 N 
ATOM     25  N   UNL     1      33.496 -23.031 -16.596  0.00  0.00    -0.318 N 
ATOM     26  C   UNL     1      35.455 -22.098 -17.899  0.00  0.00    +0.068 C 
ATOM     27  C   UNL     1      34.794 -22.637 -16.793  0.00  0.00    +0.063 C 
ATOM     28  C   UNL     1      36.814 -21.808 -17.740  0.00  0.00    +0.006 C 
ATOM     29  C   UNL     1      35.422 -22.890 -15.577  0.00  0.00    +0.059 C 
ATOM     30  C   UNL     1      33.389 -23.490 -15.313  0.00  0.00    +0.144 C 
ATOM     31  C   UNL     1      37.470 -22.051 -16.531  0.00  0.00    +0.001 C 
ATOM     32  C   UNL     1      36.787 -22.592 -15.435  0.00  0.00    +0.016 C 
ATOM     33  H   UNL     1      34.714 -23.687 -13.740  0.00  0.00    +0.148 HD
ATOM     34  H   UNL     1      32.769 -22.990 -17.260  0.00  0.00    +0.148 HD
BRANCH  30  35
ATOM     35  C   UNL     1      32.163 -24.012 -14.684  0.00  0.00    +0.037 C 
ATOM     36  C   UNL     1      32.433 -24.803 -13.381  0.00  0.00    +0.003 C 
ATOM     37  C   UNL     1      31.104 -22.917 -14.405  0.00  0.00    +0.003 C 
ENDBRANCH  30  35
ENDBRANCH  22  26
ENDBRANCH   1  21
TORSDOF 7
ENDMDL
