MODEL 1
REMARK VINA RESULT:     -12.6      0.000      0.000
REMARK  Name = 9998128
REMARK  2 active torsions:
REMARK  status: ('A' for Active; 'I' for Inactive)
REMARK    1  A    between atoms: N_1  and  C_15
REMARK    2  A    between atoms: C_7  and  C_24
REMARK                            x       y       z     vdW  Elec       q    Type
REMARK                         _______ _______ _______ _____ _____    ______ ____
ROOT
ATOM      1  N   UNL     1      35.951 -23.006 -15.999  0.00  0.00    -0.290 N 
ATOM      2  N   UNL     1      33.603 -23.134 -16.076  0.00  0.00    -0.327 NA
ATOM      3  N   UNL     1      32.386 -22.275 -17.969  0.00  0.00    -0.342 NA
ATOM      4  C   UNL     1      34.779 -22.124 -17.930  0.00  0.00    +0.143 C 
ATOM      5  C   UNL     1      34.739 -22.748 -16.686  0.00  0.00    +0.184 C 
ATOM      6  C   UNL     1      33.539 -21.902 -18.551  0.00  0.00    +0.133 C 
ATOM      7  C   UNL     1      32.480 -22.871 -16.763  0.00  0.00    +0.165 C 
ATOM      8  C   UNL     1      35.979 -21.729 -18.548  0.00  0.00    -0.011 C 
ATOM      9  C   UNL     1      33.538 -21.279 -19.797  0.00  0.00    +0.029 C 
ATOM     10  C   UNL     1      35.949 -21.109 -19.793  0.00  0.00    -0.004 C 
ATOM     11  C   UNL     1      34.727 -20.884 -20.418  0.00  0.00    +0.002 C 
ATOM     12  H   UNL     1      36.664 -22.353 -16.191  0.00  0.00    +0.154 HD
ENDROOT
BRANCH   1  15
ATOM     13  N   UNL     1      37.566 -26.745 -12.292  0.00  0.00    -0.236 N 
ATOM     14  N   UNL     1      38.163 -26.016 -11.333  0.00  0.00    -0.180 NA
ATOM     15  C   UNL     1      36.334 -24.011 -15.097  0.00  0.00    +0.050 C 
ATOM     16  C   UNL     1      37.386 -24.686 -13.026  0.00  0.00    +0.037 C 
ATOM     17  C   UNL     1      37.079 -26.007 -13.335  0.00  0.00    +0.067 C 
ATOM     18  C   UNL     1      37.011 -23.666 -13.915  0.00  0.00    +0.018 C 
ATOM     19  C   UNL     1      36.041 -25.351 -15.378  0.00  0.00    +0.016 C 
ATOM     20  C   UNL     1      36.407 -26.379 -14.502  0.00  0.00    +0.017 C 
ATOM     21  C   UNL     1      38.051 -24.764 -11.783  0.00  0.00    +0.119 C 
ATOM     22  H   UNL     1      37.488 -27.725 -12.246  0.00  0.00    +0.174 HD
ENDBRANCH   1  15
BRANCH   7  24
ATOM     23  N   UNL     1      30.128 -22.731 -16.696  0.00  0.00    -0.398 NA
ATOM     24  C   UNL     1      31.242 -23.268 -16.146  0.00  0.00    +0.197 C 
ATOM     25  C   UNL     1      31.225 -24.140 -15.067  0.00  0.00    +0.098 C 
ATOM     26  C   UNL     1      28.949 -23.084 -16.138  0.00  0.00    +0.110 C 
ATOM     27  C   UNL     1      29.993 -24.480 -14.520  0.00  0.00    -0.016 C 
ATOM     28  C   UNL     1      28.828 -23.946 -15.060  0.00  0.00    +0.023 C 
ATOM     29  C   UNL     1      27.719 -22.492 -16.742  0.00  0.00    +0.066 C 
ENDBRANCH   7  24
TORSDOF 2
ENDMDL
MODEL 2
REMARK VINA RESULT:     -12.1      1.390      4.830
REMARK  Name = 9998128
REMARK  2 active torsions:
REMARK  status: ('A' for Active; 'I' for Inactive)
REMARK    1  A    between atoms: N_1  and  C_15
REMARK    2  A    between atoms: C_7  and  C_24
REMARK                            x       y       z     vdW  Elec       q    Type
REMARK                         _______ _______ _______ _____ _____    ______ ____
ROOT
ATOM      1  N   UNL     1      33.907 -24.951 -14.143  0.00  0.00    -0.290 N 
ATOM      2  N   UNL     1      33.932 -23.592 -16.064  0.00  0.00    -0.327 NA
ATOM      3  N   UNL     1      31.879 -22.740 -16.995  0.00  0.00    -0.342 NA
ATOM      4  C   UNL     1      31.809 -24.122 -15.036  0.00  0.00    +0.143 C 
ATOM      5  C   UNL     1      33.198 -24.198 -15.113  0.00  0.00    +0.184 C 
ATOM      6  C   UNL     1      31.176 -23.359 -16.030  0.00  0.00    +0.133 C 
ATOM      7  C   UNL     1      33.219 -22.890 -16.960  0.00  0.00    +0.165 C 
ATOM      8  C   UNL     1      31.064 -24.765 -14.033  0.00  0.00    -0.011 C 
ATOM      9  C   UNL     1      29.787 -23.260 -15.987  0.00  0.00    +0.029 C 
ATOM     10  C   UNL     1      29.678 -24.650 -14.013  0.00  0.00    -0.004 C 
ATOM     11  C   UNL     1      29.039 -23.896 -14.992  0.00  0.00    +0.002 C 
ATOM     12  H   UNL     1      33.399 -25.714 -13.783  0.00  0.00    +0.154 HD
ENDROOT
BRANCH   1  15
ATOM     13  N   UNL     1      38.863 -24.202 -11.862  0.00  0.00    -0.236 N 
ATOM     14  N   UNL     1      38.707 -23.110 -11.093  0.00  0.00    -0.180 NA
ATOM     15  C   UNL     1      35.193 -24.819 -13.598  0.00  0.00    +0.050 C 
ATOM     16  C   UNL     1      36.764 -23.652 -12.175  0.00  0.00    +0.037 C 
ATOM     17  C   UNL     1      37.735 -24.579 -12.537  0.00  0.00    +0.067 C 
ATOM     18  C   UNL     1      35.470 -23.767 -12.709  0.00  0.00    +0.018 C 
ATOM     19  C   UNL     1      36.196 -25.735 -13.942  0.00  0.00    +0.016 C 
ATOM     20  C   UNL     1      37.489 -25.635 -13.418  0.00  0.00    +0.017 C 
ATOM     21  C   UNL     1      37.428 -22.779 -11.287  0.00  0.00    +0.119 C 
ATOM     22  H   UNL     1      39.717 -24.687 -11.931  0.00  0.00    +0.174 HD
ENDBRANCH   1  15
BRANCH   7  24
ATOM     23  N   UNL     1      33.218 -21.534 -18.888  0.00  0.00    -0.398 NA
ATOM     24  C   UNL     1      33.965 -22.225 -17.995  0.00  0.00    +0.197 C 
ATOM     25  C   UNL     1      35.349 -22.307 -18.048  0.00  0.00    +0.098 C 
ATOM     26  C   UNL     1      33.891 -20.899 -19.874  0.00  0.00    +0.110 C 
ATOM     27  C   UNL     1      36.005 -21.640 -19.076  0.00  0.00    -0.016 C 
ATOM     28  C   UNL     1      35.269 -20.920 -20.011  0.00  0.00    +0.023 C 
ATOM     29  C   UNL     1      33.069 -20.136 -20.859  0.00  0.00    +0.066 C 
ENDBRANCH   7  24
TORSDOF 2
ENDMDL
MODEL 3
REMARK VINA RESULT:     -12.0      2.054      6.346
REMARK  Name = 9998128
REMARK  2 active torsions:
REMARK  status: ('A' for Active; 'I' for Inactive)
REMARK    1  A    between atoms: N_1  and  C_15
REMARK    2  A    between atoms: C_7  and  C_24
REMARK                            x       y       z     vdW  Elec       q    Type
REMARK                         _______ _______ _______ _____ _____    ______ ____
ROOT
ATOM      1  N   UNL     1      35.411 -22.604 -17.768  0.00  0.00    -0.290 N 
ATOM      2  N   UNL     1      33.396 -23.073 -16.646  0.00  0.00    -0.327 NA
ATOM      3  N   UNL     1      33.409 -23.818 -14.355  0.00  0.00    -0.342 NA
ATOM      4  C   UNL     1      35.484 -23.351 -15.462  0.00  0.00    +0.143 C 
ATOM      5  C   UNL     1      34.740 -23.022 -16.592  0.00  0.00    +0.184 C 
ATOM      6  C   UNL     1      34.752 -23.756 -14.334  0.00  0.00    +0.133 C 
ATOM      7  C   UNL     1      32.804 -23.473 -15.510  0.00  0.00    +0.165 C 
ATOM      8  C   UNL     1      36.889 -23.291 -15.429  0.00  0.00    -0.011 C 
ATOM      9  C   UNL     1      35.462 -24.094 -13.185  0.00  0.00    +0.029 C 
ATOM     10  C   UNL     1      37.573 -23.634 -14.268  0.00  0.00    -0.004 C 
ATOM     11  C   UNL     1      36.858 -24.036 -13.144  0.00  0.00    +0.002 C 
ATOM     12  H   UNL     1      36.307 -22.998 -17.876  0.00  0.00    +0.154 HD
ENDROOT
BRANCH   1  15
ATOM     13  N   UNL     1      34.253 -19.142 -21.892  0.00  0.00    -0.236 N 
ATOM     14  N   UNL     1      35.457 -18.694 -22.289  0.00  0.00    -0.180 NA
ATOM     15  C   UNL     1      35.045 -21.737 -18.809  0.00  0.00    +0.050 C 
ATOM     16  C   UNL     1      35.651 -20.175 -20.555  0.00  0.00    +0.037 C 
ATOM     17  C   UNL     1      34.301 -20.033 -20.856  0.00  0.00    +0.067 C 
ATOM     18  C   UNL     1      36.038 -21.039 -19.517  0.00  0.00    +0.018 C 
ATOM     19  C   UNL     1      33.693 -21.570 -19.138  0.00  0.00    +0.016 C 
ATOM     20  C   UNL     1      33.292 -20.714 -20.169  0.00  0.00    +0.017 C 
ATOM     21  C   UNL     1      36.304 -19.325 -21.473  0.00  0.00    +0.119 C 
ATOM     22  H   UNL     1      33.411 -18.853 -22.313  0.00  0.00    +0.174 HD
ENDBRANCH   1  15
BRANCH   7  24
ATOM     23  N   UNL     1      30.833 -24.580 -14.841  0.00  0.00    -0.398 NA
ATOM     24  C   UNL     1      31.366 -23.542 -15.525  0.00  0.00    +0.197 C 
ATOM     25  C   UNL     1      30.610 -22.596 -16.202  0.00  0.00    +0.098 C 
ATOM     26  C   UNL     1      29.484 -24.673 -14.836  0.00  0.00    +0.110 C 
ATOM     27  C   UNL     1      29.226 -22.724 -16.175  0.00  0.00    -0.016 C 
ATOM     28  C   UNL     1      28.644 -23.780 -15.480  0.00  0.00    +0.023 C 
ATOM     29  C   UNL     1      28.895 -25.817 -14.082  0.00  0.00    +0.066 C 
ENDBRANCH   7  24
TORSDOF 2
ENDMDL
MODEL 4
REMARK VINA RESULT:     -11.5      1.944      6.033
REMARK  Name = 9998128
REMARK  2 active torsions:
REMARK  status: ('A' for Active; 'I' for Inactive)
REMARK    1  A    between atoms: N_1  and  C_15
REMARK    2  A    between atoms: C_7  and  C_24
REMARK                            x       y       z     vdW  Elec       q    Type
REMARK                         _______ _______ _______ _____ _____    ______ ____
ROOT
ATOM      1  N   UNL     1      36.022 -23.265 -16.063  0.00  0.00    -0.290 N 
ATOM      2  N   UNL     1      33.896 -23.794 -15.206  0.00  0.00    -0.327 NA
ATOM      3  N   UNL     1      33.612 -24.352 -12.879  0.00  0.00    -0.342 NA
ATOM      4  C   UNL     1      35.796 -23.819 -13.712  0.00  0.00    +0.143 C 
ATOM      5  C   UNL     1      35.211 -23.638 -14.963  0.00  0.00    +0.184 C 
ATOM      6  C   UNL     1      34.930 -24.187 -12.670  0.00  0.00    +0.133 C 
ATOM      7  C   UNL     1      33.167 -24.147 -14.135  0.00  0.00    +0.165 C 
ATOM      8  C   UNL     1      37.173 -23.649 -13.483  0.00  0.00    -0.011 C 
ATOM      9  C   UNL     1      35.480 -24.377 -11.405  0.00  0.00    +0.029 C 
ATOM     10  C   UNL     1      37.696 -23.846 -12.209  0.00  0.00    -0.004 C 
ATOM     11  C   UNL     1      36.847 -24.210 -11.169  0.00  0.00    +0.002 C 
ATOM     12  H   UNL     1      36.948 -23.597 -16.005  0.00  0.00    +0.154 HD
ENDROOT
BRANCH   1  15
ATOM     13  N   UNL     1      34.724 -20.381 -20.572  0.00  0.00    -0.236 N 
ATOM     14  N   UNL     1      33.389 -20.502 -20.663  0.00  0.00    -0.180 NA
ATOM     15  C   UNL     1      35.763 -22.514 -17.220  0.00  0.00    +0.050 C 
ATOM     16  C   UNL     1      34.204 -21.626 -18.844  0.00  0.00    +0.037 C 
ATOM     17  C   UNL     1      35.275 -21.032 -19.503  0.00  0.00    +0.067 C 
ATOM     18  C   UNL     1      34.443 -22.381 -17.683  0.00  0.00    +0.018 C 
ATOM     19  C   UNL     1      36.818 -21.903 -17.909  0.00  0.00    +0.016 C 
ATOM     20  C   UNL     1      36.597 -21.148 -19.065  0.00  0.00    +0.017 C 
ATOM     21  C   UNL     1      33.076 -21.260 -19.609  0.00  0.00    +0.119 C 
ATOM     22  H   UNL     1      35.259 -19.867 -21.220  0.00  0.00    +0.174 HD
ENDBRANCH   1  15
BRANCH   7  24
ATOM     23  N   UNL     1      31.182 -23.424 -15.181  0.00  0.00    -0.398 NA
ATOM     24  C   UNL     1      31.755 -24.325 -14.351  0.00  0.00    +0.197 C 
ATOM     25  C   UNL     1      31.060 -25.357 -13.735  0.00  0.00    +0.098 C 
ATOM     26  C   UNL     1      29.855 -23.565 -15.403  0.00  0.00    +0.110 C 
ATOM     27  C   UNL     1      29.698 -25.470 -13.987  0.00  0.00    -0.016 C 
ATOM     28  C   UNL     1      29.076 -24.560 -14.837  0.00  0.00    +0.023 C 
ATOM     29  C   UNL     1      29.222 -22.572 -16.319  0.00  0.00    +0.066 C 
ENDBRANCH   7  24
TORSDOF 2
ENDMDL
MODEL 5
REMARK VINA RESULT:     -11.0      1.393      5.092
REMARK  Name = 9998128
REMARK  2 active torsions:
REMARK  status: ('A' for Active; 'I' for Inactive)
REMARK    1  A    between atoms: N_1  and  C_15
REMARK    2  A    between atoms: C_7  and  C_24
REMARK                            x       y       z     vdW  Elec       q    Type
REMARK                         _______ _______ _______ _____ _____    ______ ____
ROOT
ATOM      1  N   UNL     1      34.026 -24.787 -15.139  0.00  0.00    -0.290 N 
ATOM      2  N   UNL     1      33.808 -23.237 -16.896  0.00  0.00    -0.327 NA
ATOM      3  N   UNL     1      31.673 -22.239 -17.396  0.00  0.00    -0.342 NA
ATOM      4  C   UNL     1      31.853 -23.815 -15.598  0.00  0.00    +0.143 C 
ATOM      5  C   UNL     1      33.207 -23.920 -15.903  0.00  0.00    +0.184 C 
ATOM      6  C   UNL     1      31.104 -22.935 -16.396  0.00  0.00    +0.133 C 
ATOM      7  C   UNL     1      32.994 -22.427 -17.591  0.00  0.00    +0.165 C 
ATOM      8  C   UNL     1      31.247 -24.539 -14.556  0.00  0.00    -0.011 C 
ATOM      9  C   UNL     1      29.745 -22.804 -16.122  0.00  0.00    +0.029 C 
ATOM     10  C   UNL     1      29.888 -24.389 -14.303  0.00  0.00    -0.004 C 
ATOM     11  C   UNL     1      29.135 -23.520 -15.088  0.00  0.00    +0.002 C 
ATOM     12  H   UNL     1      33.549 -25.570 -14.779  0.00  0.00    +0.154 HD
ENDROOT
BRANCH   1  15
ATOM     13  N   UNL     1      39.367 -24.922 -13.801  0.00  0.00    -0.236 N 
ATOM     14  N   UNL     1      39.662 -26.232 -13.767  0.00  0.00    -0.180 NA
ATOM     15  C   UNL     1      35.387 -24.748 -14.797  0.00  0.00    +0.050 C 
ATOM     16  C   UNL     1      37.465 -25.887 -14.308  0.00  0.00    +0.037 C 
ATOM     17  C   UNL     1      38.066 -24.647 -14.120  0.00  0.00    +0.067 C 
ATOM     18  C   UNL     1      36.104 -25.948 -14.652  0.00  0.00    +0.018 C 
ATOM     19  C   UNL     1      36.023 -23.516 -14.599  0.00  0.00    +0.016 C 
ATOM     20  C   UNL     1      37.377 -23.439 -14.256  0.00  0.00    +0.017 C 
ATOM     21  C   UNL     1      38.501 -26.816 -14.076  0.00  0.00    +0.119 C 
ATOM     22  H   UNL     1      40.032 -24.220 -13.613  0.00  0.00    +0.174 HD
ENDBRANCH   1  15
BRANCH   7  24
ATOM     23  N   UNL     1      34.943 -21.776 -18.746  0.00  0.00    -0.398 NA
ATOM     24  C   UNL     1      33.596 -21.678 -18.663  0.00  0.00    +0.197 C 
ATOM     25  C   UNL     1      32.823 -20.919 -19.530  0.00  0.00    +0.098 C 
ATOM     26  C   UNL     1      35.539 -21.082 -19.743  0.00  0.00    +0.110 C 
ATOM     27  C   UNL     1      33.471 -20.220 -20.541  0.00  0.00    -0.016 C 
ATOM     28  C   UNL     1      34.856 -20.298 -20.657  0.00  0.00    +0.023 C 
ATOM     29  C   UNL     1      37.024 -21.189 -19.836  0.00  0.00    +0.066 C 
ENDBRANCH   7  24
TORSDOF 2
ENDMDL
MODEL 6
REMARK VINA RESULT:     -10.7      2.109      7.343
REMARK  Name = 9998128
REMARK  2 active torsions:
REMARK  status: ('A' for Active; 'I' for Inactive)
REMARK    1  A    between atoms: N_1  and  C_15
REMARK    2  A    between atoms: C_7  and  C_24
REMARK                            x       y       z     vdW  Elec       q    Type
REMARK                         _______ _______ _______ _____ _____    ______ ____
ROOT
ATOM      1  N   UNL     1      32.271 -22.372 -17.097  0.00  0.00    -0.290 N 
ATOM      2  N   UNL     1      33.514 -23.087 -15.232  0.00  0.00    -0.327 NA
ATOM      3  N   UNL     1      32.555 -24.602 -13.623  0.00  0.00    -0.342 NA
ATOM      4  C   UNL     1      31.253 -23.897 -15.509  0.00  0.00    +0.143 C 
ATOM      5  C   UNL     1      32.352 -23.140 -15.909  0.00  0.00    +0.184 C 
ATOM      6  C   UNL     1      31.408 -24.633 -14.323  0.00  0.00    +0.133 C 
ATOM      7  C   UNL     1      33.546 -23.831 -14.115  0.00  0.00    +0.165 C 
ATOM      8  C   UNL     1      30.049 -23.935 -16.233  0.00  0.00    -0.011 C 
ATOM      9  C   UNL     1      30.330 -25.401 -13.890  0.00  0.00    +0.029 C 
ATOM     10  C   UNL     1      28.989 -24.712 -15.778  0.00  0.00    -0.004 C 
ATOM     11  C   UNL     1      29.129 -25.446 -14.605  0.00  0.00    +0.002 C 
ATOM     12  H   UNL     1      31.361 -22.052 -17.302  0.00  0.00    +0.154 HD
ENDROOT
BRANCH   1  15
ATOM     13  N   UNL     1      35.852 -20.662 -20.916  0.00  0.00    -0.236 N 
ATOM     14  N   UNL     1      35.128 -19.843 -21.698  0.00  0.00    -0.180 NA
ATOM     15  C   UNL     1      33.235 -21.976 -18.037  0.00  0.00    +0.050 C 
ATOM     16  C   UNL     1      33.860 -20.707 -20.000  0.00  0.00    +0.037 C 
ATOM     17  C   UNL     1      35.150 -21.213 -19.880  0.00  0.00    +0.067 C 
ATOM     18  C   UNL     1      32.881 -21.090 -19.068  0.00  0.00    +0.018 C 
ATOM     19  C   UNL     1      34.543 -22.468 -17.946  0.00  0.00    +0.016 C 
ATOM     20  C   UNL     1      35.529 -22.096 -18.866  0.00  0.00    +0.017 C 
ATOM     21  C   UNL     1      33.917 -19.873 -21.137  0.00  0.00    +0.119 C 
ATOM     22  H   UNL     1      36.805 -20.849 -21.077  0.00  0.00    +0.174 HD
ENDBRANCH   1  15
BRANCH   7  24
ATOM     23  N   UNL     1      34.658 -24.185 -12.067  0.00  0.00    -0.398 NA
ATOM     24  C   UNL     1      34.771 -23.804 -13.360  0.00  0.00    +0.197 C 
ATOM     25  C   UNL     1      35.966 -23.409 -13.945  0.00  0.00    +0.098 C 
ATOM     26  C   UNL     1      35.791 -24.169 -11.330  0.00  0.00    +0.110 C 
ATOM     27  C   UNL     1      37.110 -23.405 -13.156  0.00  0.00    -0.016 C 
ATOM     28  C   UNL     1      37.030 -23.792 -11.822  0.00  0.00    +0.023 C 
ATOM     29  C   UNL     1      35.668 -24.589  -9.904  0.00  0.00    +0.066 C 
ENDBRANCH   7  24
TORSDOF 2
ENDMDL
MODEL 7
REMARK VINA RESULT:     -10.4      1.568      6.889
REMARK  Name = 9998128
REMARK  2 active torsions:
REMARK  status: ('A' for Active; 'I' for Inactive)
REMARK    1  A    between atoms: N_1  and  C_15
REMARK    2  A    between atoms: C_7  and  C_24
REMARK                            x       y       z     vdW  Elec       q    Type
REMARK                         _______ _______ _______ _____ _____    ______ ____
ROOT
ATOM      1  N   UNL     1      32.323 -22.911 -17.179  0.00  0.00    -0.290 N 
ATOM      2  N   UNL     1      34.029 -23.416 -15.639  0.00  0.00    -0.327 NA
ATOM      3  N   UNL     1      36.323 -22.861 -16.120  0.00  0.00    -0.342 NA
ATOM      4  C   UNL     1      34.615 -22.330 -17.717  0.00  0.00    +0.143 C 
ATOM      5  C   UNL     1      33.696 -22.887 -16.831  0.00  0.00    +0.184 C 
ATOM      6  C   UNL     1      35.957 -22.340 -17.304  0.00  0.00    +0.133 C 
ATOM      7  C   UNL     1      35.339 -23.370 -15.351  0.00  0.00    +0.165 C 
ATOM      8  C   UNL     1      34.244 -21.783 -18.958  0.00  0.00    -0.011 C 
ATOM      9  C   UNL     1      36.906 -21.792 -18.164  0.00  0.00    +0.029 C 
ATOM     10  C   UNL     1      35.212 -21.242 -19.797  0.00  0.00    -0.004 C 
ATOM     11  C   UNL     1      36.545 -21.246 -19.399  0.00  0.00    +0.002 C 
ATOM     12  H   UNL     1      32.159 -22.971 -18.149  0.00  0.00    +0.154 HD
ENDROOT
BRANCH   1  15
ATOM     13  N   UNL     1      27.572 -22.691 -14.401  0.00  0.00    -0.236 N 
ATOM     14  N   UNL     1      26.647 -22.487 -15.354  0.00  0.00    -0.180 NA
ATOM     15  C   UNL     1      31.150 -22.866 -16.409  0.00  0.00    +0.050 C 
ATOM     16  C   UNL     1      28.749 -22.620 -16.250  0.00  0.00    +0.037 C 
ATOM     17  C   UNL     1      28.853 -22.780 -14.873  0.00  0.00    +0.067 C 
ATOM     18  C   UNL     1      29.911 -22.662 -17.038  0.00  0.00    +0.018 C 
ATOM     19  C   UNL     1      31.220 -23.024 -15.019  0.00  0.00    +0.016 C 
ATOM     20  C   UNL     1      30.072 -22.984 -14.221  0.00  0.00    +0.017 C 
ATOM     21  C   UNL     1      27.367 -22.444 -16.478  0.00  0.00    +0.119 C 
ATOM     22  H   UNL     1      27.347 -22.770 -13.446  0.00  0.00    +0.174 HD
ENDBRANCH   1  15
BRANCH   7  24
ATOM     23  N   UNL     1      36.987 -24.447 -14.054  0.00  0.00    -0.398 NA
ATOM     24  C   UNL     1      35.739 -23.926 -14.085  0.00  0.00    +0.197 C 
ATOM     25  C   UNL     1      34.881 -23.912 -12.993  0.00  0.00    +0.098 C 
ATOM     26  C   UNL     1      37.391 -24.977 -12.877  0.00  0.00    +0.110 C 
ATOM     27  C   UNL     1      35.332 -24.466 -11.801  0.00  0.00    -0.016 C 
ATOM     28  C   UNL     1      36.611 -25.011 -11.733  0.00  0.00    +0.023 C 
ATOM     29  C   UNL     1      38.767 -25.553 -12.841  0.00  0.00    +0.066 C 
ENDBRANCH   7  24
TORSDOF 2
ENDMDL
MODEL 8
REMARK VINA RESULT:      -9.8      1.823      6.312
REMARK  Name = 9998128
REMARK  2 active torsions:
REMARK  status: ('A' for Active; 'I' for Inactive)
REMARK    1  A    between atoms: N_1  and  C_15
REMARK    2  A    between atoms: C_7  and  C_24
REMARK                            x       y       z     vdW  Elec       q    Type
REMARK                         _______ _______ _______ _____ _____    ______ ____
ROOT
ATOM      1  N   UNL     1      33.198 -23.181 -17.151  0.00  0.00    -0.290 N 
ATOM      2  N   UNL     1      35.236 -23.376 -15.991  0.00  0.00    -0.327 NA
ATOM      3  N   UNL     1      37.230 -22.310 -16.822  0.00  0.00    -0.342 NA
ATOM      4  C   UNL     1      35.174 -22.087 -18.035  0.00  0.00    +0.143 C 
ATOM      5  C   UNL     1      34.578 -22.875 -17.053  0.00  0.00    +0.184 C 
ATOM      6  C   UNL     1      36.543 -21.824 -17.872  0.00  0.00    +0.133 C 
ATOM      7  C   UNL     1      36.539 -23.059 -15.939  0.00  0.00    +0.165 C 
ATOM      8  C   UNL     1      34.465 -21.575 -19.136  0.00  0.00    -0.011 C 
ATOM      9  C   UNL     1      37.174 -21.041 -18.834  0.00  0.00    +0.029 C 
ATOM     10  C   UNL     1      35.120 -20.795 -20.083  0.00  0.00    -0.004 C 
ATOM     11  C   UNL     1      36.477 -20.527 -19.932  0.00  0.00    +0.002 C 
ATOM     12  H   UNL     1      32.866 -23.229 -18.078  0.00  0.00    +0.154 HD
ENDROOT
BRANCH   1  15
ATOM     13  N   UNL     1      29.526 -24.315 -13.205  0.00  0.00    -0.236 N 
ATOM     14  N   UNL     1      30.221 -25.039 -12.312  0.00  0.00    -0.180 NA
ATOM     15  C   UNL     1      32.212 -23.432 -16.184  0.00  0.00    +0.050 C 
ATOM     16  C   UNL     1      31.532 -24.426 -14.085  0.00  0.00    +0.037 C 
ATOM     17  C   UNL     1      30.255 -23.916 -14.292  0.00  0.00    +0.067 C 
ATOM     18  C   UNL     1      32.532 -24.185 -15.041  0.00  0.00    +0.018 C 
ATOM     19  C   UNL     1      30.915 -22.934 -16.361  0.00  0.00    +0.016 C 
ATOM     20  C   UNL     1      29.908 -23.165 -15.419  0.00  0.00    +0.017 C 
ATOM     21  C   UNL     1      31.441 -25.104 -12.851  0.00  0.00    +0.119 C 
ATOM     22  H   UNL     1      28.575 -24.091 -13.087  0.00  0.00    +0.174 HD
ENDBRANCH   1  15
BRANCH   7  24
ATOM     23  N   UNL     1      38.340 -24.353 -15.140  0.00  0.00    -0.398 NA
ATOM     24  C   UNL     1      37.281 -23.575 -14.819  0.00  0.00    +0.197 C 
ATOM     25  C   UNL     1      36.911 -23.277 -13.515  0.00  0.00    +0.098 C 
ATOM     26  C   UNL     1      39.057 -24.853 -14.109  0.00  0.00    +0.110 C 
ATOM     27  C   UNL     1      37.672 -23.810 -12.481  0.00  0.00    -0.016 C 
ATOM     28  C   UNL     1      38.769 -24.614 -12.775  0.00  0.00    +0.023 C 
ATOM     29  C   UNL     1      40.225 -25.712 -14.461  0.00  0.00    +0.066 C 
ENDBRANCH   7  24
TORSDOF 2
ENDMDL
