MODEL 1
REMARK VINA RESULT:     -12.3      0.000      0.000
REMARK  Name = 11691242
REMARK  5 active torsions:
REMARK  status: ('A' for Active; 'I' for Inactive)
REMARK    1  A    between atoms: N_1  and  C_25
REMARK    2  A    between atoms: C_5  and  N_11
REMARK    3  A    between atoms: N_12  and  C_17
REMARK    4  A    between atoms: C_18  and  O_23
REMARK    5  A    between atoms: C_25  and  C_28
REMARK                            x       y       z     vdW  Elec       q    Type
REMARK                         _______ _______ _______ _____ _____    ______ ____
ROOT
ATOM      1  N   UNL     1      35.262 -17.053 -22.179  0.00  0.00    -0.282 N 
ATOM      2  C   UNL     1      34.704 -16.293 -23.182  0.00  0.00    +0.053 C 
ATOM      3  C   UNL     1      34.038 -15.229 -22.570  0.00  0.00    +0.028 C 
ATOM      4  C   UNL     1      34.973 -16.507 -20.957  0.00  0.00    +0.066 C 
ATOM      5  C   UNL     1      33.371 -14.289 -23.380  0.00  0.00    +0.053 C 
ATOM      6  C   UNL     1      34.216 -15.378 -21.165  0.00  0.00    +0.019 C 
ATOM      7  C   UNL     1      34.737 -16.464 -24.570  0.00  0.00    +0.015 C 
ATOM      8  C   UNL     1      33.396 -14.448 -24.771  0.00  0.00    +0.015 C 
ATOM      9  C   UNL     1      34.068 -15.519 -25.355  0.00  0.00    +0.003 C 
ENDROOT
BRANCH   5  11
ATOM     10  O   UNL     1      34.199 -11.434 -23.088  0.00  0.00    -0.252 OA
ATOM     11  N   UNL     1      32.691 -13.207 -22.820  0.00  0.00    -0.268 N 
ATOM     12  N   UNL     1      32.120 -11.099 -22.070  0.00  0.00    -0.266 N 
ATOM     13  C   UNL     1      33.117 -11.862 -22.699  0.00  0.00    +0.308 C 
ATOM     14  H   UNL     1      31.795 -13.404 -22.461  0.00  0.00    +0.156 HD
ATOM     15  H   UNL     1      31.303 -11.583 -21.813  0.00  0.00    +0.157 HD
BRANCH  12  17
ATOM     16 BR   UNL     1      32.314  -6.174 -23.910  0.00  0.00    -0.049 Br
ATOM     17  C   UNL     1      32.147  -9.718 -21.760  0.00  0.00    +0.086 C 
ATOM     18  C   UNL     1      32.116  -9.305 -20.437  0.00  0.00    +0.152 C 
ATOM     19  C   UNL     1      32.203  -8.803 -22.799  0.00  0.00    +0.024 C 
ATOM     20  C   UNL     1      32.142  -7.941 -20.147  0.00  0.00    +0.039 C 
ATOM     21  C   UNL     1      32.230  -7.439 -22.508  0.00  0.00    +0.036 C 
ATOM     22  C   UNL     1      32.199  -7.008 -21.182  0.00  0.00    +0.010 C 
BRANCH  18  23
ATOM     23  O   UNL     1      32.061 -10.201 -19.412  0.00  0.00    -0.470 OA
ATOM     24  C   UNL     1      30.779 -10.734 -19.084  0.00  0.00    +0.253 C 
ENDBRANCH  18  23
ENDBRANCH  12  17
ENDBRANCH   5  11
BRANCH   1  25
ATOM     25  C   UNL     1      36.040 -18.258 -22.370  0.00  0.00    +0.122 C 
BRANCH  25  28
ATOM     26  N   UNL     1      35.066 -21.236 -19.447  0.00  0.00    -0.230 NA
ATOM     27  N   UNL     1      32.758 -20.989 -19.985  0.00  0.00    -0.343 N 
ATOM     28  C   UNL     1      35.697 -19.303 -21.344  0.00  0.00    +0.002 C 
ATOM     29  C   UNL     1      34.376 -19.658 -21.143  0.00  0.00    +0.031 C 
ATOM     30  C   UNL     1      36.709 -19.898 -20.611  0.00  0.00    +0.018 C 
ATOM     31  C   UNL     1      34.113 -20.626 -20.187  0.00  0.00    +0.125 C 
ATOM     32  C   UNL     1      36.342 -20.855 -19.679  0.00  0.00    +0.100 C 
ATOM     33  H   UNL     1      32.527 -21.673 -19.316  0.00  0.00    +0.144 HD
ATOM     34  H   UNL     1      32.049 -20.557 -20.515  0.00  0.00    +0.144 HD
ENDBRANCH  25  28
ENDBRANCH   1  25
TORSDOF 5
ENDMDL
MODEL 2
REMARK VINA RESULT:     -11.1      5.473      9.468
REMARK  Name = 11691242
REMARK  5 active torsions:
REMARK  status: ('A' for Active; 'I' for Inactive)
REMARK    1  A    between atoms: N_1  and  C_25
REMARK    2  A    between atoms: C_5  and  N_11
REMARK    3  A    between atoms: N_12  and  C_17
REMARK    4  A    between atoms: C_18  and  O_23
REMARK    5  A    between atoms: C_25  and  C_28
REMARK                            x       y       z     vdW  Elec       q    Type
REMARK                         _______ _______ _______ _____ _____    ______ ____
ROOT
ATOM      1  N   UNL     1      36.304 -22.823 -15.437  0.00  0.00    -0.282 N 
ATOM      2  C   UNL     1      35.405 -22.830 -16.479  0.00  0.00    +0.053 C 
ATOM      3  C   UNL     1      35.892 -21.950 -17.448  0.00  0.00    +0.028 C 
ATOM      4  C   UNL     1      37.339 -21.971 -15.712  0.00  0.00    +0.066 C 
ATOM      5  C   UNL     1      35.152 -21.767 -18.633  0.00  0.00    +0.053 C 
ATOM      6  C   UNL     1      37.113 -21.414 -16.949  0.00  0.00    +0.019 C 
ATOM      7  C   UNL     1      34.211 -23.542 -16.638  0.00  0.00    +0.015 C 
ATOM      8  C   UNL     1      33.955 -22.472 -18.805  0.00  0.00    +0.015 C 
ATOM      9  C   UNL     1      33.493 -23.346 -17.822  0.00  0.00    +0.003 C 
ENDROOT
BRANCH   5  11
ATOM     10  O   UNL     1      33.640 -19.756 -20.243  0.00  0.00    -0.252 OA
ATOM     11  N   UNL     1      35.592 -20.899 -19.633  0.00  0.00    -0.268 N 
ATOM     12  N   UNL     1      35.681 -19.289 -21.285  0.00  0.00    -0.266 N 
ATOM     13  C   UNL     1      34.844 -19.956 -20.377  0.00  0.00    +0.308 C 
ATOM     14  H   UNL     1      36.552 -20.949 -19.850  0.00  0.00    +0.156 HD
ATOM     15  H   UNL     1      36.627 -19.557 -21.278  0.00  0.00    +0.157 HD
BRANCH  12  17
ATOM     16 BR   UNL     1      34.508 -14.214 -22.026  0.00  0.00    -0.049 Br
ATOM     17  C   UNL     1      35.330 -18.276 -22.210  0.00  0.00    +0.086 C 
ATOM     18  C   UNL     1      35.191 -18.584 -23.555  0.00  0.00    +0.152 C 
ATOM     19  C   UNL     1      35.134 -16.986 -21.743  0.00  0.00    +0.024 C 
ATOM     20  C   UNL     1      34.846 -17.577 -24.454  0.00  0.00    +0.039 C 
ATOM     21  C   UNL     1      34.788 -15.978 -22.643  0.00  0.00    +0.036 C 
ATOM     22  C   UNL     1      34.645 -16.273 -23.999  0.00  0.00    +0.010 C 
BRANCH  18  23
ATOM     23  O   UNL     1      35.382 -19.852 -24.018  0.00  0.00    -0.470 OA
ATOM     24  C   UNL     1      34.376 -20.386 -24.877  0.00  0.00    +0.253 C 
ENDBRANCH  18  23
ENDBRANCH  12  17
ENDBRANCH   5  11
BRANCH   1  25
ATOM     25  C   UNL     1      36.186 -23.595 -14.219  0.00  0.00    +0.122 C 
BRANCH  25  28
ATOM     26  N   UNL     1      38.381 -27.267 -14.469  0.00  0.00    -0.230 NA
ATOM     27  N   UNL     1      40.316 -26.150 -13.644  0.00  0.00    -0.343 N 
ATOM     28  C   UNL     1      36.957 -24.884 -14.307  0.00  0.00    +0.002 C 
ATOM     29  C   UNL     1      38.288 -24.913 -13.931  0.00  0.00    +0.031 C 
ATOM     30  C   UNL     1      36.326 -26.027 -14.762  0.00  0.00    +0.018 C 
ATOM     31  C   UNL     1      38.953 -26.124 -14.030  0.00  0.00    +0.125 C 
ATOM     32  C   UNL     1      37.079 -27.189 -14.824  0.00  0.00    +0.100 C 
ATOM     33  H   UNL     1      40.827 -26.990 -13.697  0.00  0.00    +0.144 HD
ATOM     34  H   UNL     1      40.752 -25.328 -13.320  0.00  0.00    +0.144 HD
ENDBRANCH  25  28
ENDBRANCH   1  25
TORSDOF 5
ENDMDL
MODEL 3
REMARK VINA RESULT:     -11.0      6.706     12.148
REMARK  Name = 11691242
REMARK  5 active torsions:
REMARK  status: ('A' for Active; 'I' for Inactive)
REMARK    1  A    between atoms: N_1  and  C_25
REMARK    2  A    between atoms: C_5  and  N_11
REMARK    3  A    between atoms: N_12  and  C_17
REMARK    4  A    between atoms: C_18  and  O_23
REMARK    5  A    between atoms: C_25  and  C_28
REMARK                            x       y       z     vdW  Elec       q    Type
REMARK                         _______ _______ _______ _____ _____    ______ ____
ROOT
ATOM      1  N   UNL     1      35.855 -19.006 -21.498  0.00  0.00    -0.282 N 
ATOM      2  C   UNL     1      35.123 -19.904 -20.754  0.00  0.00    +0.053 C 
ATOM      3  C   UNL     1      35.998 -20.482 -19.832  0.00  0.00    +0.028 C 
ATOM      4  C   UNL     1      37.158 -18.997 -21.079  0.00  0.00    +0.066 C 
ATOM      5  C   UNL     1      35.499 -21.449 -18.937  0.00  0.00    +0.053 C 
ATOM      6  C   UNL     1      37.279 -19.901 -20.050  0.00  0.00    +0.019 C 
ATOM      7  C   UNL     1      33.768 -20.245 -20.826  0.00  0.00    +0.015 C 
ATOM      8  C   UNL     1      34.145 -21.801 -18.998  0.00  0.00    +0.015 C 
ATOM      9  C   UNL     1      33.295 -21.206 -19.928  0.00  0.00    +0.003 C 
ENDROOT
BRANCH   5  11
ATOM     10  O   UNL     1      34.855 -22.606 -16.260  0.00  0.00    -0.252 OA
ATOM     11  N   UNL     1      36.330 -22.059 -17.996  0.00  0.00    -0.268 N 
ATOM     12  N   UNL     1      37.132 -23.116 -16.106  0.00  0.00    -0.266 N 
ATOM     13  C   UNL     1      35.987 -22.598 -16.732  0.00  0.00    +0.308 C 
ATOM     14  H   UNL     1      37.281 -22.124 -18.243  0.00  0.00    +0.156 HD
ATOM     15  H   UNL     1      37.973 -23.037 -16.610  0.00  0.00    +0.157 HD
BRANCH  12  17
ATOM     16 BR   UNL     1      34.714 -24.272 -11.579  0.00  0.00    -0.049 Br
ATOM     17  C   UNL     1      37.224 -23.740 -14.839  0.00  0.00    +0.086 C 
ATOM     18  C   UNL     1      38.399 -24.371 -14.462  0.00  0.00    +0.152 C 
ATOM     19  C   UNL     1      36.124 -23.705 -13.997  0.00  0.00    +0.024 C 
ATOM     20  C   UNL     1      38.476 -24.981 -13.211  0.00  0.00    +0.039 C 
ATOM     21  C   UNL     1      36.201 -24.315 -12.745  0.00  0.00    +0.036 C 
ATOM     22  C   UNL     1      37.376 -24.954 -12.352  0.00  0.00    +0.010 C 
BRANCH  18  23
ATOM     23  O   UNL     1      39.484 -24.408 -15.286  0.00  0.00    -0.470 OA
ATOM     24  C   UNL     1      40.547 -25.286 -14.920  0.00  0.00    +0.253 C 
ENDBRANCH  18  23
ENDBRANCH  12  17
ENDBRANCH   5  11
BRANCH   1  25
ATOM     25  C   UNL     1      35.338 -18.185 -22.572  0.00  0.00    +0.122 C 
BRANCH  25  28
ATOM     26  N   UNL     1      34.295 -14.266 -21.187  0.00  0.00    -0.230 NA
ATOM     27  N   UNL     1      34.591 -13.422 -23.395  0.00  0.00    -0.343 N 
ATOM     28  C   UNL     1      34.973 -16.809 -22.087  0.00  0.00    +0.002 C 
ATOM     29  C   UNL     1      34.954 -15.751 -22.977  0.00  0.00    +0.031 C 
ATOM     30  C   UNL     1      34.658 -16.617 -20.753  0.00  0.00    +0.018 C 
ATOM     31  C   UNL     1      34.610 -14.504 -22.480  0.00  0.00    +0.125 C 
ATOM     32  C   UNL     1      34.327 -15.331 -20.355  0.00  0.00    +0.100 C 
ATOM     33  H   UNL     1      34.352 -12.520 -23.085  0.00  0.00    +0.144 HD
ATOM     34  H   UNL     1      34.816 -13.575 -24.342  0.00  0.00    +0.144 HD
ENDBRANCH  25  28
ENDBRANCH   1  25
TORSDOF 5
ENDMDL
MODEL 4
REMARK VINA RESULT:     -10.6      3.174      5.911
REMARK  Name = 11691242
REMARK  5 active torsions:
REMARK  status: ('A' for Active; 'I' for Inactive)
REMARK    1  A    between atoms: N_1  and  C_25
REMARK    2  A    between atoms: C_5  and  N_11
REMARK    3  A    between atoms: N_12  and  C_17
REMARK    4  A    between atoms: C_18  and  O_23
REMARK    5  A    between atoms: C_25  and  C_28
REMARK                            x       y       z     vdW  Elec       q    Type
REMARK                         _______ _______ _______ _____ _____    ______ ____
ROOT
ATOM      1  N   UNL     1      34.178 -21.858 -19.407  0.00  0.00    -0.282 N 
ATOM      2  C   UNL     1      35.135 -20.970 -19.844  0.00  0.00    +0.053 C 
ATOM      3  C   UNL     1      34.466 -19.934 -20.499  0.00  0.00    +0.028 C 
ATOM      4  C   UNL     1      32.931 -21.422 -19.764  0.00  0.00    +0.066 C 
ATOM      5  C   UNL     1      35.221 -18.880 -21.049  0.00  0.00    +0.053 C 
ATOM      6  C   UNL     1      33.075 -20.233 -20.441  0.00  0.00    +0.019 C 
ATOM      7  C   UNL     1      36.527 -21.004 -19.710  0.00  0.00    +0.015 C 
ATOM      8  C   UNL     1      36.615 -18.900 -20.923  0.00  0.00    +0.015 C 
ATOM      9  C   UNL     1      37.256 -19.946 -20.263  0.00  0.00    +0.003 C 
ENDROOT
BRANCH   5  11
ATOM     10  O   UNL     1      34.837 -16.038 -20.211  0.00  0.00    -0.252 OA
ATOM     11  N   UNL     1      34.603 -17.820 -21.714  0.00  0.00    -0.268 N 
ATOM     12  N   UNL     1      33.757 -15.742 -22.264  0.00  0.00    -0.266 N 
ATOM     13  C   UNL     1      34.439 -16.481 -21.284  0.00  0.00    +0.308 C 
ATOM     14  H   UNL     1      34.230 -18.031 -22.601  0.00  0.00    +0.156 HD
ATOM     15  H   UNL     1      33.500 -16.235 -23.075  0.00  0.00    +0.157 HD
BRANCH  12  17
ATOM     16 BR   UNL     1      31.619 -11.825 -19.479  0.00  0.00    -0.049 Br
ATOM     17  C   UNL     1      33.394 -14.375 -22.228  0.00  0.00    +0.086 C 
ATOM     18  C   UNL     1      33.635 -13.565 -23.327  0.00  0.00    +0.152 C 
ATOM     19  C   UNL     1      32.800 -13.873 -21.081  0.00  0.00    +0.024 C 
ATOM     20  C   UNL     1      33.273 -12.220 -23.277  0.00  0.00    +0.039 C 
ATOM     21  C   UNL     1      32.437 -12.527 -21.031  0.00  0.00    +0.036 C 
ATOM     22  C   UNL     1      32.673 -11.701 -22.129  0.00  0.00    +0.010 C 
BRANCH  18  23
ATOM     23  O   UNL     1      34.218 -14.054 -24.458  0.00  0.00    -0.470 OA
ATOM     24  C   UNL     1      33.367 -14.279 -25.580  0.00  0.00    +0.253 C 
ENDBRANCH  18  23
ENDBRANCH  12  17
ENDBRANCH   5  11
BRANCH   1  25
ATOM     25  C   UNL     1      34.437 -23.083 -18.681  0.00  0.00    +0.122 C 
BRANCH  25  28
ATOM     26  N   UNL     1      32.772 -22.939 -14.734  0.00  0.00    -0.230 NA
ATOM     27  N   UNL     1      34.968 -23.067 -13.819  0.00  0.00    -0.343 N 
ATOM     28  C   UNL     1      33.853 -23.033 -17.295  0.00  0.00    +0.002 C 
ATOM     29  C   UNL     1      34.692 -23.075 -16.196  0.00  0.00    +0.031 C 
ATOM     30  C   UNL     1      32.482 -22.945 -17.134  0.00  0.00    +0.018 C 
ATOM     31  C   UNL     1      34.105 -23.025 -14.942  0.00  0.00    +0.125 C 
ATOM     32  C   UNL     1      31.993 -22.901 -15.838  0.00  0.00    +0.100 C 
ATOM     33  H   UNL     1      34.593 -23.033 -12.910  0.00  0.00    +0.144 HD
ATOM     34  H   UNL     1      35.942 -23.128 -13.949  0.00  0.00    +0.144 HD
ENDBRANCH  25  28
ENDBRANCH   1  25
TORSDOF 5
ENDMDL
MODEL 5
REMARK VINA RESULT:      -9.9      5.684      9.747
REMARK  Name = 11691242
REMARK  5 active torsions:
REMARK  status: ('A' for Active; 'I' for Inactive)
REMARK    1  A    between atoms: N_1  and  C_25
REMARK    2  A    between atoms: C_5  and  N_11
REMARK    3  A    between atoms: N_12  and  C_17
REMARK    4  A    between atoms: C_18  and  O_23
REMARK    5  A    between atoms: C_25  and  C_28
REMARK                            x       y       z     vdW  Elec       q    Type
REMARK                         _______ _______ _______ _____ _____    ______ ____
ROOT
ATOM      1  N   UNL     1      36.121 -23.727 -15.445  0.00  0.00    -0.282 N 
ATOM      2  C   UNL     1      35.149 -23.389 -16.358  0.00  0.00    +0.053 C 
ATOM      3  C   UNL     1      35.696 -22.420 -17.202  0.00  0.00    +0.028 C 
ATOM      4  C   UNL     1      37.261 -23.007 -15.681  0.00  0.00    +0.066 C 
ATOM      5  C   UNL     1      34.900 -21.895 -18.239  0.00  0.00    +0.053 C 
ATOM      6  C   UNL     1      37.030 -22.188 -16.761  0.00  0.00    +0.019 C 
ATOM      7  C   UNL     1      33.840 -23.863 -16.501  0.00  0.00    +0.015 C 
ATOM      8  C   UNL     1      33.588 -22.359 -18.394  0.00  0.00    +0.015 C 
ATOM      9  C   UNL     1      33.068 -23.328 -17.538  0.00  0.00    +0.003 C 
ENDROOT
BRANCH   5  11
ATOM     10  O   UNL     1      33.474 -20.160 -20.208  0.00  0.00    -0.252 OA
ATOM     11  N   UNL     1      35.397 -20.925 -19.110  0.00  0.00    -0.268 N 
ATOM     12  N   UNL     1      35.577 -19.272 -20.712  0.00  0.00    -0.266 N 
ATOM     13  C   UNL     1      34.688 -20.119 -20.033  0.00  0.00    +0.308 C 
ATOM     14  H   UNL     1      36.371 -20.781 -19.079  0.00  0.00    +0.156 HD
ATOM     15  H   UNL     1      36.526 -19.353 -20.464  0.00  0.00    +0.157 HD
BRANCH  12  17
ATOM     16 BR   UNL     1      34.486 -14.244 -21.809  0.00  0.00    -0.049 Br
ATOM     17  C   UNL     1      35.277 -18.315 -21.711  0.00  0.00    +0.086 C 
ATOM     18  C   UNL     1      35.194 -18.703 -23.039  0.00  0.00    +0.152 C 
ATOM     19  C   UNL     1      35.072 -16.998 -21.332  0.00  0.00    +0.024 C 
ATOM     20  C   UNL     1      34.898 -17.750 -24.012  0.00  0.00    +0.039 C 
ATOM     21  C   UNL     1      34.776 -16.044 -22.306  0.00  0.00    +0.036 C 
ATOM     22  C   UNL     1      34.689 -16.420 -23.646  0.00  0.00    +0.010 C 
BRANCH  18  23
ATOM     23  O   UNL     1      35.394 -19.997 -23.417  0.00  0.00    -0.470 OA
ATOM     24  C   UNL     1      34.930 -20.374 -24.713  0.00  0.00    +0.253 C 
ENDBRANCH  18  23
ENDBRANCH  12  17
ENDBRANCH   5  11
BRANCH   1  25
ATOM     25  C   UNL     1      35.976 -24.698 -14.381  0.00  0.00    +0.122 C 
BRANCH  25  28
ATOM     26  N   UNL     1      37.172 -23.068 -10.602  0.00  0.00    -0.230 NA
ATOM     27  N   UNL     1      35.557 -24.442  -9.515  0.00  0.00    -0.343 N 
ATOM     28  C   UNL     1      36.394 -24.125 -13.054  0.00  0.00    +0.002 C 
ATOM     29  C   UNL     1      35.773 -24.555 -11.895  0.00  0.00    +0.031 C 
ATOM     30  C   UNL     1      37.399 -23.175 -13.006  0.00  0.00    +0.018 C 
ATOM     31  C   UNL     1      36.196 -23.999 -10.699  0.00  0.00    +0.125 C 
ATOM     32  C   UNL     1      37.749 -22.680 -11.761  0.00  0.00    +0.100 C 
ATOM     33  H   UNL     1      35.827 -24.074  -8.643  0.00  0.00    +0.144 HD
ATOM     34  H   UNL     1      34.845 -25.120  -9.564  0.00  0.00    +0.144 HD
ENDBRANCH  25  28
ENDBRANCH   1  25
TORSDOF 5
ENDMDL
MODEL 6
REMARK VINA RESULT:      -9.9      4.942     10.193
REMARK  Name = 11691242
REMARK  5 active torsions:
REMARK  status: ('A' for Active; 'I' for Inactive)
REMARK    1  A    between atoms: N_1  and  C_25
REMARK    2  A    between atoms: C_5  and  N_11
REMARK    3  A    between atoms: N_12  and  C_17
REMARK    4  A    between atoms: C_18  and  O_23
REMARK    5  A    between atoms: C_25  and  C_28
REMARK                            x       y       z     vdW  Elec       q    Type
REMARK                         _______ _______ _______ _____ _____    ______ ____
ROOT
ATOM      1  N   UNL     1      34.686 -15.771 -22.767  0.00  0.00    -0.282 N 
ATOM      2  C   UNL     1      34.757 -17.081 -23.183  0.00  0.00    +0.053 C 
ATOM      3  C   UNL     1      35.068 -17.853 -22.060  0.00  0.00    +0.028 C 
ATOM      4  C   UNL     1      34.941 -15.687 -21.425  0.00  0.00    +0.066 C 
ATOM      5  C   UNL     1      35.201 -19.247 -22.210  0.00  0.00    +0.053 C 
ATOM      6  C   UNL     1      35.182 -16.959 -20.958  0.00  0.00    +0.019 C 
ATOM      7  C   UNL     1      34.572 -17.638 -24.453  0.00  0.00    +0.015 C 
ATOM      8  C   UNL     1      35.019 -19.818 -23.475  0.00  0.00    +0.015 C 
ATOM      9  C   UNL     1      34.709 -19.024 -24.578  0.00  0.00    +0.003 C 
ENDROOT
BRANCH   5  11
ATOM     10  O   UNL     1      33.445 -20.324 -20.047  0.00  0.00    -0.252 OA
ATOM     11  N   UNL     1      35.511 -20.064 -21.122  0.00  0.00    -0.268 N 
ATOM     12  N   UNL     1      35.373 -21.345 -19.205  0.00  0.00    -0.266 N 
ATOM     13  C   UNL     1      34.648 -20.556 -20.113  0.00  0.00    +0.308 C 
ATOM     14  H   UNL     1      36.455 -20.334 -21.045  0.00  0.00    +0.156 HD
ATOM     15  H   UNL     1      36.335 -21.441 -19.389  0.00  0.00    +0.157 HD
BRANCH  12  17
ATOM     16 BR   UNL     1      31.184 -23.233 -16.644  0.00  0.00    -0.049 Br
ATOM     17  C   UNL     1      34.890 -22.019 -18.058  0.00  0.00    +0.086 C 
ATOM     18  C   UNL     1      35.775 -22.435 -17.076  0.00  0.00    +0.152 C 
ATOM     19  C   UNL     1      33.529 -22.250 -17.946  0.00  0.00    +0.024 C 
ATOM     20  C   UNL     1      35.285 -23.098 -15.952  0.00  0.00    +0.039 C 
ATOM     21  C   UNL     1      33.039 -22.914 -16.820  0.00  0.00    +0.036 C 
ATOM     22  C   UNL     1      33.917 -23.338 -15.824  0.00  0.00    +0.010 C 
BRANCH  18  23
ATOM     23  O   UNL     1      37.115 -22.209 -17.182  0.00  0.00    -0.470 OA
ATOM     24  C   UNL     1      37.692 -21.288 -16.258  0.00  0.00    +0.253 C 
ENDBRANCH  18  23
ENDBRANCH  12  17
ENDBRANCH   5  11
BRANCH   1  25
ATOM     25  C   UNL     1      34.391 -14.635 -23.614  0.00  0.00    +0.122 C 
BRANCH  25  28
ATOM     26  N   UNL     1      32.106 -11.675 -21.520  0.00  0.00    -0.230 NA
ATOM     27  N   UNL     1      32.983  -9.997 -22.965  0.00  0.00    -0.343 N 
ATOM     28  C   UNL     1      33.590 -13.595 -22.879  0.00  0.00    +0.002 C 
ATOM     29  C   UNL     1      33.664 -12.271 -23.270  0.00  0.00    +0.031 C 
ATOM     30  C   UNL     1      32.786 -13.976 -21.819  0.00  0.00    +0.018 C 
ATOM     31  C   UNL     1      32.905 -11.353 -22.561  0.00  0.00    +0.125 C 
ATOM     32  C   UNL     1      32.067 -12.982 -21.175  0.00  0.00    +0.100 C 
ATOM     33  H   UNL     1      32.461  -9.311 -22.490  0.00  0.00    +0.144 HD
ATOM     34  H   UNL     1      33.559  -9.741 -23.723  0.00  0.00    +0.144 HD
ENDBRANCH  25  28
ENDBRANCH   1  25
TORSDOF 5
ENDMDL
MODEL 7
REMARK VINA RESULT:      -9.8      3.849     10.861
REMARK  Name = 11691242
REMARK  5 active torsions:
REMARK  status: ('A' for Active; 'I' for Inactive)
REMARK    1  A    between atoms: N_1  and  C_25
REMARK    2  A    between atoms: C_5  and  N_11
REMARK    3  A    between atoms: N_12  and  C_17
REMARK    4  A    between atoms: C_18  and  O_23
REMARK    5  A    between atoms: C_25  and  C_28
REMARK                            x       y       z     vdW  Elec       q    Type
REMARK                         _______ _______ _______ _____ _____    ______ ____
ROOT
ATOM      1  N   UNL     1      32.282  -7.385 -21.973  0.00  0.00    -0.282 N 
ATOM      2  C   UNL     1      32.112  -8.385 -21.042  0.00  0.00    +0.053 C 
ATOM      3  C   UNL     1      32.149  -9.599 -21.732  0.00  0.00    +0.028 C 
ATOM      4  C   UNL     1      32.425  -7.923 -23.223  0.00  0.00    +0.066 C 
ATOM      5  C   UNL     1      31.997 -10.797 -21.007  0.00  0.00    +0.053 C 
ATOM      6  C   UNL     1      32.347  -9.292 -23.108  0.00  0.00    +0.019 C 
ATOM      7  C   UNL     1      31.930  -8.310 -19.657  0.00  0.00    +0.015 C 
ATOM      8  C   UNL     1      31.814 -10.737 -19.620  0.00  0.00    +0.015 C 
ATOM      9  C   UNL     1      31.781  -9.512 -18.957  0.00  0.00    +0.003 C 
ENDROOT
BRANCH   5  11
ATOM     10  O   UNL     1      34.262 -12.237 -22.318  0.00  0.00    -0.252 OA
ATOM     11  N   UNL     1      32.026 -12.037 -21.646  0.00  0.00    -0.268 N 
ATOM     12  N   UNL     1      32.713 -13.925 -22.785  0.00  0.00    -0.266 N 
ATOM     13  C   UNL     1      33.123 -12.690 -22.259  0.00  0.00    +0.308 C 
ATOM     14  H   UNL     1      31.170 -12.523 -21.676  0.00  0.00    +0.156 HD
ATOM     15  H   UNL     1      31.764 -14.155 -22.659  0.00  0.00    +0.157 HD
BRANCH  12  17
ATOM     16 BR   UNL     1      36.015 -18.003 -22.410  0.00  0.00    -0.049 Br
ATOM     17  C   UNL     1      33.497 -14.883 -23.472  0.00  0.00    +0.086 C 
ATOM     18  C   UNL     1      33.522 -14.890 -24.858  0.00  0.00    +0.152 C 
ATOM     19  C   UNL     1      34.228 -15.799 -22.734  0.00  0.00    +0.024 C 
ATOM     20  C   UNL     1      34.298 -15.839 -25.522  0.00  0.00    +0.039 C 
ATOM     21  C   UNL     1      35.005 -16.748 -23.398  0.00  0.00    +0.036 C 
ATOM     22  C   UNL     1      35.040 -16.769 -24.792  0.00  0.00    +0.010 C 
BRANCH  18  23
ATOM     23  O   UNL     1      32.806 -13.990 -25.589  0.00  0.00    -0.470 OA
ATOM     24  C   UNL     1      33.493 -13.315 -26.641  0.00  0.00    +0.253 C 
ENDBRANCH  18  23
ENDBRANCH  12  17
ENDBRANCH   5  11
BRANCH   1  25
ATOM     25  C   UNL     1      32.305  -5.967 -21.688  0.00  0.00    +0.122 C 
BRANCH  25  28
ATOM     26  N   UNL     1      31.952  -3.643 -25.271  0.00  0.00    -0.230 NA
ATOM     27  N   UNL     1      30.050  -2.541 -24.353  0.00  0.00    -0.343 N 
ATOM     28  C   UNL     1      32.180  -5.151 -22.946  0.00  0.00    +0.002 C 
ATOM     29  C   UNL     1      31.163  -4.220 -23.061  0.00  0.00    +0.031 C 
ATOM     30  C   UNL     1      33.084  -5.340 -23.975  0.00  0.00    +0.018 C 
ATOM     31  C   UNL     1      31.092  -3.494 -24.239  0.00  0.00    +0.125 C 
ATOM     32  C   UNL     1      32.928  -4.565 -25.112  0.00  0.00    +0.100 C 
ATOM     33  H   UNL     1      29.963  -2.003 -25.172  0.00  0.00    +0.144 HD
ATOM     34  H   UNL     1      29.414  -2.416 -23.611  0.00  0.00    +0.144 HD
ENDBRANCH  25  28
ENDBRANCH   1  25
TORSDOF 5
ENDMDL
MODEL 8
REMARK VINA RESULT:      -9.7      3.515      6.339
REMARK  Name = 11691242
REMARK  5 active torsions:
REMARK  status: ('A' for Active; 'I' for Inactive)
REMARK    1  A    between atoms: N_1  and  C_25
REMARK    2  A    between atoms: C_5  and  N_11
REMARK    3  A    between atoms: N_12  and  C_17
REMARK    4  A    between atoms: C_18  and  O_23
REMARK    5  A    between atoms: C_25  and  C_28
REMARK                            x       y       z     vdW  Elec       q    Type
REMARK                         _______ _______ _______ _____ _____    ______ ____
ROOT
ATOM      1  N   UNL     1      33.067 -12.383 -22.662  0.00  0.00    -0.282 N 
ATOM      2  C   UNL     1      32.568 -11.334 -21.924  0.00  0.00    +0.053 C 
ATOM      3  C   UNL     1      33.031 -10.157 -22.518  0.00  0.00    +0.028 C 
ATOM      4  C   UNL     1      33.827 -11.912 -23.698  0.00  0.00    +0.066 C 
ATOM      5  C   UNL     1      32.662  -8.920 -21.952  0.00  0.00    +0.053 C 
ATOM      6  C   UNL     1      33.825 -10.538 -23.636  0.00  0.00    +0.019 C 
ATOM      7  C   UNL     1      31.751 -11.335 -20.788  0.00  0.00    +0.015 C 
ATOM      8  C   UNL     1      31.844  -8.907 -20.815  0.00  0.00    +0.015 C 
ATOM      9  C   UNL     1      31.397 -10.096 -20.244  0.00  0.00    +0.003 C 
ENDROOT
BRANCH   5  11
ATOM     10  O   UNL     1      31.503  -7.289 -24.169  0.00  0.00    -0.252 OA
ATOM     11  N   UNL     1      33.096  -7.715 -22.505  0.00  0.00    -0.268 N 
ATOM     12  N   UNL     1      33.279  -5.813 -23.802  0.00  0.00    -0.266 N 
ATOM     13  C   UNL     1      32.518  -6.968 -23.560  0.00  0.00    +0.308 C 
ATOM     14  H   UNL     1      33.913  -7.333 -22.110  0.00  0.00    +0.156 HD
ATOM     15  H   UNL     1      34.070  -5.689 -23.230  0.00  0.00    +0.157 HD
BRANCH  12  17
ATOM     16 BR   UNL     1      34.369  -3.981 -28.610  0.00  0.00    -0.049 Br
ATOM     17  C   UNL     1      33.047  -4.803 -24.766  0.00  0.00    +0.086 C 
ATOM     18  C   UNL     1      32.178  -3.760 -24.481  0.00  0.00    +0.152 C 
ATOM     19  C   UNL     1      33.701  -4.883 -25.985  0.00  0.00    +0.024 C 
ATOM     20  C   UNL     1      31.959  -2.773 -25.441  0.00  0.00    +0.039 C 
ATOM     21  C   UNL     1      33.482  -3.894 -26.944  0.00  0.00    +0.036 C 
ATOM     22  C   UNL     1      32.611  -2.840 -26.673  0.00  0.00    +0.010 C 
BRANCH  18  23
ATOM     23  O   UNL     1      31.534  -3.677 -23.283  0.00  0.00    -0.470 OA
ATOM     24  C   UNL     1      30.857  -2.454 -22.995  0.00  0.00    +0.253 C 
ENDBRANCH  18  23
ENDBRANCH  12  17
ENDBRANCH   5  11
BRANCH   1  25
ATOM     25  C   UNL     1      32.836 -13.786 -22.392  0.00  0.00    +0.122 C 
BRANCH  25  28
ATOM     26  N   UNL     1      34.739 -16.278 -25.313  0.00  0.00    -0.230 NA
ATOM     27  N   UNL     1      35.806 -17.491 -23.562  0.00  0.00    -0.343 N 
ATOM     28  C   UNL     1      33.505 -14.660 -23.417  0.00  0.00    +0.002 C 
ATOM     29  C   UNL     1      34.351 -15.675 -23.005  0.00  0.00    +0.031 C 
ATOM     30  C   UNL     1      33.266 -14.442 -24.762  0.00  0.00    +0.018 C 
ATOM     31  C   UNL     1      34.941 -16.453 -23.988  0.00  0.00    +0.125 C 
ATOM     32  C   UNL     1      33.905 -15.274 -25.666  0.00  0.00    +0.100 C 
ATOM     33  H   UNL     1      36.246 -18.068 -24.226  0.00  0.00    +0.144 HD
ATOM     34  H   UNL     1      35.965 -17.636 -22.601  0.00  0.00    +0.144 HD
ENDBRANCH  25  28
ENDBRANCH   1  25
TORSDOF 5
ENDMDL
MODEL 9
REMARK VINA RESULT:      -9.7      2.541      4.793
REMARK  Name = 11691242
REMARK  5 active torsions:
REMARK  status: ('A' for Active; 'I' for Inactive)
REMARK    1  A    between atoms: N_1  and  C_25
REMARK    2  A    between atoms: C_5  and  N_11
REMARK    3  A    between atoms: N_12  and  C_17
REMARK    4  A    between atoms: C_18  and  O_23
REMARK    5  A    between atoms: C_25  and  C_28
REMARK                            x       y       z     vdW  Elec       q    Type
REMARK                         _______ _______ _______ _____ _____    ______ ____
ROOT
ATOM      1  N   UNL     1      33.913 -13.560 -21.982  0.00  0.00    -0.282 N 
ATOM      2  C   UNL     1      32.991 -12.790 -21.310  0.00  0.00    +0.053 C 
ATOM      3  C   UNL     1      32.700 -11.693 -22.125  0.00  0.00    +0.028 C 
ATOM      4  C   UNL     1      34.215 -12.990 -23.189  0.00  0.00    +0.066 C 
ATOM      5  C   UNL     1      31.773 -10.736 -21.669  0.00  0.00    +0.053 C 
ATOM      6  C   UNL     1      33.481 -11.832 -23.307  0.00  0.00    +0.019 C 
ATOM      7  C   UNL     1      32.398 -12.977 -20.058  0.00  0.00    +0.015 C 
ATOM      8  C   UNL     1      31.171 -10.910 -20.417  0.00  0.00    +0.015 C 
ATOM      9  C   UNL     1      31.480 -12.015 -19.625  0.00  0.00    +0.003 C 
ENDROOT
BRANCH   5  11
ATOM     10  O   UNL     1      33.164  -8.107 -21.946  0.00  0.00    -0.252 OA
ATOM     11  N   UNL     1      31.446  -9.621 -22.443  0.00  0.00    -0.268 N 
ATOM     12  N   UNL     1      31.458  -7.539 -23.442  0.00  0.00    -0.266 N 
ATOM     13  C   UNL     1      32.132  -8.387 -22.549  0.00  0.00    +0.308 C 
ATOM     14  H   UNL     1      30.630  -9.703 -22.987  0.00  0.00    +0.156 HD
ATOM     15  H   UNL     1      30.641  -7.904 -23.851  0.00  0.00    +0.157 HD
BRANCH  12  17
ATOM     16 BR   UNL     1      34.546  -4.502 -26.427  0.00  0.00    -0.049 Br
ATOM     17  C   UNL     1      31.810  -6.224 -23.828  0.00  0.00    +0.086 C 
ATOM     18  C   UNL     1      31.152  -5.139 -23.269  0.00  0.00    +0.152 C 
ATOM     19  C   UNL     1      32.815  -6.051 -24.766  0.00  0.00    +0.024 C 
ATOM     20  C   UNL     1      31.509  -3.849 -23.658  0.00  0.00    +0.039 C 
ATOM     21  C   UNL     1      33.173  -4.760 -25.155  0.00  0.00    +0.036 C 
ATOM     22  C   UNL     1      32.520  -3.659 -24.602  0.00  0.00    +0.010 C 
BRANCH  18  23
ATOM     23  O   UNL     1      30.164  -5.304 -22.345  0.00  0.00    -0.470 OA
ATOM     24  C   UNL     1      30.555  -5.320 -20.973  0.00  0.00    +0.253 C 
ENDBRANCH  18  23
ENDBRANCH  12  17
ENDBRANCH   5  11
BRANCH   1  25
ATOM     25  C   UNL     1      34.493 -14.793 -21.495  0.00  0.00    +0.122 C 
BRANCH  25  28
ATOM     26  N   UNL     1      34.897 -17.679 -24.637  0.00  0.00    -0.230 NA
ATOM     27  N   UNL     1      35.390 -19.354 -23.016  0.00  0.00    -0.343 N 
ATOM     28  C   UNL     1      34.636 -15.806 -22.597  0.00  0.00    +0.002 C 
ATOM     29  C   UNL     1      34.950 -17.117 -22.287  0.00  0.00    +0.031 C 
ATOM     30  C   UNL     1      34.451 -15.416 -23.911  0.00  0.00    +0.018 C 
ATOM     31  C   UNL     1      35.069 -18.012 -23.338  0.00  0.00    +0.125 C 
ATOM     32  C   UNL     1      34.592 -16.386 -24.891  0.00  0.00    +0.100 C 
ATOM     33  H   UNL     1      35.483 -20.022 -23.732  0.00  0.00    +0.144 HD
ATOM     34  H   UNL     1      35.517 -19.617 -22.076  0.00  0.00    +0.144 HD
ENDBRANCH  25  28
ENDBRANCH   1  25
TORSDOF 5
ENDMDL
