MODEL 1
REMARK VINA RESULT:     -11.5      0.000      0.000
REMARK  Name = 44814409
REMARK  5 active torsions:
REMARK  status: ('A' for Active; 'I' for Inactive)
REMARK    1  A    between atoms: N_2  and  C_22
REMARK    2  A    between atoms: C_3  and  C_7
REMARK    3  A    between atoms: C_9  and  C_14
REMARK    4  A    between atoms: C_21  and  C_26
REMARK    5  A    between atoms: C_29  and  N_33
REMARK                            x       y       z     vdW  Elec       q    Type
REMARK                         _______ _______ _______ _____ _____    ______ ____
ROOT
ATOM      1  O   UNL     1      32.697 -22.028 -19.484  0.00  0.00    -0.267 OA
ATOM      2  N   UNL     1      33.852 -22.228 -17.445  0.00  0.00    -0.278 N 
ATOM      3  C   UNL     1      33.695 -21.864 -18.789  0.00  0.00    +0.275 C 
ATOM      4  H   UNL     1      34.725 -22.019 -17.040  0.00  0.00    +0.155 HD
ENDROOT
BRANCH   3   7
ATOM      5  F   UNL     1      37.963 -19.238 -21.182  0.00  0.00    -0.202 F 
ATOM      6  N   UNL     1      34.576 -20.243 -20.332  0.00  0.00    -0.399 NA
ATOM      7  C   UNL     1      34.864 -21.185 -19.406  0.00  0.00    +0.167 C 
ATOM      8  C   UNL     1      36.152 -21.530 -19.025  0.00  0.00    +0.092 C 
ATOM      9  C   UNL     1      35.630 -19.617 -20.900  0.00  0.00    +0.162 C 
ATOM     10  C   UNL     1      37.210 -20.864 -19.634  0.00  0.00    +0.014 C 
ATOM     11  C   UNL     1      36.953 -19.887 -20.589  0.00  0.00    +0.166 C 
BRANCH   9  14
ATOM     12  F   UNL     1      35.178 -20.270 -23.589  0.00  0.00    -0.204 F 
ATOM     13  F   UNL     1      35.369 -16.906 -20.233  0.00  0.00    -0.204 F 
ATOM     14  C   UNL     1      35.284 -18.617 -21.883  0.00  0.00    +0.087 C 
ATOM     15  C   UNL     1      35.068 -18.988 -23.209  0.00  0.00    +0.145 C 
ATOM     16  C   UNL     1      35.164 -17.279 -21.504  0.00  0.00    +0.145 C 
ATOM     17  C   UNL     1      34.733 -18.022 -24.158  0.00  0.00    +0.030 C 
ATOM     18  C   UNL     1      34.830 -16.313 -22.452  0.00  0.00    +0.030 C 
ATOM     19  C   UNL     1      34.615 -16.684 -23.780  0.00  0.00    +0.005 C 
ENDBRANCH   9  14
ENDBRANCH   3   7
BRANCH   2  22
ATOM     20  N   UNL     1      30.604 -23.320 -16.119  0.00  0.00    -0.241 NA
ATOM     21  C   UNL     1      33.316 -23.585 -15.496  0.00  0.00    -0.006 C 
ATOM     22  C   UNL     1      32.924 -22.850 -16.609  0.00  0.00    +0.066 C 
ATOM     23  C   UNL     1      32.353 -24.188 -14.694  0.00  0.00    +0.018 C 
ATOM     24  C   UNL     1      31.568 -22.749 -16.875  0.00  0.00    +0.113 C 
ATOM     25  C   UNL     1      31.023 -24.027 -15.046  0.00  0.00    +0.099 C 
BRANCH  21  26
ATOM     26  C   UNL     1      34.759 -23.743 -15.141  0.00  0.00    +0.022 C 
ATOM     27  C   UNL     1      36.636 -25.430 -14.835  0.00  0.00    -0.002 C 
ATOM     28  C   UNL     1      35.173 -25.222 -15.253  0.00  0.00    +0.004 C 
ATOM     29  C   UNL     1      36.480 -23.411 -13.308  0.00  0.00    -0.065 C 
ATOM     30  C   UNL     1      35.016 -23.205 -13.721  0.00  0.00    -0.017 C 
ATOM     31  C   UNL     1      36.884 -24.885 -13.421  0.00  0.00    -0.022 C 
ATOM     32  C   UNL     1      37.012 -26.909 -14.916  0.00  0.00    -0.000 C 
BRANCH  29  33
ATOM     33  N   UNL     1      36.677 -22.946 -11.937  0.00  0.00    +0.382 N 
ATOM     34  H   UNL     1      37.546 -23.330 -11.568  0.00  0.00    -0.089 HD
ATOM     35  H   UNL     1      35.896 -23.256 -11.357  0.00  0.00    -0.089 HD
ATOM     36  H   UNL     1      36.724 -21.927 -11.926  0.00  0.00    -0.089 HD
ENDBRANCH  29  33
ENDBRANCH  21  26
ENDBRANCH   2  22
TORSDOF 5
ENDMDL
MODEL 2
REMARK VINA RESULT:     -11.5      0.010      1.464
REMARK  Name = 44814409
REMARK  5 active torsions:
REMARK  status: ('A' for Active; 'I' for Inactive)
REMARK    1  A    between atoms: N_2  and  C_22
REMARK    2  A    between atoms: C_3  and  C_7
REMARK    3  A    between atoms: C_9  and  C_14
REMARK    4  A    between atoms: C_21  and  C_26
REMARK    5  A    between atoms: C_29  and  N_33
REMARK                            x       y       z     vdW  Elec       q    Type
REMARK                         _______ _______ _______ _____ _____    ______ ____
ROOT
ATOM      1  O   UNL     1      32.697 -22.028 -19.482  0.00  0.00    -0.267 OA
ATOM      2  N   UNL     1      33.854 -22.235 -17.445  0.00  0.00    -0.278 N 
ATOM      3  C   UNL     1      33.695 -21.867 -18.788  0.00  0.00    +0.275 C 
ATOM      4  H   UNL     1      34.728 -22.028 -17.042  0.00  0.00    +0.155 HD
ENDROOT
BRANCH   3   7
ATOM      5  F   UNL     1      37.965 -19.244 -21.182  0.00  0.00    -0.202 F 
ATOM      6  N   UNL     1      34.577 -20.244 -20.328  0.00  0.00    -0.399 NA
ATOM      7  C   UNL     1      34.866 -21.189 -19.406  0.00  0.00    +0.167 C 
ATOM      8  C   UNL     1      36.153 -21.538 -19.028  0.00  0.00    +0.092 C 
ATOM      9  C   UNL     1      35.632 -19.618 -20.896  0.00  0.00    +0.162 C 
ATOM     10  C   UNL     1      37.211 -20.872 -19.637  0.00  0.00    +0.014 C 
ATOM     11  C   UNL     1      36.954 -19.892 -20.589  0.00  0.00    +0.166 C 
BRANCH   9  14
ATOM     12  F   UNL     1      35.371 -16.909 -20.219  0.00  0.00    -0.204 F 
ATOM     13  F   UNL     1      35.179 -20.261 -23.588  0.00  0.00    -0.204 F 
ATOM     14  C   UNL     1      35.285 -18.614 -21.876  0.00  0.00    +0.087 C 
ATOM     15  C   UNL     1      35.166 -17.279 -21.493  0.00  0.00    +0.145 C 
ATOM     16  C   UNL     1      35.070 -18.981 -23.204  0.00  0.00    +0.145 C 
ATOM     17  C   UNL     1      34.832 -16.309 -22.439  0.00  0.00    +0.030 C 
ATOM     18  C   UNL     1      34.735 -18.012 -24.150  0.00  0.00    +0.030 C 
ATOM     19  C   UNL     1      34.616 -16.676 -23.766  0.00  0.00    +0.005 C 
ENDBRANCH   9  14
ENDBRANCH   3   7
BRANCH   2  22
ATOM     20  N   UNL     1      30.606 -23.331 -16.122  0.00  0.00    -0.241 NA
ATOM     21  C   UNL     1      33.318 -23.588 -15.494  0.00  0.00    -0.006 C 
ATOM     22  C   UNL     1      32.926 -22.856 -16.609  0.00  0.00    +0.066 C 
ATOM     23  C   UNL     1      32.356 -24.191 -14.692  0.00  0.00    +0.018 C 
ATOM     24  C   UNL     1      31.571 -22.760 -16.878  0.00  0.00    +0.113 C 
ATOM     25  C   UNL     1      31.026 -24.035 -15.047  0.00  0.00    +0.099 C 
BRANCH  21  26
ATOM     26  C   UNL     1      34.762 -23.742 -15.136  0.00  0.00    +0.022 C 
ATOM     27  C   UNL     1      36.645 -25.422 -14.832  0.00  0.00    -0.002 C 
ATOM     28  C   UNL     1      35.182 -25.219 -15.252  0.00  0.00    +0.004 C 
ATOM     29  C   UNL     1      36.476 -23.409 -13.298  0.00  0.00    -0.065 C 
ATOM     30  C   UNL     1      35.013 -23.208 -13.714  0.00  0.00    -0.017 C 
ATOM     31  C   UNL     1      36.887 -24.882 -13.415  0.00  0.00    -0.022 C 
ATOM     32  C   UNL     1      37.027 -26.900 -14.918  0.00  0.00    -0.000 C 
BRANCH  29  33
ATOM     33  N   UNL     1      36.668 -22.948 -11.924  0.00  0.00    +0.382 N 
ATOM     34  H   UNL     1      37.063 -23.703 -11.364  0.00  0.00    -0.089 HD
ATOM     35  H   UNL     1      35.769 -22.668 -11.531  0.00  0.00    -0.089 HD
ATOM     36  H   UNL     1      37.305 -22.152 -11.918  0.00  0.00    -0.089 HD
ENDBRANCH  29  33
ENDBRANCH  21  26
ENDBRANCH   2  22
TORSDOF 5
ENDMDL
MODEL 3
REMARK VINA RESULT:     -10.3      4.316      8.393
REMARK  Name = 44814409
REMARK  5 active torsions:
REMARK  status: ('A' for Active; 'I' for Inactive)
REMARK    1  A    between atoms: N_2  and  C_22
REMARK    2  A    between atoms: C_3  and  C_7
REMARK    3  A    between atoms: C_9  and  C_14
REMARK    4  A    between atoms: C_21  and  C_26
REMARK    5  A    between atoms: C_29  and  N_33
REMARK                            x       y       z     vdW  Elec       q    Type
REMARK                         _______ _______ _______ _____ _____    ______ ____
ROOT
ATOM      1  O   UNL     1      37.806 -21.036 -16.520  0.00  0.00    -0.267 OA
ATOM      2  N   UNL     1      36.314 -22.703 -17.249  0.00  0.00    -0.278 N 
ATOM      3  C   UNL     1      37.365 -22.181 -16.482  0.00  0.00    +0.275 C 
ATOM      4  H   UNL     1      36.090 -23.648 -17.087  0.00  0.00    +0.155 HD
ENDROOT
BRANCH   3   7
ATOM      5  F   UNL     1      39.527 -25.677 -12.748  0.00  0.00    -0.202 F 
ATOM      6  N   UNL     1      37.341 -23.237 -14.322  0.00  0.00    -0.399 NA
ATOM      7  C   UNL     1      37.976 -23.126 -15.511  0.00  0.00    +0.167 C 
ATOM      8  C   UNL     1      39.123 -23.827 -15.846  0.00  0.00    +0.092 C 
ATOM      9  C   UNL     1      37.885 -24.094 -13.430  0.00  0.00    +0.162 C 
ATOM     10  C   UNL     1      39.652 -24.699 -14.901  0.00  0.00    +0.014 C 
ATOM     11  C   UNL     1      39.027 -24.841 -13.667  0.00  0.00    +0.166 C 
BRANCH   9  14
ATOM     12  F   UNL     1      36.357 -26.344 -12.746  0.00  0.00    -0.204 F 
ATOM     13  F   UNL     1      37.962 -22.036 -11.526  0.00  0.00    -0.204 F 
ATOM     14  C   UNL     1      37.180 -24.187 -12.172  0.00  0.00    +0.087 C 
ATOM     15  C   UNL     1      36.432 -25.326 -11.875  0.00  0.00    +0.145 C 
ATOM     16  C   UNL     1      37.248 -23.138 -11.255  0.00  0.00    +0.145 C 
ATOM     17  C   UNL     1      35.752 -25.416 -10.660  0.00  0.00    +0.030 C 
ATOM     18  C   UNL     1      36.567 -23.228 -10.041  0.00  0.00    +0.030 C 
ATOM     19  C   UNL     1      35.819 -24.367  -9.744  0.00  0.00    +0.005 C 
ENDBRANCH   9  14
ENDBRANCH   3   7
BRANCH   2  22
ATOM     20  N   UNL     1      35.488 -20.592 -20.140  0.00  0.00    -0.241 NA
ATOM     21  C   UNL     1      34.161 -22.162 -18.246  0.00  0.00    -0.006 C 
ATOM     22  C   UNL     1      35.546 -22.048 -18.211  0.00  0.00    +0.066 C 
ATOM     23  C   UNL     1      33.438 -21.492 -19.227  0.00  0.00    +0.018 C 
ATOM     24  C   UNL     1      36.156 -21.259 -19.172  0.00  0.00    +0.113 C 
ATOM     25  C   UNL     1      34.142 -20.727 -20.142  0.00  0.00    +0.099 C 
BRANCH  21  26
ATOM     26  C   UNL     1      33.426 -22.996 -17.246  0.00  0.00    +0.022 C 
ATOM     27  C   UNL     1      31.184 -23.348 -16.102  0.00  0.00    -0.002 C 
ATOM     28  C   UNL     1      31.954 -22.552 -17.165  0.00  0.00    +0.004 C 
ATOM     29  C   UNL     1      33.339 -23.694 -14.810  0.00  0.00    -0.065 C 
ATOM     30  C   UNL     1      34.109 -22.895 -15.870  0.00  0.00    -0.017 C 
ATOM     31  C   UNL     1      31.875 -23.246 -14.734  0.00  0.00    -0.022 C 
ATOM     32  C   UNL     1      29.737 -22.863 -16.012  0.00  0.00    -0.000 C 
BRANCH  29  33
ATOM     33  N   UNL     1      33.977 -23.529 -13.506  0.00  0.00    +0.382 N 
ATOM     34  H   UNL     1      34.317 -22.572 -13.412  0.00  0.00    -0.089 HD
ATOM     35  H   UNL     1      34.761 -24.178 -13.426  0.00  0.00    -0.089 HD
ATOM     36  H   UNL     1      33.299 -23.722 -12.769  0.00  0.00    -0.089 HD
ENDBRANCH  29  33
ENDBRANCH  21  26
ENDBRANCH   2  22
TORSDOF 5
ENDMDL
MODEL 4
REMARK VINA RESULT:     -10.3      4.529     10.555
REMARK  Name = 44814409
REMARK  5 active torsions:
REMARK  status: ('A' for Active; 'I' for Inactive)
REMARK    1  A    between atoms: N_2  and  C_22
REMARK    2  A    between atoms: C_3  and  C_7
REMARK    3  A    between atoms: C_9  and  C_14
REMARK    4  A    between atoms: C_21  and  C_26
REMARK    5  A    between atoms: C_29  and  N_33
REMARK                            x       y       z     vdW  Elec       q    Type
REMARK                         _______ _______ _______ _____ _____    ______ ____
ROOT
ATOM      1  O   UNL     1      34.745 -14.774 -19.879  0.00  0.00    -0.267 OA
ATOM      2  N   UNL     1      33.116 -14.301 -21.507  0.00  0.00    -0.278 N 
ATOM      3  C   UNL     1      34.156 -15.036 -20.922  0.00  0.00    +0.275 C 
ATOM      4  H   UNL     1      32.756 -14.660 -22.351  0.00  0.00    +0.155 HD
ENDROOT
BRANCH   3   7
ATOM      5  F   UNL     1      35.619 -19.735 -23.496  0.00  0.00    -0.202 F 
ATOM      6  N   UNL     1      34.677 -17.383 -20.890  0.00  0.00    -0.399 NA
ATOM      7  C   UNL     1      34.550 -16.272 -21.649  0.00  0.00    +0.167 C 
ATOM      8  C   UNL     1      34.763 -16.238 -23.018  0.00  0.00    +0.092 C 
ATOM      9  C   UNL     1      35.033 -18.515 -21.538  0.00  0.00    +0.162 C 
ATOM     10  C   UNL     1      35.128 -17.423 -23.648  0.00  0.00    +0.014 C 
ATOM     11  C   UNL     1      35.268 -18.587 -22.901  0.00  0.00    +0.166 C 
BRANCH   9  14
ATOM     12  F   UNL     1      37.525 -19.451 -20.656  0.00  0.00    -0.204 F 
ATOM     13  F   UNL     1      32.798 -19.980 -20.688  0.00  0.00    -0.204 F 
ATOM     14  C   UNL     1      35.158 -19.682 -20.696  0.00  0.00    +0.087 C 
ATOM     15  C   UNL     1      36.418 -20.111 -20.282  0.00  0.00    +0.145 C 
ATOM     16  C   UNL     1      34.017 -20.379 -20.297  0.00  0.00    +0.145 C 
ATOM     17  C   UNL     1      36.539 -21.238 -19.468  0.00  0.00    +0.030 C 
ATOM     18  C   UNL     1      34.137 -21.506 -19.484  0.00  0.00    +0.030 C 
ATOM     19  C   UNL     1      35.398 -21.936 -19.070  0.00  0.00    +0.005 C 
ENDBRANCH   9  14
ENDBRANCH   3   7
BRANCH   2  22
ATOM     20  N   UNL     1      31.602 -11.901 -19.173  0.00  0.00    -0.241 NA
ATOM     21  C   UNL     1      32.276 -12.047 -21.882  0.00  0.00    -0.006 C 
ATOM     22  C   UNL     1      32.526 -13.126 -21.041  0.00  0.00    +0.066 C 
ATOM     23  C   UNL     1      31.689 -10.896 -21.370  0.00  0.00    +0.018 C 
ATOM     24  C   UNL     1      32.175 -13.004 -19.707  0.00  0.00    +0.113 C 
ATOM     25  C   UNL     1      31.374 -10.873 -20.021  0.00  0.00    +0.099 C 
BRANCH  21  26
ATOM     26  C   UNL     1      32.628 -12.099 -23.334  0.00  0.00    +0.022 C 
ATOM     27  C   UNL     1      33.216 -13.649 -25.261  0.00  0.00    -0.002 C 
ATOM     28  C   UNL     1      32.794 -13.561 -23.787  0.00  0.00    +0.004 C 
ATOM     29  C   UNL     1      34.329 -11.377 -25.070  0.00  0.00    -0.065 C 
ATOM     30  C   UNL     1      33.912 -11.291 -23.596  0.00  0.00    -0.017 C 
ATOM     31  C   UNL     1      34.494 -12.835 -25.514  0.00  0.00    -0.022 C 
ATOM     32  C   UNL     1      33.413 -15.106 -25.677  0.00  0.00    -0.000 C 
BRANCH  29  33
ATOM     33  N   UNL     1      35.581 -10.652 -25.273  0.00  0.00    +0.382 N 
ATOM     34  H   UNL     1      36.368 -11.262 -25.052  0.00  0.00    -0.089 HD
ATOM     35  H   UNL     1      35.603  -9.834 -24.664  0.00  0.00    -0.089 HD
ATOM     36  H   UNL     1      35.647 -10.352 -26.246  0.00  0.00    -0.089 HD
ENDBRANCH  29  33
ENDBRANCH  21  26
ENDBRANCH   2  22
TORSDOF 5
ENDMDL
MODEL 5
REMARK VINA RESULT:     -10.1      4.451     10.903
REMARK  Name = 44814409
REMARK  5 active torsions:
REMARK  status: ('A' for Active; 'I' for Inactive)
REMARK    1  A    between atoms: N_2  and  C_22
REMARK    2  A    between atoms: C_3  and  C_7
REMARK    3  A    between atoms: C_9  and  C_14
REMARK    4  A    between atoms: C_21  and  C_26
REMARK    5  A    between atoms: C_29  and  N_33
REMARK                            x       y       z     vdW  Elec       q    Type
REMARK                         _______ _______ _______ _____ _____    ______ ____
ROOT
ATOM      1  O   UNL     1      34.883 -15.001 -20.144  0.00  0.00    -0.267 OA
ATOM      2  N   UNL     1      33.184 -14.656 -21.733  0.00  0.00    -0.278 N 
ATOM      3  C   UNL     1      34.238 -15.352 -21.126  0.00  0.00    +0.275 C 
ATOM      4  H   UNL     1      32.777 -15.089 -22.518  0.00  0.00    +0.155 HD
ENDROOT
BRANCH   3   7
ATOM      5  F   UNL     1      35.476 -20.319 -23.281  0.00  0.00    -0.202 F 
ATOM      6  N   UNL     1      34.613 -17.716 -20.896  0.00  0.00    -0.399 NA
ATOM      7  C   UNL     1      34.574 -16.663 -21.742  0.00  0.00    +0.167 C 
ATOM      8  C   UNL     1      34.823 -16.751 -23.103  0.00  0.00    +0.092 C 
ATOM      9  C   UNL     1      34.916 -18.915 -21.442  0.00  0.00    +0.162 C 
ATOM     10  C   UNL     1      35.131 -18.002 -23.627  0.00  0.00    +0.014 C 
ATOM     11  C   UNL     1      35.180 -19.109 -22.788  0.00  0.00    +0.166 C 
BRANCH   9  14
ATOM     12  F   UNL     1      32.576 -20.193 -20.572  0.00  0.00    -0.204 F 
ATOM     13  F   UNL     1      37.320 -19.902 -20.390  0.00  0.00    -0.204 F 
ATOM     14  C   UNL     1      34.948 -20.016 -20.508  0.00  0.00    +0.087 C 
ATOM     15  C   UNL     1      33.759 -20.622 -20.104  0.00  0.00    +0.145 C 
ATOM     16  C   UNL     1      36.168 -20.474 -20.012  0.00  0.00    +0.145 C 
ATOM     17  C   UNL     1      33.790 -21.686 -19.202  0.00  0.00    +0.030 C 
ATOM     18  C   UNL     1      36.200 -21.538 -19.110  0.00  0.00    +0.030 C 
ATOM     19  C   UNL     1      35.010 -22.143 -18.705  0.00  0.00    +0.005 C 
ENDBRANCH   9  14
ENDBRANCH   3   7
BRANCH   2  22
ATOM     20  N   UNL     1      31.208 -12.196 -19.850  0.00  0.00    -0.241 NA
ATOM     21  C   UNL     1      32.937 -12.255 -22.046  0.00  0.00    -0.006 C 
ATOM     22  C   UNL     1      32.639 -13.427 -21.361  0.00  0.00    +0.066 C 
ATOM     23  C   UNL     1      32.371 -11.053 -21.635  0.00  0.00    +0.018 C 
ATOM     24  C   UNL     1      31.777 -13.345 -20.279  0.00  0.00    +0.113 C 
ATOM     25  C   UNL     1      31.521 -11.077 -20.542  0.00  0.00    +0.099 C 
BRANCH  21  26
ATOM     26  C   UNL     1      33.860 -12.258 -23.223  0.00  0.00    +0.022 C 
ATOM     27  C   UNL     1      35.193 -10.779 -24.803  0.00  0.00    -0.002 C 
ATOM     28  C   UNL     1      34.292 -10.819 -23.560  0.00  0.00    +0.004 C 
ATOM     29  C   UNL     1      34.079 -12.887 -25.669  0.00  0.00    -0.065 C 
ATOM     30  C   UNL     1      33.175 -12.925 -24.429  0.00  0.00    -0.017 C 
ATOM     31  C   UNL     1      34.504 -11.452 -26.000  0.00  0.00    -0.022 C 
ATOM     32  C   UNL     1      35.577  -9.339 -25.142  0.00  0.00    -0.000 C 
BRANCH  29  33
ATOM     33  N   UNL     1      33.378 -13.472 -26.810  0.00  0.00    +0.382 N 
ATOM     34  H   UNL     1      33.995 -13.478 -27.622  0.00  0.00    -0.089 HD
ATOM     35  H   UNL     1      32.547 -12.918 -27.019  0.00  0.00    -0.089 HD
ATOM     36  H   UNL     1      33.102 -14.428 -26.586  0.00  0.00    -0.089 HD
ENDBRANCH  29  33
ENDBRANCH  21  26
ENDBRANCH   2  22
TORSDOF 5
ENDMDL
MODEL 6
REMARK VINA RESULT:      -9.4      7.990     14.054
REMARK  Name = 44814409
REMARK  5 active torsions:
REMARK  status: ('A' for Active; 'I' for Inactive)
REMARK    1  A    between atoms: N_2  and  C_22
REMARK    2  A    between atoms: C_3  and  C_7
REMARK    3  A    between atoms: C_9  and  C_14
REMARK    4  A    between atoms: C_21  and  C_26
REMARK    5  A    between atoms: C_29  and  N_33
REMARK                            x       y       z     vdW  Elec       q    Type
REMARK                         _______ _______ _______ _____ _____    ______ ____
ROOT
ATOM      1  O   UNL     1      34.461 -11.373 -24.860  0.00  0.00    -0.267 OA
ATOM      2  N   UNL     1      33.956  -9.742 -23.242  0.00  0.00    -0.278 N 
ATOM      3  C   UNL     1      34.016 -11.041 -23.766  0.00  0.00    +0.275 C 
ATOM      4  H   UNL     1      33.565  -9.658 -22.342  0.00  0.00    +0.155 HD
ENDROOT
BRANCH   3   7
ATOM      5  F   UNL     1      32.213 -15.147 -20.490  0.00  0.00    -0.202 F 
ATOM      6  N   UNL     1      34.094 -13.322 -23.007  0.00  0.00    -0.399 NA
ATOM      7  C   UNL     1      33.504 -12.113 -22.872  0.00  0.00    +0.167 C 
ATOM      8  C   UNL     1      32.485 -11.843 -21.972  0.00  0.00    +0.092 C 
ATOM      9  C   UNL     1      33.640 -14.305 -22.199  0.00  0.00    +0.162 C 
ATOM     10  C   UNL     1      32.045 -12.882 -21.158  0.00  0.00    +0.014 C 
ATOM     11  C   UNL     1      32.628 -14.139 -21.268  0.00  0.00    +0.166 C 
BRANCH   9  14
ATOM     12  F   UNL     1      33.871 -15.529 -24.712  0.00  0.00    -0.204 F 
ATOM     13  F   UNL     1      34.754 -15.708 -20.041  0.00  0.00    -0.204 F 
ATOM     14  C   UNL     1      34.294 -15.582 -22.372  0.00  0.00    +0.087 C 
ATOM     15  C   UNL     1      34.385 -16.153 -23.640  0.00  0.00    +0.145 C 
ATOM     16  C   UNL     1      34.834 -16.243 -21.268  0.00  0.00    +0.145 C 
ATOM     17  C   UNL     1      35.017 -17.385 -23.807  0.00  0.00    +0.030 C 
ATOM     18  C   UNL     1      35.466 -17.476 -21.434  0.00  0.00    +0.030 C 
ATOM     19  C   UNL     1      35.556 -18.047 -22.703  0.00  0.00    +0.005 C 
ENDBRANCH   9  14
ENDBRANCH   3   7
BRANCH   2  22
ATOM     20  N   UNL     1      35.966  -7.448 -25.290  0.00  0.00    -0.241 NA
ATOM     21  C   UNL     1      33.724  -7.350 -23.624  0.00  0.00    -0.006 C 
ATOM     22  C   UNL     1      34.382  -8.555 -23.837  0.00  0.00    +0.066 C 
ATOM     23  C   UNL     1      34.185  -6.193 -24.242  0.00  0.00    +0.018 C 
ATOM     24  C   UNL     1      35.488  -8.552 -24.672  0.00  0.00    +0.113 C 
ATOM     25  C   UNL     1      35.300  -6.295 -25.058  0.00  0.00    +0.099 C 
BRANCH  21  26
ATOM     26  C   UNL     1      32.521  -7.269 -22.739  0.00  0.00    +0.022 C 
ATOM     27  C   UNL     1      30.750  -5.705 -21.802  0.00  0.00    -0.002 C 
ATOM     28  C   UNL     1      31.951  -5.839 -22.749  0.00  0.00    +0.004 C 
ATOM     29  C   UNL     1      31.685  -7.574 -20.365  0.00  0.00    -0.065 C 
ATOM     30  C   UNL     1      32.888  -7.705 -21.308  0.00  0.00    -0.017 C 
ATOM     31  C   UNL     1      31.123  -6.148 -20.379  0.00  0.00    -0.022 C 
ATOM     32  C   UNL     1      30.226  -4.270 -21.799  0.00  0.00    -0.000 C 
BRANCH  29  33
ATOM     33  N   UNL     1      32.081  -7.938 -19.005  0.00  0.00    +0.382 N 
ATOM     34  H   UNL     1      31.248  -8.084 -18.436  0.00  0.00    -0.089 HD
ATOM     35  H   UNL     1      32.641  -7.186 -18.602  0.00  0.00    -0.089 HD
ATOM     36  H   UNL     1      32.631  -8.796 -19.029  0.00  0.00    -0.089 HD
ENDBRANCH  29  33
ENDBRANCH  21  26
ENDBRANCH   2  22
TORSDOF 5
ENDMDL
MODEL 7
REMARK VINA RESULT:      -8.8     11.370     16.992
REMARK  Name = 44814409
REMARK  5 active torsions:
REMARK  status: ('A' for Active; 'I' for Inactive)
REMARK    1  A    between atoms: N_2  and  C_22
REMARK    2  A    between atoms: C_3  and  C_7
REMARK    3  A    between atoms: C_9  and  C_14
REMARK    4  A    between atoms: C_21  and  C_26
REMARK    5  A    between atoms: C_29  and  N_33
REMARK                            x       y       z     vdW  Elec       q    Type
REMARK                         _______ _______ _______ _____ _____    ______ ____
ROOT
ATOM      1  O   UNL     1      30.316  -6.925 -23.610  0.00  0.00    -0.267 OA
ATOM      2  N   UNL     1      31.541  -5.242 -22.515  0.00  0.00    -0.278 N 
ATOM      3  C   UNL     1      31.059  -6.543 -22.712  0.00  0.00    +0.275 C 
ATOM      4  H   UNL     1      32.132  -5.113 -21.739  0.00  0.00    +0.155 HD
ENDROOT
BRANCH   3   7
ATOM      5  F   UNL     1      32.859 -10.425 -19.171  0.00  0.00    -0.202 F 
ATOM      6  N   UNL     1      31.831  -8.772 -22.240  0.00  0.00    -0.399 NA
ATOM      7  C   UNL     1      31.537  -7.554 -21.732  0.00  0.00    +0.167 C 
ATOM      8  C   UNL     1      31.657  -7.223 -20.391  0.00  0.00    +0.092 C 
ATOM      9  C   UNL     1      32.268  -9.700 -21.360  0.00  0.00    +0.162 C 
ATOM     10  C   UNL     1      32.109  -8.206 -19.517  0.00  0.00    +0.014 C 
ATOM     11  C   UNL     1      32.422  -9.470 -20.003  0.00  0.00    +0.166 C 
BRANCH   9  14
ATOM     12  F   UNL     1      31.051 -12.060 -20.459  0.00  0.00    -0.204 F 
ATOM     13  F   UNL     1      34.113  -9.989 -23.452  0.00  0.00    -0.204 F 
ATOM     14  C   UNL     1      32.573 -10.988 -21.939  0.00  0.00    +0.087 C 
ATOM     15  C   UNL     1      31.943 -12.135 -21.458  0.00  0.00    +0.145 C 
ATOM     16  C   UNL     1      33.498 -11.083 -22.979  0.00  0.00    +0.145 C 
ATOM     17  C   UNL     1      32.237 -13.379 -22.018  0.00  0.00    +0.030 C 
ATOM     18  C   UNL     1      33.793 -12.326 -23.538  0.00  0.00    +0.030 C 
ATOM     19  C   UNL     1      33.163 -13.474 -23.057  0.00  0.00    +0.005 C 
ENDBRANCH   9  14
ENDBRANCH   3   7
BRANCH   2  22
ATOM     20  N   UNL     1      30.095  -2.013 -23.511  0.00  0.00    -0.241 NA
ATOM     21  C   UNL     1      31.902  -3.898 -24.512  0.00  0.00    -0.006 C 
ATOM     22  C   UNL     1      31.285  -4.106 -23.284  0.00  0.00    +0.066 C 
ATOM     23  C   UNL     1      31.616  -2.749 -25.241  0.00  0.00    +0.018 C 
ATOM     24  C   UNL     1      30.399  -3.143 -22.831  0.00  0.00    +0.113 C 
ATOM     25  C   UNL     1      30.714  -1.846 -24.701  0.00  0.00    +0.099 C 
BRANCH  21  26
ATOM     26  C   UNL     1      32.872  -4.889 -25.071  0.00  0.00    +0.022 C 
ATOM     27  C   UNL     1      34.729  -6.520 -24.474  0.00  0.00    -0.002 C 
ATOM     28  C   UNL     1      33.678  -5.540 -23.931  0.00  0.00    +0.004 C 
ATOM     29  C   UNL     1      34.852  -5.184 -26.627  0.00  0.00    -0.065 C 
ATOM     30  C   UNL     1      33.806  -4.201 -26.083  0.00  0.00    -0.017 C 
ATOM     31  C   UNL     1      35.651  -5.827 -25.488  0.00  0.00    -0.022 C 
ATOM     32  C   UNL     1      35.542  -7.123 -23.329  0.00  0.00    -0.000 C 
BRANCH  29  33
ATOM     33  N   UNL     1      35.758  -4.488 -27.538  0.00  0.00    +0.382 N 
ATOM     34  H   UNL     1      36.503  -4.042 -27.002  0.00  0.00    -0.089 HD
ATOM     35  H   UNL     1      35.241  -3.777 -28.055  0.00  0.00    -0.089 HD
ATOM     36  H   UNL     1      36.163  -5.157 -28.192  0.00  0.00    -0.089 HD
ENDBRANCH  29  33
ENDBRANCH  21  26
ENDBRANCH   2  22
TORSDOF 5
ENDMDL
MODEL 8
REMARK VINA RESULT:      -8.7      8.619     13.082
REMARK  Name = 44814409
REMARK  5 active torsions:
REMARK  status: ('A' for Active; 'I' for Inactive)
REMARK    1  A    between atoms: N_2  and  C_22
REMARK    2  A    between atoms: C_3  and  C_7
REMARK    3  A    between atoms: C_9  and  C_14
REMARK    4  A    between atoms: C_21  and  C_26
REMARK    5  A    between atoms: C_29  and  N_33
REMARK                            x       y       z     vdW  Elec       q    Type
REMARK                         _______ _______ _______ _____ _____    ______ ____
ROOT
ATOM      1  O   UNL     1      30.870 -11.835 -21.052  0.00  0.00    -0.267 OA
ATOM      2  N   UNL     1      33.212 -12.002 -20.917  0.00  0.00    -0.278 N 
ATOM      3  C   UNL     1      31.982 -11.331 -20.924  0.00  0.00    +0.275 C 
ATOM      4  H   UNL     1      34.011 -11.437 -20.802  0.00  0.00    +0.155 HD
ENDROOT
BRANCH   3   7
ATOM      5  F   UNL     1      32.311  -5.819 -20.339  0.00  0.00    -0.202 F 
ATOM      6  N   UNL     1      32.465  -9.144 -21.798  0.00  0.00    -0.399 NA
ATOM      7  C   UNL     1      32.057  -9.860 -20.726  0.00  0.00    +0.167 C 
ATOM      8  C   UNL     1      31.721  -9.302 -19.503  0.00  0.00    +0.092 C 
ATOM      9  C   UNL     1      32.536  -7.804 -21.632  0.00  0.00    +0.162 C 
ATOM     10  C   UNL     1      31.809  -7.921 -19.372  0.00  0.00    +0.014 C 
ATOM     11  C   UNL     1      32.223  -7.150 -20.452  0.00  0.00    +0.166 C 
BRANCH   9  14
ATOM     12  F   UNL     1      35.251  -7.534 -22.284  0.00  0.00    -0.204 F 
ATOM     13  F   UNL     1      30.724  -6.567 -23.379  0.00  0.00    -0.204 F 
ATOM     14  C   UNL     1      32.975  -7.072 -22.798  0.00  0.00    +0.087 C 
ATOM     15  C   UNL     1      34.335  -6.964 -23.083  0.00  0.00    +0.145 C 
ATOM     16  C   UNL     1      32.036  -6.474 -23.639  0.00  0.00    +0.145 C 
ATOM     17  C   UNL     1      34.758  -6.257 -24.209  0.00  0.00    +0.030 C 
ATOM     18  C   UNL     1      32.458  -5.766 -24.765  0.00  0.00    +0.030 C 
ATOM     19  C   UNL     1      33.820  -5.658 -25.049  0.00  0.00    +0.005 C 
ENDBRANCH   9  14
ENDBRANCH   3   7
BRANCH   2  22
ATOM     20  N   UNL     1      33.809 -15.502 -19.972  0.00  0.00    -0.241 NA
ATOM     21  C   UNL     1      33.543 -13.978 -22.300  0.00  0.00    -0.006 C 
ATOM     22  C   UNL     1      33.445 -13.371 -21.053  0.00  0.00    +0.066 C 
ATOM     23  C   UNL     1      33.774 -15.347 -22.384  0.00  0.00    +0.018 C 
ATOM     24  C   UNL     1      33.584 -14.169 -19.930  0.00  0.00    +0.113 C 
ATOM     25  C   UNL     1      33.898 -16.057 -21.201  0.00  0.00    +0.099 C 
BRANCH  21  26
ATOM     26  C   UNL     1      33.403 -13.187 -23.561  0.00  0.00    +0.022 C 
ATOM     27  C   UNL     1      33.448 -13.324 -26.099  0.00  0.00    -0.002 C 
ATOM     28  C   UNL     1      33.526 -14.114 -24.784  0.00  0.00    +0.004 C 
ATOM     29  C   UNL     1      34.382 -11.282 -24.918  0.00  0.00    -0.065 C 
ATOM     30  C   UNL     1      34.464 -12.072 -23.606  0.00  0.00    -0.017 C 
ATOM     31  C   UNL     1      34.506 -12.211 -26.132  0.00  0.00    -0.022 C 
ATOM     32  C   UNL     1      33.612 -14.259 -27.297  0.00  0.00    -0.000 C 
BRANCH  29  33
ATOM     33  N   UNL     1      35.438 -10.273 -24.956  0.00  0.00    +0.382 N 
ATOM     34  H   UNL     1      35.826 -10.221 -25.898  0.00  0.00    -0.089 HD
ATOM     35  H   UNL     1      36.176 -10.529 -24.299  0.00  0.00    -0.089 HD
ATOM     36  H   UNL     1      35.052  -9.366 -24.696  0.00  0.00    -0.089 HD
ENDBRANCH  29  33
ENDBRANCH  21  26
ENDBRANCH   2  22
TORSDOF 5
ENDMDL
MODEL 9
REMARK VINA RESULT:      -8.6      8.634     13.129
REMARK  Name = 44814409
REMARK  5 active torsions:
REMARK  status: ('A' for Active; 'I' for Inactive)
REMARK    1  A    between atoms: N_2  and  C_22
REMARK    2  A    between atoms: C_3  and  C_7
REMARK    3  A    between atoms: C_9  and  C_14
REMARK    4  A    between atoms: C_21  and  C_26
REMARK    5  A    between atoms: C_29  and  N_33
REMARK                            x       y       z     vdW  Elec       q    Type
REMARK                         _______ _______ _______ _____ _____    ______ ____
ROOT
ATOM      1  O   UNL     1      30.877 -11.750 -21.311  0.00  0.00    -0.267 OA
ATOM      2  N   UNL     1      33.187 -11.964 -20.924  0.00  0.00    -0.278 N 
ATOM      3  C   UNL     1      31.976 -11.270 -21.054  0.00  0.00    +0.275 C 
ATOM      4  H   UNL     1      33.978 -11.417 -20.714  0.00  0.00    +0.155 HD
ENDROOT
BRANCH   3   7
ATOM      5  F   UNL     1      32.321  -5.771 -20.357  0.00  0.00    -0.202 F 
ATOM      6  N   UNL     1      32.469  -9.067 -21.882  0.00  0.00    -0.399 NA
ATOM      7  C   UNL     1      32.056  -9.803 -20.827  0.00  0.00    +0.167 C 
ATOM      8  C   UNL     1      31.718  -9.269 -19.593  0.00  0.00    +0.092 C 
ATOM      9  C   UNL     1      32.544  -7.731 -21.689  0.00  0.00    +0.162 C 
ATOM     10  C   UNL     1      31.809  -7.891 -19.434  0.00  0.00    +0.014 C 
ATOM     11  C   UNL     1      32.229  -7.100 -20.497  0.00  0.00    +0.166 C 
BRANCH   9  14
ATOM     12  F   UNL     1      30.761  -6.269 -23.286  0.00  0.00    -0.204 F 
ATOM     13  F   UNL     1      35.239  -7.641 -22.458  0.00  0.00    -0.204 F 
ATOM     14  C   UNL     1      32.987  -6.976 -22.839  0.00  0.00    +0.087 C 
ATOM     15  C   UNL     1      32.064  -6.264 -23.604  0.00  0.00    +0.145 C 
ATOM     16  C   UNL     1      34.339  -6.961 -23.183  0.00  0.00    +0.145 C 
ATOM     17  C   UNL     1      32.493  -5.535 -24.714  0.00  0.00    +0.030 C 
ATOM     18  C   UNL     1      34.768  -6.233 -24.293  0.00  0.00    +0.030 C 
ATOM     19  C   UNL     1      33.844  -5.521 -25.058  0.00  0.00    +0.005 C 
ENDBRANCH   9  14
ENDBRANCH   3   7
BRANCH   2  22
ATOM     20  N   UNL     1      33.744 -15.468 -19.967  0.00  0.00    -0.241 NA
ATOM     21  C   UNL     1      33.513 -13.946 -22.300  0.00  0.00    -0.006 C 
ATOM     22  C   UNL     1      33.409 -13.335 -21.056  0.00  0.00    +0.066 C 
ATOM     23  C   UNL     1      33.733 -15.316 -22.380  0.00  0.00    +0.018 C 
ATOM     24  C   UNL     1      33.530 -14.133 -19.930  0.00  0.00    +0.113 C 
ATOM     25  C   UNL     1      33.840 -16.026 -21.194  0.00  0.00    +0.099 C 
BRANCH  21  26
ATOM     26  C   UNL     1      33.393 -13.155 -23.564  0.00  0.00    +0.022 C 
ATOM     27  C   UNL     1      33.455 -13.299 -26.101  0.00  0.00    -0.002 C 
ATOM     28  C   UNL     1      33.513 -14.087 -24.784  0.00  0.00    +0.004 C 
ATOM     29  C   UNL     1      34.406 -11.267 -24.918  0.00  0.00    -0.065 C 
ATOM     30  C   UNL     1      34.468 -12.055 -23.603  0.00  0.00    -0.017 C 
ATOM     31  C   UNL     1      34.527 -12.200 -26.129  0.00  0.00    -0.022 C 
ATOM     32  C   UNL     1      33.615 -14.238 -27.296  0.00  0.00    -0.000 C 
BRANCH  29  33
ATOM     33  N   UNL     1      35.475 -10.271 -24.950  0.00  0.00    +0.382 N 
ATOM     34  H   UNL     1      36.356 -10.725 -25.191  0.00  0.00    -0.089 HD
ATOM     35  H   UNL     1      35.559  -9.832 -24.033  0.00  0.00    -0.089 HD
ATOM     36  H   UNL     1      35.258  -9.560 -25.648  0.00  0.00    -0.089 HD
ENDBRANCH  29  33
ENDBRANCH  21  26
ENDBRANCH   2  22
TORSDOF 5
ENDMDL
