MODEL 1
REMARK VINA RESULT:     -11.7      0.000      0.000
REMARK  Name = 9976892
REMARK  4 active torsions:
REMARK  status: ('A' for Active; 'I' for Inactive)
REMARK    1  A    between atoms: N_1  and  C_13
REMARK    2  A    between atoms: C_10  and  O_17
REMARK    3  A    between atoms: O_17  and  C_20
REMARK    4  A    between atoms: C_19  and  N_25
REMARK                            x       y       z     vdW  Elec       q    Type
REMARK                         _______ _______ _______ _____ _____    ______ ____
ROOT
ATOM      1  N   UNL     1      36.031 -24.095 -13.587  0.00  0.00    +0.389 N 
ATOM      2  C   UNL     1      37.140 -23.665 -14.449  0.00  0.00    -0.073 C 
ATOM      3  C   UNL     1      34.823 -24.476 -14.337  0.00  0.00    -0.073 C 
ATOM      4  C   UNL     1      36.904 -22.304 -15.112  0.00  0.00    +0.003 C 
ATOM      5  C   UNL     1      34.102 -23.285 -14.974  0.00  0.00    +0.003 C 
ATOM      6  C   UNL     1      36.040 -22.380 -16.346  0.00  0.00    -0.025 C 
ATOM      7  C   UNL     1      34.714 -22.844 -16.280  0.00  0.00    -0.028 C 
ATOM      8  C   UNL     1      36.562 -21.967 -17.582  0.00  0.00    +0.033 C 
ATOM      9  C   UNL     1      33.940 -22.883 -17.453  0.00  0.00    -0.002 C 
ATOM     10  C   UNL     1      35.785 -22.015 -18.739  0.00  0.00    +0.147 C 
ATOM     11  C   UNL     1      34.474 -22.472 -18.674  0.00  0.00    +0.037 C 
ATOM     12  H   UNL     1      35.778 -23.303 -12.995  0.00  0.00    -0.080 HD
ENDROOT
BRANCH   1  13
ATOM     13  C   UNL     1      36.470 -25.231 -12.818  0.00  0.00    -0.058 C 
ATOM     14  C   UNL     1      37.528 -26.044 -13.591  0.00  0.00    -0.021 C 
ATOM     15  C   UNL     1      37.598 -24.833 -11.844  0.00  0.00    -0.021 C 
ATOM     16  C   UNL     1      38.317 -26.131 -12.268  0.00  0.00    -0.004 C 
ENDBRANCH   1  13
BRANCH  10  17
ATOM     17  O   UNL     1      36.309 -21.611 -19.928  0.00  0.00    -0.436 OA
BRANCH  17  20
ATOM     18  N   UNL     1      36.911 -19.459 -20.552  0.00  0.00    -0.209 NA
ATOM     19  C   UNL     1      35.222 -17.924 -21.351  0.00  0.00    +0.073 C 
ATOM     20  C   UNL     1      35.930 -20.369 -20.410  0.00  0.00    +0.230 C 
ATOM     21  C   UNL     1      34.246 -18.901 -21.186  0.00  0.00    +0.021 C 
ATOM     22  C   UNL     1      36.528 -18.250 -21.023  0.00  0.00    +0.117 C 
ATOM     23  C   UNL     1      34.600 -20.156 -20.704  0.00  0.00    +0.059 C 
BRANCH  19  25
ATOM     24  O   UNL     1      35.206 -16.823 -24.201  0.00  0.00    -0.275 OA
ATOM     25  N   UNL     1      34.889 -16.628 -21.843  0.00  0.00    -0.257 N 
ATOM     26  C   UNL     1      33.888 -14.516 -21.872  0.00  0.00    +0.031 C 
ATOM     27  C   UNL     1      34.549 -15.528 -20.960  0.00  0.00    +0.099 C 
ATOM     28  C   UNL     1      34.587 -14.731 -23.200  0.00  0.00    +0.087 C 
ATOM     29  C   UNL     1      34.918 -16.205 -23.186  0.00  0.00    +0.229 C 
ENDBRANCH  19  25
ENDBRANCH  17  20
ENDBRANCH  10  17
TORSDOF 4
ENDMDL
MODEL 2
REMARK VINA RESULT:     -11.6      2.720     10.050
REMARK  Name = 9976892
REMARK  4 active torsions:
REMARK  status: ('A' for Active; 'I' for Inactive)
REMARK    1  A    between atoms: N_1  and  C_13
REMARK    2  A    between atoms: C_10  and  O_17
REMARK    3  A    between atoms: O_17  and  C_20
REMARK    4  A    between atoms: C_19  and  N_25
REMARK                            x       y       z     vdW  Elec       q    Type
REMARK                         _______ _______ _______ _____ _____    ______ ____
ROOT
ATOM      1  N   UNL     1      32.847 -13.331 -20.744  0.00  0.00    +0.389 N 
ATOM      2  C   UNL     1      32.992 -14.620 -20.051  0.00  0.00    -0.073 C 
ATOM      3  C   UNL     1      32.864 -13.452 -22.210  0.00  0.00    -0.073 C 
ATOM      4  C   UNL     1      34.399 -15.217 -20.165  0.00  0.00    +0.003 C 
ATOM      5  C   UNL     1      34.244 -13.804 -22.775  0.00  0.00    +0.003 C 
ATOM      6  C   UNL     1      34.638 -15.944 -21.465  0.00  0.00    -0.025 C 
ATOM      7  C   UNL     1      34.564 -15.275 -22.699  0.00  0.00    -0.028 C 
ATOM      8  C   UNL     1      34.953 -17.312 -21.443  0.00  0.00    +0.033 C 
ATOM      9  C   UNL     1      34.810 -15.990 -23.884  0.00  0.00    -0.002 C 
ATOM     10  C   UNL     1      35.190 -18.011 -22.626  0.00  0.00    +0.147 C 
ATOM     11  C   UNL     1      35.119 -17.349 -23.847  0.00  0.00    +0.037 C 
ATOM     12  H   UNL     1      33.645 -12.751 -20.481  0.00  0.00    -0.080 HD
ENDROOT
BRANCH   1  13
ATOM     13  C   UNL     1      31.593 -12.744 -20.347  0.00  0.00    -0.058 C 
ATOM     14  C   UNL     1      31.800 -11.716 -19.216  0.00  0.00    -0.021 C 
ATOM     15  C   UNL     1      31.231 -11.553 -21.259  0.00  0.00    -0.021 C 
ATOM     16  C   UNL     1      30.824 -10.795 -19.978  0.00  0.00    -0.004 C 
ENDBRANCH   1  13
BRANCH  10  17
ATOM     17  O   UNL     1      35.493 -19.336 -22.586  0.00  0.00    -0.436 OA
BRANCH  17  20
ATOM     18  N   UNL     1      36.194 -20.594 -20.766  0.00  0.00    -0.209 NA
ATOM     19  C   UNL     1      34.568 -21.414 -19.175  0.00  0.00    +0.073 C 
ATOM     20  C   UNL     1      35.169 -20.036 -21.435  0.00  0.00    +0.230 C 
ATOM     21  C   UNL     1      33.545 -20.817 -19.903  0.00  0.00    +0.021 C 
ATOM     22  C   UNL     1      35.864 -21.274 -19.644  0.00  0.00    +0.117 C 
ATOM     23  C   UNL     1      33.844 -20.110 -21.062  0.00  0.00    +0.059 C 
BRANCH  19  25
ATOM     24  O   UNL     1      36.408 -22.247 -16.884  0.00  0.00    -0.275 OA
ATOM     25  N   UNL     1      34.292 -22.146 -17.983  0.00  0.00    -0.257 N 
ATOM     26  C   UNL     1      33.024 -23.018 -16.224  0.00  0.00    +0.031 C 
ATOM     27  C   UNL     1      32.985 -22.711 -17.707  0.00  0.00    +0.099 C 
ATOM     28  C   UNL     1      34.481 -23.351 -15.972  0.00  0.00    +0.087 C 
ATOM     29  C   UNL     1      35.215 -22.493 -16.977  0.00  0.00    +0.229 C 
ENDBRANCH  19  25
ENDBRANCH  17  20
ENDBRANCH  10  17
TORSDOF 4
ENDMDL
MODEL 3
REMARK VINA RESULT:     -11.2      2.011      3.751
REMARK  Name = 9976892
REMARK  4 active torsions:
REMARK  status: ('A' for Active; 'I' for Inactive)
REMARK    1  A    between atoms: N_1  and  C_13
REMARK    2  A    between atoms: C_10  and  O_17
REMARK    3  A    between atoms: O_17  and  C_20
REMARK    4  A    between atoms: C_19  and  N_25
REMARK                            x       y       z     vdW  Elec       q    Type
REMARK                         _______ _______ _______ _____ _____    ______ ____
ROOT
ATOM      1  N   UNL     1      32.118 -23.336 -15.443  0.00  0.00    +0.389 N 
ATOM      2  C   UNL     1      32.143 -22.967 -16.866  0.00  0.00    -0.073 C 
ATOM      3  C   UNL     1      33.228 -22.755 -14.671  0.00  0.00    -0.073 C 
ATOM      4  C   UNL     1      33.277 -23.638 -17.648  0.00  0.00    +0.003 C 
ATOM      5  C   UNL     1      34.587 -23.382 -14.994  0.00  0.00    +0.003 C 
ATOM      6  C   UNL     1      34.605 -22.941 -17.495  0.00  0.00    -0.025 C 
ATOM      7  C   UNL     1      35.225 -22.820 -16.239  0.00  0.00    -0.028 C 
ATOM      8  C   UNL     1      35.243 -22.414 -18.630  0.00  0.00    +0.033 C 
ATOM      9  C   UNL     1      36.471 -22.176 -16.147  0.00  0.00    -0.002 C 
ATOM     10  C   UNL     1      36.477 -21.773 -18.523  0.00  0.00    +0.147 C 
ATOM     11  C   UNL     1      37.091 -21.655 -17.282  0.00  0.00    +0.037 C 
ATOM     12  H   UNL     1      32.214 -24.351 -15.388  0.00  0.00    -0.080 HD
ENDROOT
BRANCH   1  13
ATOM     13  C   UNL     1      30.876 -22.875 -14.878  0.00  0.00    -0.058 C 
ATOM     14  C   UNL     1      29.807 -22.693 -15.974  0.00  0.00    -0.021 C 
ATOM     15  C   UNL     1      30.034 -24.059 -14.360  0.00  0.00    -0.021 C 
ATOM     16  C   UNL     1      28.813 -23.376 -15.011  0.00  0.00    -0.004 C 
ENDBRANCH   1  13
BRANCH  10  17
ATOM     17  O   UNL     1      37.080 -21.267 -19.633  0.00  0.00    -0.436 OA
BRANCH  17  20
ATOM     18  N   UNL     1      37.333 -19.105 -20.434  0.00  0.00    -0.209 NA
ATOM     19  C   UNL     1      35.431 -17.941 -21.371  0.00  0.00    +0.073 C 
ATOM     20  C   UNL     1      36.513 -20.149 -20.221  0.00  0.00    +0.230 C 
ATOM     21  C   UNL     1      34.627 -19.049 -21.130  0.00  0.00    +0.021 C 
ATOM     22  C   UNL     1      36.766 -18.019 -21.008  0.00  0.00    +0.117 C 
ATOM     23  C   UNL     1      35.172 -20.184 -20.540  0.00  0.00    +0.059 C 
BRANCH  19  25
ATOM     24  O   UNL     1      34.961 -17.251 -24.310  0.00  0.00    -0.275 OA
ATOM     25  N   UNL     1      34.900 -16.763 -21.974  0.00  0.00    -0.257 N 
ATOM     26  C   UNL     1      33.672 -14.782 -22.136  0.00  0.00    +0.031 C 
ATOM     27  C   UNL     1      34.544 -15.590 -21.198  0.00  0.00    +0.099 C 
ATOM     28  C   UNL     1      34.231 -15.109 -23.506  0.00  0.00    +0.087 C 
ATOM     29  C   UNL     1      34.725 -16.529 -23.351  0.00  0.00    +0.229 C 
ENDBRANCH  19  25
ENDBRANCH  17  20
ENDBRANCH  10  17
TORSDOF 4
ENDMDL
MODEL 4
REMARK VINA RESULT:     -11.1      4.176     12.086
REMARK  Name = 9976892
REMARK  4 active torsions:
REMARK  status: ('A' for Active; 'I' for Inactive)
REMARK    1  A    between atoms: N_1  and  C_13
REMARK    2  A    between atoms: C_10  and  O_17
REMARK    3  A    between atoms: O_17  and  C_20
REMARK    4  A    between atoms: C_19  and  N_25
REMARK                            x       y       z     vdW  Elec       q    Type
REMARK                         _______ _______ _______ _____ _____    ______ ____
ROOT
ATOM      1  N   UNL     1      32.711  -9.057 -22.398  0.00  0.00    +0.389 N 
ATOM      2  C   UNL     1      33.852  -9.583 -23.162  0.00  0.00    -0.073 C 
ATOM      3  C   UNL     1      32.282  -9.945 -21.306  0.00  0.00    -0.073 C 
ATOM      4  C   UNL     1      33.494 -10.788 -24.039  0.00  0.00    +0.003 C 
ATOM      5  C   UNL     1      31.595 -11.224 -21.795  0.00  0.00    +0.003 C 
ATOM      6  C   UNL     1      33.462 -12.092 -23.282  0.00  0.00    -0.025 C 
ATOM      7  C   UNL     1      32.564 -12.298 -22.220  0.00  0.00    -0.028 C 
ATOM      8  C   UNL     1      34.336 -13.126 -23.653  0.00  0.00    +0.033 C 
ATOM      9  C   UNL     1      32.560 -13.535 -21.554  0.00  0.00    -0.002 C 
ATOM     10  C   UNL     1      34.325 -14.348 -22.980  0.00  0.00    +0.147 C 
ATOM     11  C   UNL     1      33.436 -14.552 -21.931  0.00  0.00    +0.037 C 
ATOM     12  H   UNL     1      31.924  -8.974 -23.043  0.00  0.00    -0.080 HD
ENDROOT
BRANCH   1  13
ATOM     13  C   UNL     1      33.090  -7.787 -21.835  0.00  0.00    -0.058 C 
ATOM     14  C   UNL     1      31.995  -6.729 -22.076  0.00  0.00    -0.021 C 
ATOM     15  C   UNL     1      32.723  -7.717 -20.339  0.00  0.00    -0.021 C 
ATOM     16  C   UNL     1      32.206  -6.289 -20.612  0.00  0.00    -0.004 C 
ENDBRANCH   1  13
BRANCH  10  17
ATOM     17  O   UNL     1      35.180 -15.338 -23.352  0.00  0.00    -0.436 OA
BRANCH  17  20
ATOM     18  N   UNL     1      35.197 -16.446 -21.313  0.00  0.00    -0.209 NA
ATOM     19  C   UNL     1      35.018 -18.857 -21.255  0.00  0.00    +0.073 C 
ATOM     20  C   UNL     1      35.124 -16.533 -22.653  0.00  0.00    +0.230 C 
ATOM     21  C   UNL     1      34.946 -18.891 -22.643  0.00  0.00    +0.021 C 
ATOM     22  C   UNL     1      35.142 -17.620 -20.643  0.00  0.00    +0.117 C 
ATOM     23  C   UNL     1      35.000 -17.706 -23.367  0.00  0.00    +0.059 C 
BRANCH  19  25
ATOM     24  O   UNL     1      32.630 -20.525 -20.334  0.00  0.00    -0.275 OA
ATOM     25  N   UNL     1      34.965 -20.057 -20.486  0.00  0.00    -0.257 N 
ATOM     26  C   UNL     1      35.712 -22.070 -19.565  0.00  0.00    +0.031 C 
ATOM     27  C   UNL     1      36.154 -20.666 -19.920  0.00  0.00    +0.099 C 
ATOM     28  C   UNL     1      34.248 -21.900 -19.214  0.00  0.00    +0.087 C 
ATOM     29  C   UNL     1      33.807 -20.757 -20.100  0.00  0.00    +0.229 C 
ENDBRANCH  19  25
ENDBRANCH  17  20
ENDBRANCH  10  17
TORSDOF 4
ENDMDL
MODEL 5
REMARK VINA RESULT:     -10.9      1.777      2.460
REMARK  Name = 9976892
REMARK  4 active torsions:
REMARK  status: ('A' for Active; 'I' for Inactive)
REMARK    1  A    between atoms: N_1  and  C_13
REMARK    2  A    between atoms: C_10  and  O_17
REMARK    3  A    between atoms: O_17  and  C_20
REMARK    4  A    between atoms: C_19  and  N_25
REMARK                            x       y       z     vdW  Elec       q    Type
REMARK                         _______ _______ _______ _____ _____    ______ ____
ROOT
ATOM      1  N   UNL     1      38.058 -24.024 -13.535  0.00  0.00    +0.389 N 
ATOM      2  C   UNL     1      38.124 -23.915 -15.000  0.00  0.00    -0.073 C 
ATOM      3  C   UNL     1      36.732 -24.427 -13.040  0.00  0.00    -0.073 C 
ATOM      4  C   UNL     1      37.352 -22.713 -15.556  0.00  0.00    +0.003 C 
ATOM      5  C   UNL     1      35.671 -23.332 -13.185  0.00  0.00    +0.003 C 
ATOM      6  C   UNL     1      35.871 -22.963 -15.690  0.00  0.00    -0.025 C 
ATOM      7  C   UNL     1      35.076 -23.256 -14.568  0.00  0.00    -0.028 C 
ATOM      8  C   UNL     1      35.271 -22.888 -16.957  0.00  0.00    +0.033 C 
ATOM      9  C   UNL     1      33.696 -23.466 -14.740  0.00  0.00    -0.002 C 
ATOM     10  C   UNL     1      33.901 -23.103 -17.114  0.00  0.00    +0.147 C 
ATOM     11  C   UNL     1      33.115 -23.391 -16.004  0.00  0.00    +0.037 C 
ATOM     12  H   UNL     1      38.254 -23.099 -13.150  0.00  0.00    -0.080 HD
ENDROOT
BRANCH   1  13
ATOM     13  C   UNL     1      39.024 -25.005 -13.111  0.00  0.00    -0.058 C 
ATOM     14  C   UNL     1      38.717 -26.383 -13.731  0.00  0.00    -0.021 C 
ATOM     15  C   UNL     1      40.278 -24.965 -14.008  0.00  0.00    -0.021 C 
ATOM     16  C   UNL     1      40.229 -26.508 -14.012  0.00  0.00    -0.004 C 
ENDBRANCH   1  13
BRANCH  10  17
ATOM     17  O   UNL     1      33.337 -23.028 -18.349  0.00  0.00    -0.436 OA
BRANCH  17  20
ATOM     18  N   UNL     1      34.987 -21.828 -19.454  0.00  0.00    -0.209 NA
ATOM     19  C   UNL     1      34.393 -19.854 -20.719  0.00  0.00    +0.073 C 
ATOM     20  C   UNL     1      33.683 -21.952 -19.151  0.00  0.00    +0.230 C 
ATOM     21  C   UNL     1      33.057 -20.028 -20.375  0.00  0.00    +0.021 C 
ATOM     22  C   UNL     1      35.311 -20.773 -20.237  0.00  0.00    +0.117 C 
ATOM     23  C   UNL     1      32.684 -21.100 -19.572  0.00  0.00    +0.059 C 
BRANCH  19  25
ATOM     24  O   UNL     1      34.838 -19.698 -23.737  0.00  0.00    -0.275 OA
ATOM     25  N   UNL     1      34.805 -18.764 -21.540  0.00  0.00    -0.257 N 
ATOM     26  C   UNL     1      35.136 -16.541 -22.179  0.00  0.00    +0.031 C 
ATOM     27  C   UNL     1      35.175 -17.475 -20.988  0.00  0.00    +0.099 C 
ATOM     28  C   UNL     1      35.529 -17.433 -23.339  0.00  0.00    +0.087 C 
ATOM     29  C   UNL     1      34.992 -18.787 -22.936  0.00  0.00    +0.229 C 
ENDBRANCH  19  25
ENDBRANCH  17  20
ENDBRANCH  10  17
TORSDOF 4
ENDMDL
MODEL 6
REMARK VINA RESULT:     -10.3      7.718     14.598
REMARK  Name = 9976892
REMARK  4 active torsions:
REMARK  status: ('A' for Active; 'I' for Inactive)
REMARK    1  A    between atoms: N_1  and  C_13
REMARK    2  A    between atoms: C_10  and  O_17
REMARK    3  A    between atoms: O_17  and  C_20
REMARK    4  A    between atoms: C_19  and  N_25
REMARK                            x       y       z     vdW  Elec       q    Type
REMARK                         _______ _______ _______ _____ _____    ______ ____
ROOT
ATOM      1  N   UNL     1      32.368  -6.214 -24.153  0.00  0.00    +0.389 N 
ATOM      2  C   UNL     1      31.784  -7.547 -24.355  0.00  0.00    -0.073 C 
ATOM      3  C   UNL     1      33.285  -6.147 -23.004  0.00  0.00    -0.073 C 
ATOM      4  C   UNL     1      30.758  -7.931 -23.284  0.00  0.00    +0.003 C 
ATOM      5  C   UNL     1      32.571  -6.236 -21.651  0.00  0.00    +0.003 C 
ATOM      6  C   UNL     1      31.382  -8.451 -22.014  0.00  0.00    -0.025 C 
ATOM      7  C   UNL     1      32.241  -7.649 -21.241  0.00  0.00    -0.028 C 
ATOM      8  C   UNL     1      31.091  -9.756 -21.585  0.00  0.00    +0.033 C 
ATOM      9  C   UNL     1      32.787  -8.170 -20.056  0.00  0.00    -0.002 C 
ATOM     10  C   UNL     1      31.644 -10.263 -20.409  0.00  0.00    +0.147 C 
ATOM     11  C   UNL     1      32.492  -9.469 -19.645  0.00  0.00    +0.037 C 
ATOM     12  H   UNL     1      31.600  -5.569 -23.962  0.00  0.00    -0.080 HD
ENDROOT
BRANCH   1  13
ATOM     13  C   UNL     1      33.097  -5.854 -25.342  0.00  0.00    -0.058 C 
ATOM     14  C   UNL     1      33.293  -4.327 -25.428  0.00  0.00    -0.021 C 
ATOM     15  C   UNL     1      34.618  -5.959 -25.108  0.00  0.00    -0.021 C 
ATOM     16  C   UNL     1      34.748  -4.614 -25.853  0.00  0.00    -0.004 C 
ENDBRANCH   1  13
BRANCH  10  17
ATOM     17  O   UNL     1      31.352 -11.530 -20.010  0.00  0.00    -0.436 OA
BRANCH  17  20
ATOM     18  N   UNL     1      32.585 -12.324 -21.808  0.00  0.00    -0.209 NA
ATOM     19  C   UNL     1      33.450 -14.582 -21.768  0.00  0.00    +0.073 C 
ATOM     20  C   UNL     1      32.059 -12.568 -20.595  0.00  0.00    +0.230 C 
ATOM     21  C   UNL     1      32.886 -14.782 -20.513  0.00  0.00    +0.021 C 
ATOM     22  C   UNL     1      33.272 -13.346 -22.368  0.00  0.00    +0.117 C 
ATOM     23  C   UNL     1      32.172 -13.756 -19.905  0.00  0.00    +0.059 C 
BRANCH  19  25
ATOM     24  O   UNL     1      35.084 -16.886 -20.606  0.00  0.00    -0.275 OA
ATOM     25  N   UNL     1      34.187 -15.616 -22.416  0.00  0.00    -0.257 N 
ATOM     26  C   UNL     1      34.804 -17.090 -24.122  0.00  0.00    +0.031 C 
ATOM     27  C   UNL     1      34.333 -15.675 -23.858  0.00  0.00    +0.099 C 
ATOM     28  C   UNL     1      35.611 -17.428 -22.885  0.00  0.00    +0.087 C 
ATOM     29  C   UNL     1      34.923 -16.641 -21.792  0.00  0.00    +0.229 C 
ENDBRANCH  19  25
ENDBRANCH  17  20
ENDBRANCH  10  17
TORSDOF 4
ENDMDL
MODEL 7
REMARK VINA RESULT:     -10.3      6.978     15.053
REMARK  Name = 9976892
REMARK  4 active torsions:
REMARK  status: ('A' for Active; 'I' for Inactive)
REMARK    1  A    between atoms: N_1  and  C_13
REMARK    2  A    between atoms: C_10  and  O_17
REMARK    3  A    between atoms: O_17  and  C_20
REMARK    4  A    between atoms: C_19  and  N_25
REMARK                            x       y       z     vdW  Elec       q    Type
REMARK                         _______ _______ _______ _____ _____    ______ ____
ROOT
ATOM      1  N   UNL     1      32.150  -5.011 -23.097  0.00  0.00    +0.389 N 
ATOM      2  C   UNL     1      31.121  -5.797 -22.401  0.00  0.00    -0.073 C 
ATOM      3  C   UNL     1      32.979  -5.815 -24.009  0.00  0.00    -0.073 C 
ATOM      4  C   UNL     1      31.691  -6.744 -21.339  0.00  0.00    +0.003 C 
ATOM      5  C   UNL     1      33.939  -6.763 -23.283  0.00  0.00    +0.003 C 
ATOM      6  C   UNL     1      32.222  -8.035 -21.910  0.00  0.00    -0.025 C 
ATOM      7  C   UNL     1      33.285  -8.044 -22.830  0.00  0.00    -0.028 C 
ATOM      8  C   UNL     1      31.653  -9.253 -21.505  0.00  0.00    +0.033 C 
ATOM      9  C   UNL     1      33.757  -9.272 -23.323  0.00  0.00    -0.002 C 
ATOM     10  C   UNL     1      32.128 -10.465 -22.007  0.00  0.00    +0.147 C 
ATOM     11  C   UNL     1      33.180 -10.474 -22.915  0.00  0.00    +0.037 C 
ATOM     12  H   UNL     1      32.773  -4.626 -22.386  0.00  0.00    -0.080 HD
ENDROOT
BRANCH   1  13
ATOM     13  C   UNL     1      31.494  -3.982 -23.860  0.00  0.00    -0.058 C 
ATOM     14  C   UNL     1      31.717  -2.596 -23.222  0.00  0.00    -0.021 C 
ATOM     15  C   UNL     1      32.388  -3.505 -25.024  0.00  0.00    -0.021 C 
ATOM     16  C   UNL     1      31.978  -2.066 -24.647  0.00  0.00    -0.004 C 
ENDBRANCH   1  13
BRANCH  10  17
ATOM     17  O   UNL     1      31.564 -11.636 -21.604  0.00  0.00    -0.436 OA
BRANCH  17  20
ATOM     18  N   UNL     1      32.689 -13.143 -22.963  0.00  0.00    -0.209 NA
ATOM     19  C   UNL     1      33.812 -15.044 -21.976  0.00  0.00    +0.073 C 
ATOM     20  C   UNL     1      32.323 -12.789 -21.718  0.00  0.00    +0.230 C 
ATOM     21  C   UNL     1      33.408 -14.633 -20.710  0.00  0.00    +0.021 C 
ATOM     22  C   UNL     1      33.430 -14.271 -23.060  0.00  0.00    +0.117 C 
ATOM     23  C   UNL     1      32.645 -13.480 -20.569  0.00  0.00    +0.059 C 
BRANCH  19  25
ATOM     24  O   UNL     1      34.768 -16.432 -24.523  0.00  0.00    -0.275 OA
ATOM     25  N   UNL     1      34.594 -16.223 -22.152  0.00  0.00    -0.257 N 
ATOM     26  C   UNL     1      36.125 -17.904 -21.612  0.00  0.00    +0.031 C 
ATOM     27  C   UNL     1      35.023 -17.042 -21.034  0.00  0.00    +0.099 C 
ATOM     28  C   UNL     1      35.709 -18.085 -23.058  0.00  0.00    +0.087 C 
ATOM     29  C   UNL     1      34.984 -16.798 -23.377  0.00  0.00    +0.229 C 
ENDBRANCH  19  25
ENDBRANCH  17  20
ENDBRANCH  10  17
TORSDOF 4
ENDMDL
MODEL 8
REMARK VINA RESULT:     -10.3      6.954     12.052
REMARK  Name = 9976892
REMARK  4 active torsions:
REMARK  status: ('A' for Active; 'I' for Inactive)
REMARK    1  A    between atoms: N_1  and  C_13
REMARK    2  A    between atoms: C_10  and  O_17
REMARK    3  A    between atoms: O_17  and  C_20
REMARK    4  A    between atoms: C_19  and  N_25
REMARK                            x       y       z     vdW  Elec       q    Type
REMARK                         _______ _______ _______ _____ _____    ______ ____
ROOT
ATOM      1  N   UNL     1      34.284 -16.199 -21.778  0.00  0.00    +0.389 N 
ATOM      2  C   UNL     1      33.809 -15.454 -20.602  0.00  0.00    -0.073 C 
ATOM      3  C   UNL     1      34.776 -15.330 -22.859  0.00  0.00    -0.073 C 
ATOM      4  C   UNL     1      32.493 -14.707 -20.846  0.00  0.00    +0.003 C 
ATOM      5  C   UNL     1      33.661 -14.559 -23.574  0.00  0.00    +0.003 C 
ATOM      6  C   UNL     1      32.675 -13.385 -21.549  0.00  0.00    -0.025 C 
ATOM      7  C   UNL     1      33.228 -13.316 -22.840  0.00  0.00    -0.028 C 
ATOM      8  C   UNL     1      32.272 -12.202 -20.910  0.00  0.00    +0.033 C 
ATOM      9  C   UNL     1      33.364 -12.063 -23.463  0.00  0.00    -0.002 C 
ATOM     10  C   UNL     1      32.417 -10.965 -21.538  0.00  0.00    +0.147 C 
ATOM     11  C   UNL     1      32.962 -10.897 -22.814  0.00  0.00    +0.037 C 
ATOM     12  H   UNL     1      33.489 -16.721 -22.150  0.00  0.00    -0.080 HD
ENDROOT
BRANCH   1  13
ATOM     13  C   UNL     1      35.357 -17.064 -21.361  0.00  0.00    -0.058 C 
ATOM     14  C   UNL     1      34.824 -18.466 -20.998  0.00  0.00    -0.021 C 
ATOM     15  C   UNL     1      36.038 -17.721 -22.579  0.00  0.00    -0.021 C 
ATOM     16  C   UNL     1      36.027 -19.040 -21.777  0.00  0.00    -0.004 C 
ENDBRANCH   1  13
BRANCH  10  17
ATOM     17  O   UNL     1      32.022  -9.829 -20.902  0.00  0.00    -0.436 OA
BRANCH  17  20
ATOM     18  N   UNL     1      31.064  -8.482 -22.531  0.00  0.00    -0.209 NA
ATOM     19  C   UNL     1      32.058  -6.341 -23.056  0.00  0.00    +0.073 C 
ATOM     20  C   UNL     1      32.044  -8.647 -21.624  0.00  0.00    +0.230 C 
ATOM     21  C   UNL     1      33.049  -6.561 -22.105  0.00  0.00    +0.021 C 
ATOM     22  C   UNL     1      31.097  -7.324 -23.229  0.00  0.00    +0.117 C 
ATOM     23  C   UNL     1      33.050  -7.739 -21.368  0.00  0.00    +0.059 C 
BRANCH  19  25
ATOM     24  O   UNL     1      30.406  -3.794 -22.717  0.00  0.00    -0.275 OA
ATOM     25  N   UNL     1      32.033  -5.142 -23.828  0.00  0.00    -0.257 N 
ATOM     26  C   UNL     1      32.812  -3.491 -25.286  0.00  0.00    +0.031 C 
ATOM     27  C   UNL     1      32.813  -4.985 -25.040  0.00  0.00    +0.099 C 
ATOM     28  C   UNL     1      31.474  -3.044 -24.732  0.00  0.00    +0.087 C 
ATOM     29  C   UNL     1      31.224  -4.012 -23.598  0.00  0.00    +0.229 C 
ENDBRANCH  19  25
ENDBRANCH  17  20
ENDBRANCH  10  17
TORSDOF 4
ENDMDL
MODEL 9
REMARK VINA RESULT:     -10.1      6.972     11.987
REMARK  Name = 9976892
REMARK  4 active torsions:
REMARK  status: ('A' for Active; 'I' for Inactive)
REMARK    1  A    between atoms: N_1  and  C_13
REMARK    2  A    between atoms: C_10  and  O_17
REMARK    3  A    between atoms: O_17  and  C_20
REMARK    4  A    between atoms: C_19  and  N_25
REMARK                            x       y       z     vdW  Elec       q    Type
REMARK                         _______ _______ _______ _____ _____    ______ ____
ROOT
ATOM      1  N   UNL     1      34.276 -16.154 -21.786  0.00  0.00    +0.389 N 
ATOM      2  C   UNL     1      33.756 -15.406 -20.632  0.00  0.00    -0.073 C 
ATOM      3  C   UNL     1      34.817 -15.289 -22.846  0.00  0.00    -0.073 C 
ATOM      4  C   UNL     1      32.454 -14.654 -20.932  0.00  0.00    +0.003 C 
ATOM      5  C   UNL     1      33.737 -14.515 -23.608  0.00  0.00    +0.003 C 
ATOM      6  C   UNL     1      32.671 -13.334 -21.628  0.00  0.00    -0.025 C 
ATOM      7  C   UNL     1      33.279 -13.268 -22.895  0.00  0.00    -0.028 C 
ATOM      8  C   UNL     1      32.247 -12.148 -21.008  0.00  0.00    +0.033 C 
ATOM      9  C   UNL     1      33.446 -12.017 -23.513  0.00  0.00    -0.002 C 
ATOM     10  C   UNL     1      32.424 -10.912 -21.630  0.00  0.00    +0.147 C 
ATOM     11  C   UNL     1      33.022 -10.848 -22.883  0.00  0.00    +0.037 C 
ATOM     12  H   UNL     1      33.496 -16.673 -22.191  0.00  0.00    -0.080 HD
ENDROOT
BRANCH   1  13
ATOM     13  C   UNL     1      35.327 -17.024 -21.323  0.00  0.00    -0.058 C 
ATOM     14  C   UNL     1      34.777 -18.429 -21.001  0.00  0.00    -0.021 C 
ATOM     15  C   UNL     1      36.069 -17.670 -22.511  0.00  0.00    -0.021 C 
ATOM     16  C   UNL     1      36.017 -18.996 -21.722  0.00  0.00    -0.004 C 
ENDBRANCH   1  13
BRANCH  10  17
ATOM     17  O   UNL     1      32.007  -9.774 -21.013  0.00  0.00    -0.436 OA
BRANCH  17  20
ATOM     18  N   UNL     1      31.042  -8.322 -22.544  0.00  0.00    -0.209 NA
ATOM     19  C   UNL     1      32.187  -6.279 -23.149  0.00  0.00    +0.073 C 
ATOM     20  C   UNL     1      32.078  -8.590 -21.730  0.00  0.00    +0.230 C 
ATOM     21  C   UNL     1      33.233  -6.604 -22.292  0.00  0.00    +0.021 C 
ATOM     22  C   UNL     1      31.124  -7.163 -23.239  0.00  0.00    +0.117 C 
ATOM     23  C   UNL     1      33.186  -7.786 -21.562  0.00  0.00    +0.059 C 
BRANCH  19  25
ATOM     24  O   UNL     1      33.565  -5.626 -25.796  0.00  0.00    -0.275 OA
ATOM     25  N   UNL     1      32.208  -5.074 -23.911  0.00  0.00    -0.257 N 
ATOM     26  C   UNL     1      31.480  -2.996 -24.692  0.00  0.00    +0.031 C 
ATOM     27  C   UNL     1      31.573  -3.855 -23.449  0.00  0.00    +0.099 C 
ATOM     28  C   UNL     1      32.697  -3.407 -25.497  0.00  0.00    +0.087 C 
ATOM     29  C   UNL     1      32.884  -4.861 -25.128  0.00  0.00    +0.229 C 
ENDBRANCH  19  25
ENDBRANCH  17  20
ENDBRANCH  10  17
TORSDOF 4
ENDMDL
