MODEL 1
REMARK VINA RESULT:     -12.6      0.000      0.000
REMARK  Name = 24821094
REMARK  5 active torsions:
REMARK  status: ('A' for Active; 'I' for Inactive)
REMARK    1  A    between atoms: N_1  and  C_12
REMARK    2  A    between atoms: C_7  and  C_20
REMARK    3  A    between atoms: C_17  and  C_18
REMARK    4  A    between atoms: C_25  and  O_26
REMARK    5  A    between atoms: O_26  and  C_27
REMARK                            x       y       z     vdW  Elec       q    Type
REMARK                         _______ _______ _______ _____ _____    ______ ____
ROOT
ATOM      1  N   UNL     1      33.909 -14.760 -21.989  0.00  0.00    -0.198 N 
ATOM      2  N   UNL     1      34.322 -15.713 -21.134  0.00  0.00    -0.181 NA
ATOM      3  N   UNL     1      33.675 -14.380 -24.368  0.00  0.00    -0.231 NA
ATOM      4  N   UNL     1      34.410 -16.311 -25.666  0.00  0.00    -0.234 NA
ATOM      5  C   UNL     1      34.010 -15.120 -23.300  0.00  0.00    +0.137 C 
ATOM      6  C   UNL     1      34.527 -16.403 -23.304  0.00  0.00    +0.150 C 
ATOM      7  C   UNL     1      34.698 -16.712 -21.942  0.00  0.00    +0.090 C 
ATOM      8  C   UNL     1      34.726 -17.000 -24.544  0.00  0.00    +0.112 C 
ATOM      9  C   UNL     1      33.911 -15.061 -25.511  0.00  0.00    +0.252 C 
ATOM     10  N   UNL     1      35.245 -18.303 -24.652  0.00  0.00    -0.346 N 
ATOM     11  H   UNL     1      35.378 -18.708 -25.541  0.00  0.00    +0.143 HD
ATOM     12  H   UNL     1      35.476 -18.811 -23.841  0.00  0.00    +0.143 HD
ENDROOT
BRANCH   1  15
ATOM     13  O   UNL     1      32.191  -8.996 -21.867  0.00  0.00    -0.270 OA
ATOM     14  N   UNL     1      32.246 -11.319 -21.959  0.00  0.00    -0.274 N 
ATOM     15  C   UNL     1      33.396 -13.440 -21.445  0.00  0.00    +0.117 C 
ATOM     16  C   UNL     1      32.444 -13.644 -20.249  0.00  0.00    +0.025 C 
ATOM     17  C   UNL     1      32.715 -12.590 -22.532  0.00  0.00    +0.115 C 
ATOM     18  C   UNL     1      31.914 -12.304 -19.733  0.00  0.00    +0.023 C 
ATOM     19  C   UNL     1      31.294 -11.478 -20.858  0.00  0.00    +0.094 C 
ATOM     20  C   UNL     1      32.613 -10.040 -22.367  0.00  0.00    +0.249 C 
BRANCH  20  21
ATOM     21  C   UNL     1      33.581  -9.924 -23.476  0.00  0.00    +0.058 C 
ATOM     22  C   UNL     1      34.420  -8.886 -23.492  0.00  0.00    +0.005 C 
ENDBRANCH  20  21
ENDBRANCH   1  15
BRANCH   7  23
ATOM     23  C   UNL     1      35.210 -17.936 -21.377  0.00  0.00    +0.016 C 
ATOM     24  C   UNL     1      34.333 -18.963 -21.031  0.00  0.00    +0.004 C 
ATOM     25  C   UNL     1      36.581 -18.093 -21.180  0.00  0.00    +0.004 C 
ATOM     26  C   UNL     1      34.828 -20.147 -20.485  0.00  0.00    +0.038 C 
ATOM     27  C   UNL     1      37.077 -19.278 -20.635  0.00  0.00    +0.038 C 
ATOM     28  C   UNL     1      36.200 -20.305 -20.287  0.00  0.00    +0.145 C 
BRANCH  28  29
ATOM     29  O   UNL     1      36.683 -21.459 -19.752  0.00  0.00    -0.453 OA
BRANCH  29  30
ATOM     30  C   UNL     1      36.108 -21.914 -18.577  0.00  0.00    +0.145 C 
ATOM     31  C   UNL     1      36.853 -21.930 -17.398  0.00  0.00    +0.037 C 
ATOM     32  C   UNL     1      34.786 -22.358 -18.573  0.00  0.00    +0.037 C 
ATOM     33  C   UNL     1      36.274 -22.389 -16.214  0.00  0.00    +0.003 C 
ATOM     34  C   UNL     1      34.207 -22.817 -17.390  0.00  0.00    +0.003 C 
ATOM     35  C   UNL     1      34.952 -22.833 -16.211  0.00  0.00    +0.000 C 
ENDBRANCH  29  30
ENDBRANCH  28  29
ENDBRANCH   7  23
TORSDOF 5
ENDMDL
MODEL 2
REMARK VINA RESULT:     -11.9      2.838      5.511
REMARK  Name = 24821094
REMARK  5 active torsions:
REMARK  status: ('A' for Active; 'I' for Inactive)
REMARK    1  A    between atoms: N_1  and  C_12
REMARK    2  A    between atoms: C_7  and  C_20
REMARK    3  A    between atoms: C_17  and  C_18
REMARK    4  A    between atoms: C_25  and  O_26
REMARK    5  A    between atoms: O_26  and  C_27
REMARK                            x       y       z     vdW  Elec       q    Type
REMARK                         _______ _______ _______ _____ _____    ______ ____
ROOT
ATOM      1  N   UNL     1      33.263 -10.557 -22.885  0.00  0.00    -0.198 N 
ATOM      2  N   UNL     1      33.905 -11.623 -23.397  0.00  0.00    -0.181 NA
ATOM      3  N   UNL     1      31.694 -10.009 -21.125  0.00  0.00    -0.231 NA
ATOM      4  N   UNL     1      31.045 -11.984 -19.849  0.00  0.00    -0.234 NA
ATOM      5  C   UNL     1      32.453 -10.860 -21.832  0.00  0.00    +0.137 C 
ATOM      6  C   UNL     1      32.575 -12.226 -21.639  0.00  0.00    +0.150 C 
ATOM      7  C   UNL     1      33.482 -12.636 -22.633  0.00  0.00    +0.090 C 
ATOM      8  C   UNL     1      31.834 -12.785 -20.603  0.00  0.00    +0.112 C 
ATOM      9  C   UNL     1      31.024 -10.664 -20.152  0.00  0.00    +0.252 C 
ATOM     10  N   UNL     1      31.892 -14.164 -20.327  0.00  0.00    -0.346 N 
ATOM     11  H   UNL     1      31.360 -14.540 -19.588  0.00  0.00    +0.143 HD
ATOM     12  H   UNL     1      32.465 -14.752 -20.870  0.00  0.00    +0.143 HD
ENDROOT
BRANCH   1  15
ATOM     13  O   UNL     1      32.619  -4.663 -23.899  0.00  0.00    -0.270 OA
ATOM     14  N   UNL     1      33.344  -6.747 -23.164  0.00  0.00    -0.274 N 
ATOM     15  C   UNL     1      33.485  -9.186 -23.497  0.00  0.00    +0.117 C 
ATOM     16  C   UNL     1      34.929  -9.014 -24.008  0.00  0.00    +0.025 C 
ATOM     17  C   UNL     1      33.123  -8.051 -22.523  0.00  0.00    +0.115 C 
ATOM     18  C   UNL     1      35.143  -7.616 -24.594  0.00  0.00    +0.023 C 
ATOM     19  C   UNL     1      34.722  -6.528 -23.609  0.00  0.00    +0.094 C 
ATOM     20  C   UNL     1      32.394  -5.749 -23.364  0.00  0.00    +0.249 C 
BRANCH  20  21
ATOM     21  C   UNL     1      31.014  -6.012 -22.908  0.00  0.00    +0.058 C 
ATOM     22  C   UNL     1      30.580  -5.421 -21.794  0.00  0.00    +0.005 C 
ENDBRANCH  20  21
ENDBRANCH   1  15
BRANCH   7  23
ATOM     23  C   UNL     1      33.964 -13.972 -22.882  0.00  0.00    +0.016 C 
ATOM     24  C   UNL     1      34.564 -14.699 -21.855  0.00  0.00    +0.004 C 
ATOM     25  C   UNL     1      33.829 -14.537 -24.150  0.00  0.00    +0.004 C 
ATOM     26  C   UNL     1      35.030 -15.991 -22.096  0.00  0.00    +0.038 C 
ATOM     27  C   UNL     1      34.295 -15.830 -24.391  0.00  0.00    +0.038 C 
ATOM     28  C   UNL     1      34.895 -16.556 -23.364  0.00  0.00    +0.145 C 
BRANCH  28  29
ATOM     29  O   UNL     1      35.353 -17.817 -23.600  0.00  0.00    -0.453 OA
BRANCH  29  30
ATOM     30  C   UNL     1      35.645 -18.612 -22.504  0.00  0.00    +0.145 C 
ATOM     31  C   UNL     1      34.673 -19.467 -21.984  0.00  0.00    +0.037 C 
ATOM     32  C   UNL     1      36.911 -18.557 -21.920  0.00  0.00    +0.037 C 
ATOM     33  C   UNL     1      34.967 -20.267 -20.880  0.00  0.00    +0.003 C 
ATOM     34  C   UNL     1      37.205 -19.357 -20.816  0.00  0.00    +0.003 C 
ATOM     35  C   UNL     1      36.233 -20.211 -20.296  0.00  0.00    +0.000 C 
ENDBRANCH  29  30
ENDBRANCH  28  29
ENDBRANCH   7  23
TORSDOF 5
ENDMDL
MODEL 3
REMARK VINA RESULT:     -11.8      1.748      9.757
REMARK  Name = 24821094
REMARK  5 active torsions:
REMARK  status: ('A' for Active; 'I' for Inactive)
REMARK    1  A    between atoms: N_1  and  C_12
REMARK    2  A    between atoms: C_7  and  C_20
REMARK    3  A    between atoms: C_17  and  C_18
REMARK    4  A    between atoms: C_25  and  O_26
REMARK    5  A    between atoms: O_26  and  C_27
REMARK                            x       y       z     vdW  Elec       q    Type
REMARK                         _______ _______ _______ _____ _____    ______ ____
ROOT
ATOM      1  N   UNL     1      34.760 -16.627 -21.859  0.00  0.00    -0.198 N 
ATOM      2  N   UNL     1      34.238 -15.574 -21.204  0.00  0.00    -0.181 NA
ATOM      3  N   UNL     1      35.083 -17.426 -24.121  0.00  0.00    -0.231 NA
ATOM      4  N   UNL     1      34.195 -15.860 -25.767  0.00  0.00    -0.234 NA
ATOM      5  C   UNL     1      34.655 -16.534 -23.215  0.00  0.00    +0.137 C 
ATOM      6  C   UNL     1      34.016 -15.332 -23.466  0.00  0.00    +0.150 C 
ATOM      7  C   UNL     1      33.786 -14.789 -22.189  0.00  0.00    +0.090 C 
ATOM      8  C   UNL     1      33.789 -15.004 -24.799  0.00  0.00    +0.112 C 
ATOM      9  C   UNL     1      34.808 -17.002 -25.374  0.00  0.00    +0.252 C 
ATOM     10  N   UNL     1      33.148 -13.804 -25.156  0.00  0.00    -0.346 N 
ATOM     11  H   UNL     1      32.998 -13.590 -26.105  0.00  0.00    +0.143 HD
ATOM     12  H   UNL     1      32.852 -13.177 -24.457  0.00  0.00    +0.143 HD
ENDROOT
BRANCH   1  15
ATOM     13  O   UNL     1      35.309 -21.943 -19.099  0.00  0.00    -0.270 OA
ATOM     14  N   UNL     1      35.389 -20.187 -20.621  0.00  0.00    -0.274 N 
ATOM     15  C   UNL     1      35.386 -17.762 -21.070  0.00  0.00    +0.117 C 
ATOM     16  C   UNL     1      36.915 -17.814 -21.255  0.00  0.00    +0.025 C 
ATOM     17  C   UNL     1      34.758 -19.123 -21.418  0.00  0.00    +0.115 C 
ATOM     18  C   UNL     1      37.525 -18.982 -20.476  0.00  0.00    +0.023 C 
ATOM     19  C   UNL     1      36.835 -20.301 -20.819  0.00  0.00    +0.094 C 
ATOM     20  C   UNL     1      34.747 -21.056 -19.744  0.00  0.00    +0.249 C 
BRANCH  20  21
ATOM     21  C   UNL     1      33.289 -20.903 -19.567  0.00  0.00    +0.058 C 
ATOM     22  C   UNL     1      32.666 -21.661 -18.662  0.00  0.00    +0.005 C 
ENDBRANCH  20  21
ENDBRANCH   1  15
BRANCH   7  23
ATOM     23  C   UNL     1      33.146 -13.537 -21.871  0.00  0.00    +0.016 C 
ATOM     24  C   UNL     1      32.307 -13.446 -20.760  0.00  0.00    +0.004 C 
ATOM     25  C   UNL     1      33.366 -12.418 -22.672  0.00  0.00    +0.004 C 
ATOM     26  C   UNL     1      31.688 -12.235 -20.452  0.00  0.00    +0.038 C 
ATOM     27  C   UNL     1      32.747 -11.206 -22.363  0.00  0.00    +0.038 C 
ATOM     28  C   UNL     1      31.908 -11.115 -21.253  0.00  0.00    +0.145 C 
BRANCH  28  29
ATOM     29  O   UNL     1      31.301  -9.934 -20.954  0.00  0.00    -0.453 OA
BRANCH  29  30
ATOM     30  C   UNL     1      31.792  -8.787 -21.555  0.00  0.00    +0.145 C 
ATOM     31  C   UNL     1      32.776  -8.032 -20.918  0.00  0.00    +0.037 C 
ATOM     32  C   UNL     1      31.302  -8.387 -22.799  0.00  0.00    +0.037 C 
ATOM     33  C   UNL     1      33.270  -6.876 -21.524  0.00  0.00    +0.003 C 
ATOM     34  C   UNL     1      31.795  -7.232 -23.404  0.00  0.00    +0.003 C 
ATOM     35  C   UNL     1      32.779  -6.476 -22.766  0.00  0.00    +0.000 C 
ENDBRANCH  29  30
ENDBRANCH  28  29
ENDBRANCH   7  23
TORSDOF 5
ENDMDL
MODEL 4
REMARK VINA RESULT:     -11.7      1.501      2.228
REMARK  Name = 24821094
REMARK  5 active torsions:
REMARK  status: ('A' for Active; 'I' for Inactive)
REMARK    1  A    between atoms: N_1  and  C_12
REMARK    2  A    between atoms: C_7  and  C_20
REMARK    3  A    between atoms: C_17  and  C_18
REMARK    4  A    between atoms: C_25  and  O_26
REMARK    5  A    between atoms: O_26  and  C_27
REMARK                            x       y       z     vdW  Elec       q    Type
REMARK                         _______ _______ _______ _____ _____    ______ ____
ROOT
ATOM      1  N   UNL     1      33.677 -13.089 -22.944  0.00  0.00    -0.198 N 
ATOM      2  N   UNL     1      34.099 -14.062 -22.116  0.00  0.00    -0.181 NA
ATOM      3  N   UNL     1      33.292 -12.702 -25.302  0.00  0.00    -0.231 NA
ATOM      4  N   UNL     1      33.824 -14.672 -26.638  0.00  0.00    -0.234 NA
ATOM      5  C   UNL     1      33.663 -13.457 -24.256  0.00  0.00    +0.137 C 
ATOM      6  C   UNL     1      34.108 -14.767 -24.290  0.00  0.00    +0.150 C 
ATOM      7  C   UNL     1      34.360 -15.082 -22.942  0.00  0.00    +0.090 C 
ATOM      8  C   UNL     1      34.183 -15.376 -25.538  0.00  0.00    +0.112 C 
ATOM      9  C   UNL     1      33.407 -13.397 -26.455  0.00  0.00    +0.252 C 
ATOM     10  N   UNL     1      34.622 -16.706 -25.676  0.00  0.00    -0.346 N 
ATOM     11  H   UNL     1      34.667 -17.119 -26.569  0.00  0.00    +0.143 HD
ATOM     12  H   UNL     1      34.883 -17.224 -24.881  0.00  0.00    +0.143 HD
ENDROOT
BRANCH   1  15
ATOM     13  O   UNL     1      33.250  -7.120 -22.345  0.00  0.00    -0.270 OA
ATOM     14  N   UNL     1      32.862  -9.358 -22.842  0.00  0.00    -0.274 N 
ATOM     15  C   UNL     1      33.278 -11.743 -22.371  0.00  0.00    +0.117 C 
ATOM     16  C   UNL     1      31.928 -11.812 -21.631  0.00  0.00    +0.025 C 
ATOM     17  C   UNL     1      33.242 -10.643 -23.447  0.00  0.00    +0.115 C 
ATOM     18  C   UNL     1      31.527 -10.439 -21.086  0.00  0.00    +0.023 C 
ATOM     19  C   UNL     1      31.555  -9.374 -22.181  0.00  0.00    +0.094 C 
ATOM     20  C   UNL     1      33.606  -8.182 -22.857  0.00  0.00    +0.249 C 
BRANCH  20  21
ATOM     21  C   UNL     1      34.921  -8.209 -23.528  0.00  0.00    +0.058 C 
ATOM     22  C   UNL     1      35.653  -7.094 -23.559  0.00  0.00    +0.005 C 
ENDBRANCH  20  21
ENDBRANCH   1  15
BRANCH   7  23
ATOM     23  C   UNL     1      34.845 -16.331 -22.409  0.00  0.00    +0.016 C 
ATOM     24  C   UNL     1      34.963 -16.500 -21.030  0.00  0.00    +0.004 C 
ATOM     25  C   UNL     1      35.193 -17.369 -23.272  0.00  0.00    +0.004 C 
ATOM     26  C   UNL     1      35.431 -17.709 -20.514  0.00  0.00    +0.038 C 
ATOM     27  C   UNL     1      35.661 -18.578 -22.756  0.00  0.00    +0.038 C 
ATOM     28  C   UNL     1      35.780 -18.747 -21.377  0.00  0.00    +0.145 C 
BRANCH  28  29
ATOM     29  O   UNL     1      36.240 -19.926 -20.874  0.00  0.00    -0.453 OA
BRANCH  29  30
ATOM     30  C   UNL     1      35.372 -20.679 -20.102  0.00  0.00    +0.145 C 
ATOM     31  C   UNL     1      35.875 -21.605 -19.189  0.00  0.00    +0.037 C 
ATOM     32  C   UNL     1      33.993 -20.512 -20.238  0.00  0.00    +0.037 C 
ATOM     33  C   UNL     1      35.000 -22.365 -18.411  0.00  0.00    +0.003 C 
ATOM     34  C   UNL     1      33.119 -21.271 -19.460  0.00  0.00    +0.003 C 
ATOM     35  C   UNL     1      33.623 -22.198 -18.548  0.00  0.00    +0.000 C 
ENDBRANCH  29  30
ENDBRANCH  28  29
ENDBRANCH   7  23
TORSDOF 5
ENDMDL
MODEL 5
REMARK VINA RESULT:     -11.3      3.780     12.153
REMARK  Name = 24821094
REMARK  5 active torsions:
REMARK  status: ('A' for Active; 'I' for Inactive)
REMARK    1  A    between atoms: N_1  and  C_12
REMARK    2  A    between atoms: C_7  and  C_20
REMARK    3  A    between atoms: C_17  and  C_18
REMARK    4  A    between atoms: C_25  and  O_26
REMARK    5  A    between atoms: O_26  and  C_27
REMARK                            x       y       z     vdW  Elec       q    Type
REMARK                         _______ _______ _______ _____ _____    ______ ____
ROOT
ATOM      1  N   UNL     1      33.216 -11.879 -23.290  0.00  0.00    -0.198 N 
ATOM      2  N   UNL     1      33.177 -10.585 -23.657  0.00  0.00    -0.181 NA
ATOM      3  N   UNL     1      32.646 -13.288 -21.406  0.00  0.00    -0.231 NA
ATOM      4  N   UNL     1      31.697 -11.995 -19.568  0.00  0.00    -0.234 NA
ATOM      5  C   UNL     1      32.732 -12.106 -22.036  0.00  0.00    +0.137 C 
ATOM      6  C   UNL     1      32.348 -10.870 -21.546  0.00  0.00    +0.150 C 
ATOM      7  C   UNL     1      32.647  -9.975 -22.590  0.00  0.00    +0.090 C 
ATOM      8  C   UNL     1      31.813 -10.838 -20.262  0.00  0.00    +0.112 C 
ATOM      9  C   UNL     1      32.115 -13.132 -20.173  0.00  0.00    +0.252 C 
ATOM     10  N   UNL     1      31.392  -9.630 -19.677  0.00  0.00    -0.346 N 
ATOM     11  H   UNL     1      31.015  -9.630 -18.766  0.00  0.00    +0.143 HD
ATOM     12  H   UNL     1      31.472  -8.786 -20.176  0.00  0.00    +0.143 HD
ENDROOT
BRANCH   1  15
ATOM     13  O   UNL     1      35.126 -17.184 -25.383  0.00  0.00    -0.270 OA
ATOM     14  N   UNL     1      33.867 -15.300 -24.861  0.00  0.00    -0.274 N 
ATOM     15  C   UNL     1      33.767 -12.912 -24.254  0.00  0.00    +0.117 C 
ATOM     16  C   UNL     1      33.418 -12.574 -25.717  0.00  0.00    +0.025 C 
ATOM     17  C   UNL     1      33.299 -14.336 -23.907  0.00  0.00    +0.115 C 
ATOM     18  C   UNL     1      33.956 -13.643 -26.672  0.00  0.00    +0.023 C 
ATOM     19  C   UNL     1      33.505 -15.041 -26.256  0.00  0.00    +0.094 C 
ATOM     20  C   UNL     1      34.675 -16.391 -24.555  0.00  0.00    +0.249 C 
BRANCH  20  21
ATOM     21  C   UNL     1      35.023 -16.613 -23.138  0.00  0.00    +0.058 C 
ATOM     22  C   UNL     1      35.417 -17.829 -22.753  0.00  0.00    +0.005 C 
ENDBRANCH  20  21
ENDBRANCH   1  15
BRANCH   7  23
ATOM     23  C   UNL     1      32.443  -8.548 -22.607  0.00  0.00    +0.016 C 
ATOM     24  C   UNL     1      33.502  -7.690 -22.310  0.00  0.00    +0.004 C 
ATOM     25  C   UNL     1      31.189  -8.026 -22.922  0.00  0.00    +0.004 C 
ATOM     26  C   UNL     1      33.305  -6.309 -22.326  0.00  0.00    +0.038 C 
ATOM     27  C   UNL     1      30.993  -6.645 -22.940  0.00  0.00    +0.038 C 
ATOM     28  C   UNL     1      32.051  -5.787 -22.642  0.00  0.00    +0.145 C 
BRANCH  28  29
ATOM     29  O   UNL     1      31.858  -4.440 -22.655  0.00  0.00    -0.453 OA
BRANCH  29  30
ATOM     30  C   UNL     1      31.740  -3.818 -23.887  0.00  0.00    +0.145 C 
ATOM     31  C   UNL     1      32.662  -4.091 -24.897  0.00  0.00    +0.037 C 
ATOM     32  C   UNL     1      30.698  -2.919 -24.118  0.00  0.00    +0.037 C 
ATOM     33  C   UNL     1      32.543  -3.465 -26.139  0.00  0.00    +0.003 C 
ATOM     34  C   UNL     1      30.579  -2.293 -25.358  0.00  0.00    +0.003 C 
ATOM     35  C   UNL     1      31.502  -2.565 -26.368  0.00  0.00    +0.000 C 
ENDBRANCH  29  30
ENDBRANCH  28  29
ENDBRANCH   7  23
TORSDOF 5
ENDMDL
MODEL 6
REMARK VINA RESULT:     -11.3      4.964     11.608
REMARK  Name = 24821094
REMARK  5 active torsions:
REMARK  status: ('A' for Active; 'I' for Inactive)
REMARK    1  A    between atoms: N_1  and  C_12
REMARK    2  A    between atoms: C_7  and  C_20
REMARK    3  A    between atoms: C_17  and  C_18
REMARK    4  A    between atoms: C_25  and  O_26
REMARK    5  A    between atoms: O_26  and  C_27
REMARK                            x       y       z     vdW  Elec       q    Type
REMARK                         _______ _______ _______ _____ _____    ______ ____
ROOT
ATOM      1  N   UNL     1      36.168 -22.990 -16.148  0.00  0.00    -0.198 N 
ATOM      2  N   UNL     1      36.643 -22.257 -17.172  0.00  0.00    -0.181 NA
ATOM      3  N   UNL     1      34.067 -23.836 -15.294  0.00  0.00    -0.231 NA
ATOM      4  N   UNL     1      32.189 -23.176 -16.703  0.00  0.00    -0.234 NA
ATOM      5  C   UNL     1      34.816 -23.157 -16.177  0.00  0.00    +0.137 C 
ATOM      6  C   UNL     1      34.372 -22.485 -17.302  0.00  0.00    +0.150 C 
ATOM      7  C   UNL     1      35.544 -21.952 -17.871  0.00  0.00    +0.090 C 
ATOM      8  C   UNL     1      33.004 -22.509 -17.554  0.00  0.00    +0.112 C 
ATOM      9  C   UNL     1      32.762 -23.790 -15.641  0.00  0.00    +0.252 C 
ATOM     10  N   UNL     1      32.457 -21.856 -18.674  0.00  0.00    -0.346 N 
ATOM     11  H   UNL     1      31.486 -21.886 -18.834  0.00  0.00    +0.143 HD
ATOM     12  H   UNL     1      33.044 -21.371 -19.297  0.00  0.00    +0.143 HD
ENDROOT
BRANCH   1  15
ATOM     13  O   UNL     1      38.144 -25.891 -11.263  0.00  0.00    -0.270 OA
ATOM     14  N   UNL     1      37.557 -25.291 -13.432  0.00  0.00    -0.274 N 
ATOM     15  C   UNL     1      37.131 -23.534 -15.109  0.00  0.00    +0.117 C 
ATOM     16  C   UNL     1      38.531 -23.787 -15.702  0.00  0.00    +0.025 C 
ATOM     17  C   UNL     1      36.596 -24.810 -14.436  0.00  0.00    +0.115 C 
ATOM     18  C   UNL     1      39.479 -24.363 -14.648  0.00  0.00    +0.023 C 
ATOM     19  C   UNL     1      38.882 -25.597 -13.975  0.00  0.00    +0.094 C 
ATOM     20  C   UNL     1      37.314 -25.477 -12.074  0.00  0.00    +0.249 C 
BRANCH  20  21
ATOM     21  C   UNL     1      35.967 -25.150 -11.565  0.00  0.00    +0.058 C 
ATOM     22  C   UNL     1      35.857 -24.405 -10.463  0.00  0.00    +0.005 C 
ENDBRANCH  20  21
ENDBRANCH   1  15
BRANCH   7  23
ATOM     23  C   UNL     1      35.654 -21.157 -19.068  0.00  0.00    +0.016 C 
ATOM     24  C   UNL     1      34.525 -20.920 -19.853  0.00  0.00    +0.004 C 
ATOM     25  C   UNL     1      36.887 -20.623 -19.440  0.00  0.00    +0.004 C 
ATOM     26  C   UNL     1      34.632 -20.150 -21.011  0.00  0.00    +0.038 C 
ATOM     27  C   UNL     1      36.993 -19.851 -20.599  0.00  0.00    +0.038 C 
ATOM     28  C   UNL     1      35.865 -19.616 -21.384  0.00  0.00    +0.145 C 
BRANCH  28  29
ATOM     29  O   UNL     1      35.969 -18.866 -22.516  0.00  0.00    -0.453 OA
BRANCH  29  30
ATOM     30  C   UNL     1      35.374 -17.616 -22.517  0.00  0.00    +0.145 C 
ATOM     31  C   UNL     1      34.990 -17.028 -23.723  0.00  0.00    +0.037 C 
ATOM     32  C   UNL     1      35.159 -16.943 -21.314  0.00  0.00    +0.037 C 
ATOM     33  C   UNL     1      34.391 -15.768 -23.725  0.00  0.00    +0.003 C 
ATOM     34  C   UNL     1      34.560 -15.684 -21.316  0.00  0.00    +0.003 C 
ATOM     35  C   UNL     1      34.178 -15.096 -22.521  0.00  0.00    +0.000 C 
ENDBRANCH  29  30
ENDBRANCH  28  29
ENDBRANCH   7  23
TORSDOF 5
ENDMDL
MODEL 7
REMARK VINA RESULT:     -10.8      4.584     12.172
REMARK  Name = 24821094
REMARK  5 active torsions:
REMARK  status: ('A' for Active; 'I' for Inactive)
REMARK    1  A    between atoms: N_1  and  C_12
REMARK    2  A    between atoms: C_7  and  C_20
REMARK    3  A    between atoms: C_17  and  C_18
REMARK    4  A    between atoms: C_25  and  O_26
REMARK    5  A    between atoms: O_26  and  C_27
REMARK                            x       y       z     vdW  Elec       q    Type
REMARK                         _______ _______ _______ _____ _____    ______ ____
ROOT
ATOM      1  N   UNL     1      32.833 -11.772 -22.174  0.00  0.00    -0.198 N 
ATOM      2  N   UNL     1      33.120 -10.779 -23.036  0.00  0.00    -0.181 NA
ATOM      3  N   UNL     1      31.908 -12.093 -19.960  0.00  0.00    -0.231 NA
ATOM      4  N   UNL     1      31.285  -9.973 -18.927  0.00  0.00    -0.234 NA
ATOM      5  C   UNL     1      32.292 -11.338 -21.001  0.00  0.00    +0.137 C 
ATOM      6  C   UNL     1      32.219  -9.959 -21.102  0.00  0.00    +0.150 C 
ATOM      7  C   UNL     1      32.743  -9.677 -22.377  0.00  0.00    +0.090 C 
ATOM      8  C   UNL     1      31.692  -9.273 -20.012  0.00  0.00    +0.112 C 
ATOM      9  C   UNL     1      31.416 -11.321 -18.967  0.00  0.00    +0.252 C 
ATOM     10  N   UNL     1      31.575  -7.871 -20.020  0.00  0.00    -0.346 N 
ATOM     11  H   UNL     1      31.198  -7.405 -19.238  0.00  0.00    +0.143 HD
ATOM     12  H   UNL     1      31.867  -7.357 -20.806  0.00  0.00    +0.143 HD
ENDROOT
BRANCH   1  15
ATOM     13  O   UNL     1      34.157 -16.517 -25.624  0.00  0.00    -0.270 OA
ATOM     14  N   UNL     1      34.250 -14.707 -24.167  0.00  0.00    -0.274 N 
ATOM     15  C   UNL     1      33.124 -13.208 -22.566  0.00  0.00    +0.117 C 
ATOM     16  C   UNL     1      33.758 -14.002 -21.406  0.00  0.00    +0.025 C 
ATOM     17  C   UNL     1      34.007 -13.298 -23.822  0.00  0.00    +0.115 C 
ATOM     18  C   UNL     1      34.072 -15.439 -21.829  0.00  0.00    +0.023 C 
ATOM     19  C   UNL     1      34.907 -15.475 -23.107  0.00  0.00    +0.094 C 
ATOM     20  C   UNL     1      33.929 -15.334 -25.368  0.00  0.00    +0.249 C 
BRANCH  20  21
ATOM     21  C   UNL     1      33.262 -14.527 -26.408  0.00  0.00    +0.058 C 
ATOM     22  C   UNL     1      33.987 -13.658 -27.115  0.00  0.00    +0.005 C 
ENDBRANCH  20  21
ENDBRANCH   1  15
BRANCH   7  23
ATOM     23  C   UNL     1      32.898  -8.384 -22.994  0.00  0.00    +0.016 C 
ATOM     24  C   UNL     1      34.165  -7.810 -23.098  0.00  0.00    +0.004 C 
ATOM     25  C   UNL     1      31.783  -7.709 -23.490  0.00  0.00    +0.004 C 
ATOM     26  C   UNL     1      34.316  -6.558 -23.696  0.00  0.00    +0.038 C 
ATOM     27  C   UNL     1      31.934  -6.458 -24.089  0.00  0.00    +0.038 C 
ATOM     28  C   UNL     1      33.201  -5.883 -24.191  0.00  0.00    +0.145 C 
BRANCH  28  29
ATOM     29  O   UNL     1      33.348  -4.661 -24.772  0.00  0.00    -0.453 OA
BRANCH  29  30
ATOM     30  C   UNL     1      32.308  -3.756 -24.640  0.00  0.00    +0.145 C 
ATOM     31  C   UNL     1      31.713  -3.206 -25.776  0.00  0.00    +0.037 C 
ATOM     32  C   UNL     1      31.856  -3.392 -23.371  0.00  0.00    +0.037 C 
ATOM     33  C   UNL     1      30.666  -2.294 -25.643  0.00  0.00    +0.003 C 
ATOM     34  C   UNL     1      30.809  -2.480 -23.238  0.00  0.00    +0.003 C 
ATOM     35  C   UNL     1      30.215  -1.931 -24.374  0.00  0.00    +0.000 C 
ENDBRANCH  29  30
ENDBRANCH  28  29
ENDBRANCH   7  23
TORSDOF 5
ENDMDL
MODEL 8
REMARK VINA RESULT:     -10.7      5.091     12.371
REMARK  Name = 24821094
REMARK  5 active torsions:
REMARK  status: ('A' for Active; 'I' for Inactive)
REMARK    1  A    between atoms: N_1  and  C_12
REMARK    2  A    between atoms: C_7  and  C_20
REMARK    3  A    between atoms: C_17  and  C_18
REMARK    4  A    between atoms: C_25  and  O_26
REMARK    5  A    between atoms: O_26  and  C_27
REMARK                            x       y       z     vdW  Elec       q    Type
REMARK                         _______ _______ _______ _____ _____    ______ ____
ROOT
ATOM      1  N   UNL     1      32.731 -10.580 -22.255  0.00  0.00    -0.198 N 
ATOM      2  N   UNL     1      33.148  -9.789 -23.261  0.00  0.00    -0.181 NA
ATOM      3  N   UNL     1      31.901 -10.411 -19.987  0.00  0.00    -0.231 NA
ATOM      4  N   UNL     1      31.759  -8.090 -19.250  0.00  0.00    -0.234 NA
ATOM      5  C   UNL     1      32.357  -9.893 -21.139  0.00  0.00    +0.137 C 
ATOM      6  C   UNL     1      32.542  -8.554 -21.435  0.00  0.00    +0.150 C 
ATOM      7  C   UNL     1      33.030  -8.556 -22.755  0.00  0.00    +0.090 C 
ATOM      8  C   UNL     1      32.224  -7.637 -20.438  0.00  0.00    +0.112 C 
ATOM      9  C   UNL     1      31.628  -9.429 -19.100  0.00  0.00    +0.252 C 
ATOM     10  N   UNL     1      32.376  -6.254 -20.644  0.00  0.00    -0.346 N 
ATOM     11  H   UNL     1      32.145  -5.621 -19.926  0.00  0.00    +0.143 HD
ATOM     12  H   UNL     1      32.712  -5.918 -21.506  0.00  0.00    +0.143 HD
ENDROOT
BRANCH   1  15
ATOM     13  O   UNL     1      33.755 -15.958 -24.747  0.00  0.00    -0.270 OA
ATOM     14  N   UNL     1      33.851 -14.034 -23.444  0.00  0.00    -0.274 N 
ATOM     15  C   UNL     1      32.717 -12.085 -22.445  0.00  0.00    +0.117 C 
ATOM     16  C   UNL     1      32.660 -12.833 -21.098  0.00  0.00    +0.025 C 
ATOM     17  C   UNL     1      33.915 -12.574 -23.278  0.00  0.00    +0.115 C 
ATOM     18  C   UNL     1      32.677 -14.349 -21.309  0.00  0.00    +0.023 C 
ATOM     19  C   UNL     1      33.855 -14.777 -22.182  0.00  0.00    +0.094 C 
ATOM     20  C   UNL     1      33.799 -14.731 -24.648  0.00  0.00    +0.249 C 
BRANCH  20  21
ATOM     21  C   UNL     1      33.790 -13.944 -25.897  0.00  0.00    +0.058 C 
ATOM     22  C   UNL     1      32.632 -13.757 -26.533  0.00  0.00    +0.005 C 
ENDBRANCH  20  21
ENDBRANCH   1  15
BRANCH   7  23
ATOM     23  C   UNL     1      33.391  -7.414 -23.557  0.00  0.00    +0.016 C 
ATOM     24  C   UNL     1      32.396  -6.603 -24.101  0.00  0.00    +0.004 C 
ATOM     25  C   UNL     1      34.734  -7.121 -23.789  0.00  0.00    +0.004 C 
ATOM     26  C   UNL     1      32.745  -5.498 -24.878  0.00  0.00    +0.038 C 
ATOM     27  C   UNL     1      35.084  -6.015 -24.565  0.00  0.00    +0.038 C 
ATOM     28  C   UNL     1      34.088  -5.204 -25.109  0.00  0.00    +0.145 C 
BRANCH  28  29
ATOM     29  O   UNL     1      34.429  -4.127 -25.869  0.00  0.00    -0.453 OA
BRANCH  29  30
ATOM     30  C   UNL     1      34.944  -4.367 -27.131  0.00  0.00    +0.145 C 
ATOM     31  C   UNL     1      34.096  -4.390 -28.239  0.00  0.00    +0.037 C 
ATOM     32  C   UNL     1      36.312  -4.587 -27.297  0.00  0.00    +0.037 C 
ATOM     33  C   UNL     1      34.616  -4.632 -29.511  0.00  0.00    +0.003 C 
ATOM     34  C   UNL     1      36.832  -4.829 -28.568  0.00  0.00    +0.003 C 
ATOM     35  C   UNL     1      35.983  -4.853 -29.674  0.00  0.00    +0.000 C 
ENDBRANCH  29  30
ENDBRANCH  28  29
ENDBRANCH   7  23
TORSDOF 5
ENDMDL
MODEL 9
REMARK VINA RESULT:     -10.7      5.318     11.777
REMARK  Name = 24821094
REMARK  5 active torsions:
REMARK  status: ('A' for Active; 'I' for Inactive)
REMARK    1  A    between atoms: N_1  and  C_12
REMARK    2  A    between atoms: C_7  and  C_20
REMARK    3  A    between atoms: C_17  and  C_18
REMARK    4  A    between atoms: C_25  and  O_26
REMARK    5  A    between atoms: O_26  and  C_27
REMARK                            x       y       z     vdW  Elec       q    Type
REMARK                         _______ _______ _______ _____ _____    ______ ____
ROOT
ATOM      1  N   UNL     1      34.880 -23.741 -15.165  0.00  0.00    -0.198 N 
ATOM      2  N   UNL     1      35.596 -23.175 -16.154  0.00  0.00    -0.181 NA
ATOM      3  N   UNL     1      32.576 -24.074 -14.502  0.00  0.00    -0.231 NA
ATOM      4  N   UNL     1      31.025 -23.089 -16.105  0.00  0.00    -0.234 NA
ATOM      5  C   UNL     1      33.533 -23.613 -15.322  0.00  0.00    +0.137 C 
ATOM      6  C   UNL     1      33.352 -22.913 -16.502  0.00  0.00    +0.150 C 
ATOM      7  C   UNL     1      34.658 -22.673 -16.966  0.00  0.00    +0.090 C 
ATOM      8  C   UNL     1      32.041 -22.653 -16.888  0.00  0.00    +0.112 C 
ATOM      9  C   UNL     1      31.350 -23.763 -14.976  0.00  0.00    +0.252 C 
ATOM     10  N   UNL     1      31.754 -21.949 -18.072  0.00  0.00    -0.346 N 
ATOM     11  H   UNL     1      30.818 -21.776 -18.326  0.00  0.00    +0.143 HD
ATOM     12  H   UNL     1      32.487 -21.631 -18.646  0.00  0.00    +0.143 HD
ENDROOT
BRANCH   1  15
ATOM     13  O   UNL     1      39.328 -26.327 -12.048  0.00  0.00    -0.270 OA
ATOM     14  N   UNL     1      37.767 -24.836 -12.913  0.00  0.00    -0.274 N 
ATOM     15  C   UNL     1      35.602 -24.432 -14.023  0.00  0.00    +0.117 C 
ATOM     16  C   UNL     1      34.990 -24.069 -12.655  0.00  0.00    +0.025 C 
ATOM     17  C   UNL     1      37.112 -24.137 -14.029  0.00  0.00    +0.115 C 
ATOM     18  C   UNL     1      35.749 -24.752 -11.514  0.00  0.00    +0.023 C 
ATOM     19  C   UNL     1      37.248 -24.469 -11.594  0.00  0.00    +0.094 C 
ATOM     20  C   UNL     1      38.797 -25.767 -13.008  0.00  0.00    +0.249 C 
BRANCH  20  21
ATOM     21  C   UNL     1      39.287 -26.115 -14.357  0.00  0.00    +0.058 C 
ATOM     22  C   UNL     1      40.531 -25.775 -14.699  0.00  0.00    +0.005 C 
ENDBRANCH  20  21
ENDBRANCH   1  15
BRANCH   7  23
ATOM     23  C   UNL     1      35.048 -21.975 -18.166  0.00  0.00    +0.016 C 
ATOM     24  C   UNL     1      34.085 -21.621 -19.110  0.00  0.00    +0.004 C 
ATOM     25  C   UNL     1      36.388 -21.654 -18.382  0.00  0.00    +0.004 C 
ATOM     26  C   UNL     1      34.462 -20.945 -20.271  0.00  0.00    +0.038 C 
ATOM     27  C   UNL     1      36.765 -20.977 -19.543  0.00  0.00    +0.038 C 
ATOM     28  C   UNL     1      35.801 -20.624 -20.487  0.00  0.00    +0.145 C 
BRANCH  28  29
ATOM     29  O   UNL     1      36.170 -19.967 -21.621  0.00  0.00    -0.453 OA
BRANCH  29  30
ATOM     30  C   UNL     1      35.652 -18.700 -21.829  0.00  0.00    +0.145 C 
ATOM     31  C   UNL     1      35.325 -18.283 -23.119  0.00  0.00    +0.037 C 
ATOM     32  C   UNL     1      35.459 -17.839 -20.748  0.00  0.00    +0.037 C 
ATOM     33  C   UNL     1      34.804 -17.006 -23.328  0.00  0.00    +0.003 C 
ATOM     34  C   UNL     1      34.938 -16.563 -20.957  0.00  0.00    +0.003 C 
ATOM     35  C   UNL     1      34.612 -16.146 -22.247  0.00  0.00    +0.000 C 
ENDBRANCH  29  30
ENDBRANCH  28  29
ENDBRANCH   7  23
TORSDOF 5
ENDMDL
