MODEL 1
REMARK VINA RESULT:     -11.8      0.000      0.000
REMARK  Name = 6852168
REMARK  5 active torsions:
REMARK  status: ('A' for Active; 'I' for Inactive)
REMARK    1  A    between atoms: N_1  and  C_5
REMARK    2  A    between atoms: N_1  and  S_19
REMARK    3  A    between atoms: N_4  and  C_9
REMARK    4  A    between atoms: C_9  and  C_14
REMARK    5  A    between atoms: S_19  and  C_23
REMARK                            x       y       z     vdW  Elec       q    Type
REMARK                         _______ _______ _______ _____ _____    ______ ____
ROOT
ATOM      1  N   UNL     1      34.665 -17.392 -22.102  0.00  0.00    -0.172 NA
ATOM      2  H   UNL     1      34.639 -17.345 -21.084  0.00  0.00    +0.149 HD
ENDROOT
BRANCH   1   5
ATOM      3  O   UNL     1      34.678 -14.687 -20.725  0.00  0.00    -0.273 OA
ATOM      4  N   UNL     1      33.671 -14.471 -22.841  0.00  0.00    -0.272 N 
ATOM      5  C   UNL     1      35.284 -16.138 -22.569  0.00  0.00    +0.153 C 
ATOM      6  C   UNL     1      35.030 -15.914 -24.056  0.00  0.00    +0.048 C 
ATOM      7  C   UNL     1      33.707 -15.172 -24.103  0.00  0.00    +0.096 C 
ATOM      8  C   UNL     1      34.544 -15.009 -21.897  0.00  0.00    +0.242 C 
BRANCH   4   9
ATOM      9  C   UNL     1      32.700 -13.430 -22.583  0.00  0.00    +0.152 C 
ATOM     10  C   UNL     1      32.339 -13.329 -21.119  0.00  0.00    +0.031 C 
BRANCH   9  14
ATOM     11  O   UNL     1      31.491  -8.546 -22.157  0.00  0.00    -0.350 OA
ATOM     12  O   UNL     1      34.305 -12.239 -23.859  0.00  0.00    -0.273 OA
ATOM     13  N   UNL     1      32.878 -10.969 -22.542  0.00  0.00    -0.273 N 
ATOM     14  C   UNL     1      33.372 -12.165 -23.055  0.00  0.00    +0.244 C 
ATOM     15  C   UNL     1      31.860 -10.850 -21.492  0.00  0.00    +0.126 C 
ATOM     16  C   UNL     1      33.469  -9.695 -22.951  0.00  0.00    +0.126 C 
ATOM     17  C   UNL     1      30.838  -9.784 -21.867  0.00  0.00    +0.164 C 
ATOM     18  C   UNL     1      32.379  -8.682 -23.270  0.00  0.00    +0.164 C 
ENDBRANCH   9  14
ENDBRANCH   4   9
ENDBRANCH   1   5
BRANCH   1  19
ATOM     19  S   UNL     1      35.363 -18.891 -22.507  0.00  0.00    +0.061 S 
ATOM     20  O   UNL     1      36.808 -18.774 -22.457  0.00  0.00    -0.153 OA
ATOM     21  O   UNL     1      34.714 -19.411 -23.695  0.00  0.00    -0.153 OA
BRANCH  19  23
ATOM     22 CL   UNL     1      34.102 -23.825 -15.745  0.00  0.00    -0.082 Cl
ATOM     23  C   UNL     1      34.851 -19.906 -21.154  0.00  0.00    +0.122 C 
ATOM     24  C   UNL     1      35.807 -20.416 -20.293  0.00  0.00    +0.020 C 
ATOM     25  C   UNL     1      33.507 -20.172 -20.983  0.00  0.00    +0.020 C 
ATOM     26  C   UNL     1      35.416 -21.224 -19.212  0.00  0.00    +0.001 C 
ATOM     27  C   UNL     1      34.043 -21.506 -19.020  0.00  0.00    +0.001 C 
ATOM     28  C   UNL     1      33.100 -20.971 -19.915  0.00  0.00    +0.001 C 
ATOM     29  C   UNL     1      36.358 -21.758 -18.318  0.00  0.00    +0.001 C 
ATOM     30  C   UNL     1      33.652 -22.315 -17.941  0.00  0.00    +0.011 C 
ATOM     31  C   UNL     1      35.951 -22.559 -17.250  0.00  0.00    +0.011 C 
ATOM     32  C   UNL     1      34.601 -22.837 -17.062  0.00  0.00    +0.058 C 
ENDBRANCH  19  23
ENDBRANCH   1  19
TORSDOF 5
ENDMDL
MODEL 2
REMARK VINA RESULT:     -10.9      4.466     10.426
REMARK  Name = 6852168
REMARK  5 active torsions:
REMARK  status: ('A' for Active; 'I' for Inactive)
REMARK    1  A    between atoms: N_1  and  C_5
REMARK    2  A    between atoms: N_1  and  S_19
REMARK    3  A    between atoms: N_4  and  C_9
REMARK    4  A    between atoms: C_9  and  C_14
REMARK    5  A    between atoms: S_19  and  C_23
REMARK                            x       y       z     vdW  Elec       q    Type
REMARK                         _______ _______ _______ _____ _____    ______ ____
ROOT
ATOM      1  N   UNL     1      35.022 -19.668 -20.401  0.00  0.00    -0.172 NA
ATOM      2  H   UNL     1      34.099 -19.381 -20.727  0.00  0.00    +0.149 HD
ENDROOT
BRANCH   1   5
ATOM      3  O   UNL     1      32.702 -21.541 -19.837  0.00  0.00    -0.273 OA
ATOM      4  N   UNL     1      34.421 -21.952 -18.283  0.00  0.00    -0.272 N 
ATOM      5  C   UNL     1      35.028 -21.141 -20.388  0.00  0.00    +0.153 C 
ATOM      6  C   UNL     1      36.262 -21.685 -19.677  0.00  0.00    +0.048 C 
ATOM      7  C   UNL     1      35.852 -21.764 -18.219  0.00  0.00    +0.096 C 
ATOM      8  C   UNL     1      33.880 -21.574 -19.511  0.00  0.00    +0.242 C 
BRANCH   4   9
ATOM      9  C   UNL     1      33.657 -22.340 -17.118  0.00  0.00    +0.152 C 
ATOM     10  C   UNL     1      32.169 -22.353 -17.382  0.00  0.00    +0.031 C 
BRANCH   9  14
ATOM     11  O   UNL     1      37.028 -24.069 -13.780  0.00  0.00    -0.350 OA
ATOM     12  O   UNL     1      33.875 -24.662 -17.543  0.00  0.00    -0.273 OA
ATOM     13  N   UNL     1      34.914 -23.856 -15.630  0.00  0.00    -0.273 N 
ATOM     14  C   UNL     1      34.153 -23.726 -16.789  0.00  0.00    +0.244 C 
ATOM     15  C   UNL     1      35.155 -22.794 -14.648  0.00  0.00    +0.126 C 
ATOM     16  C   UNL     1      35.438 -25.165 -15.240  0.00  0.00    +0.126 C 
ATOM     17  C   UNL     1      36.623 -22.777 -14.240  0.00  0.00    +0.164 C 
ATOM     18  C   UNL     1      36.894 -25.047 -14.814  0.00  0.00    +0.164 C 
ENDBRANCH   9  14
ENDBRANCH   4   9
ENDBRANCH   1   5
BRANCH   1  19
ATOM     19  S   UNL     1      36.160 -18.818 -21.341  0.00  0.00    +0.061 S 
ATOM     20  O   UNL     1      36.370 -19.522 -22.591  0.00  0.00    -0.153 OA
ATOM     21  O   UNL     1      37.292 -18.461 -20.506  0.00  0.00    -0.153 OA
BRANCH  19  23
ATOM     22 CL   UNL     1      31.628 -11.688 -21.876  0.00  0.00    -0.082 Cl
ATOM     23  C   UNL     1      35.290 -17.322 -21.697  0.00  0.00    +0.122 C 
ATOM     24  C   UNL     1      34.555 -16.713 -20.695  0.00  0.00    +0.020 C 
ATOM     25  C   UNL     1      35.359 -16.789 -22.969  0.00  0.00    +0.020 C 
ATOM     26  C   UNL     1      33.858 -15.523 -20.962  0.00  0.00    +0.001 C 
ATOM     27  C   UNL     1      33.918 -14.962 -22.260  0.00  0.00    +0.001 C 
ATOM     28  C   UNL     1      34.674 -15.608 -23.252  0.00  0.00    +0.001 C 
ATOM     29  C   UNL     1      33.103 -14.877 -19.969  0.00  0.00    +0.001 C 
ATOM     30  C   UNL     1      33.220 -13.773 -22.527  0.00  0.00    +0.011 C 
ATOM     31  C   UNL     1      32.417 -13.696 -20.252  0.00  0.00    +0.011 C 
ATOM     32  C   UNL     1      32.475 -13.145 -21.529  0.00  0.00    +0.058 C 
ENDBRANCH  19  23
ENDBRANCH   1  19
TORSDOF 5
ENDMDL
MODEL 3
REMARK VINA RESULT:     -10.7      7.131     12.080
REMARK  Name = 6852168
REMARK  5 active torsions:
REMARK  status: ('A' for Active; 'I' for Inactive)
REMARK    1  A    between atoms: N_1  and  C_5
REMARK    2  A    between atoms: N_1  and  S_19
REMARK    3  A    between atoms: N_4  and  C_9
REMARK    4  A    between atoms: C_9  and  C_14
REMARK    5  A    between atoms: S_19  and  C_23
REMARK                            x       y       z     vdW  Elec       q    Type
REMARK                         _______ _______ _______ _____ _____    ______ ____
ROOT
ATOM      1  N   UNL     1      35.295 -23.065 -17.083  0.00  0.00    -0.172 NA
ATOM      2  H   UNL     1      35.817 -22.265 -17.439  0.00  0.00    +0.149 HD
ENDROOT
BRANCH   1   5
ATOM      3  O   UNL     1      37.656 -23.702 -15.285  0.00  0.00    -0.273 OA
ATOM      4  N   UNL     1      35.847 -25.090 -14.703  0.00  0.00    -0.272 N 
ATOM      5  C   UNL     1      35.361 -22.994 -15.612  0.00  0.00    +0.153 C 
ATOM      6  C   UNL     1      34.105 -23.573 -14.972  0.00  0.00    +0.048 C 
ATOM      7  C   UNL     1      34.408 -25.053 -14.823  0.00  0.00    +0.096 C 
ATOM      8  C   UNL     1      36.460 -23.932 -15.179  0.00  0.00    +0.242 C 
BRANCH   4   9
ATOM      9  C   UNL     1      36.539 -26.287 -14.280  0.00  0.00    +0.152 C 
ATOM     10  C   UNL     1      36.958 -27.153 -15.445  0.00  0.00    +0.031 C 
BRANCH   9  14
ATOM     11  O   UNL     1      37.074 -23.064 -10.430  0.00  0.00    -0.350 OA
ATOM     12  O   UNL     1      38.873 -25.992 -13.986  0.00  0.00    -0.273 OA
ATOM     13  N   UNL     1      37.499 -25.078 -12.354  0.00  0.00    -0.273 N 
ATOM     14  C   UNL     1      37.746 -25.778 -13.533  0.00  0.00    +0.244 C 
ATOM     15  C   UNL     1      36.185 -24.916 -11.721  0.00  0.00    +0.126 C 
ATOM     16  C   UNL     1      38.613 -24.546 -11.569  0.00  0.00    +0.126 C 
ATOM     17  C   UNL     1      35.992 -23.474 -11.270  0.00  0.00    +0.164 C 
ATOM     18  C   UNL     1      38.318 -23.118 -11.132  0.00  0.00    +0.164 C 
ENDBRANCH   9  14
ENDBRANCH   4   9
ENDBRANCH   1   5
BRANCH   1  19
ATOM     19  S   UNL     1      33.785 -23.057 -17.871  0.00  0.00    +0.061 S 
ATOM     20  O   UNL     1      32.757 -22.657 -16.930  0.00  0.00    -0.153 OA
ATOM     21  O   UNL     1      33.641 -24.284 -18.631  0.00  0.00    -0.153 OA
BRANCH  19  23
ATOM     22 CL   UNL     1      35.992 -16.923 -23.273  0.00  0.00    -0.082 Cl
ATOM     23  C   UNL     1      33.994 -21.748 -19.039  0.00  0.00    +0.122 C 
ATOM     24  C   UNL     1      35.273 -21.318 -19.351  0.00  0.00    +0.020 C 
ATOM     25  C   UNL     1      32.878 -21.177 -19.619  0.00  0.00    +0.020 C 
ATOM     26  C   UNL     1      35.456 -20.279 -20.278  0.00  0.00    +0.001 C 
ATOM     27  C   UNL     1      34.324 -19.683 -20.882  0.00  0.00    +0.001 C 
ATOM     28  C   UNL     1      33.041 -20.145 -20.542  0.00  0.00    +0.001 C 
ATOM     29  C   UNL     1      36.738 -19.818 -20.618  0.00  0.00    +0.001 C 
ATOM     30  C   UNL     1      34.507 -18.644 -21.808  0.00  0.00    +0.011 C 
ATOM     31  C   UNL     1      36.902 -18.785 -21.541  0.00  0.00    +0.011 C 
ATOM     32  C   UNL     1      35.788 -18.198 -22.135  0.00  0.00    +0.058 C 
ENDBRANCH  19  23
ENDBRANCH   1  19
TORSDOF 5
ENDMDL
MODEL 4
REMARK VINA RESULT:     -10.4      7.263     12.219
REMARK  Name = 6852168
REMARK  5 active torsions:
REMARK  status: ('A' for Active; 'I' for Inactive)
REMARK    1  A    between atoms: N_1  and  C_5
REMARK    2  A    between atoms: N_1  and  S_19
REMARK    3  A    between atoms: N_4  and  C_9
REMARK    4  A    between atoms: C_9  and  C_14
REMARK    5  A    between atoms: S_19  and  C_23
REMARK                            x       y       z     vdW  Elec       q    Type
REMARK                         _______ _______ _______ _____ _____    ______ ____
ROOT
ATOM      1  N   UNL     1      34.863 -23.286 -16.892  0.00  0.00    -0.172 NA
ATOM      2  H   UNL     1      35.639 -22.851 -17.392  0.00  0.00    +0.149 HD
ENDROOT
BRANCH   1   5
ATOM      3  O   UNL     1      37.026 -22.442 -14.937  0.00  0.00    -0.273 OA
ATOM      4  N   UNL     1      35.471 -23.814 -13.824  0.00  0.00    -0.272 N 
ATOM      5  C   UNL     1      34.705 -22.545 -15.628  0.00  0.00    +0.153 C 
ATOM      6  C   UNL     1      33.514 -23.061 -14.829  0.00  0.00    +0.048 C 
ATOM      7  C   UNL     1      34.086 -24.189 -13.990  0.00  0.00    +0.096 C 
ATOM      8  C   UNL     1      35.898 -22.885 -14.771  0.00  0.00    +0.242 C 
BRANCH   4   9
ATOM      9  C   UNL     1      36.324 -24.481 -12.865  0.00  0.00    +0.152 C 
ATOM     10  C   UNL     1      35.555 -25.000 -11.672  0.00  0.00    +0.031 C 
BRANCH   9  14
ATOM     11  O   UNL     1      41.097 -25.642 -14.034  0.00  0.00    -0.350 OA
ATOM     12  O   UNL     1      36.212 -26.364 -14.303  0.00  0.00    -0.273 OA
ATOM     13  N   UNL     1      38.323 -25.755 -13.553  0.00  0.00    -0.273 N 
ATOM     14  C   UNL     1      36.940 -25.620 -13.639  0.00  0.00    +0.244 C 
ATOM     15  C   UNL     1      39.201 -24.971 -12.677  0.00  0.00    +0.126 C 
ATOM     16  C   UNL     1      39.002 -26.830 -14.277  0.00  0.00    +0.126 C 
ATOM     17  C   UNL     1      40.440 -24.520 -13.440  0.00  0.00    +0.164 C 
ATOM     18  C   UNL     1      40.244 -26.297 -14.976  0.00  0.00    +0.164 C 
ENDBRANCH   9  14
ENDBRANCH   4   9
ENDBRANCH   1   5
BRANCH   1  19
ATOM     19  S   UNL     1      33.567 -23.386 -17.992  0.00  0.00    +0.061 S 
ATOM     20  O   UNL     1      32.322 -23.153 -17.285  0.00  0.00    -0.153 OA
ATOM     21  O   UNL     1      33.730 -24.574 -18.809  0.00  0.00    -0.153 OA
BRANCH  19  23
ATOM     22 CL   UNL     1      36.207 -16.931 -22.789  0.00  0.00    -0.082 Cl
ATOM     23  C   UNL     1      33.869 -21.995 -19.037  0.00  0.00    +0.122 C 
ATOM     24  C   UNL     1      35.175 -21.603 -19.280  0.00  0.00    +0.020 C 
ATOM     25  C   UNL     1      32.798 -21.322 -19.591  0.00  0.00    +0.020 C 
ATOM     26  C   UNL     1      35.432 -20.499 -20.109  0.00  0.00    +0.001 C 
ATOM     27  C   UNL     1      34.346 -19.799 -20.686  0.00  0.00    +0.001 C 
ATOM     28  C   UNL     1      33.034 -20.224 -20.417  0.00  0.00    +0.001 C 
ATOM     29  C   UNL     1      36.744 -20.075 -20.379  0.00  0.00    +0.001 C 
ATOM     30  C   UNL     1      34.603 -18.694 -21.514  0.00  0.00    +0.011 C 
ATOM     31  C   UNL     1      36.980 -18.976 -21.205  0.00  0.00    +0.011 C 
ATOM     32  C   UNL     1      35.912 -18.287 -21.771  0.00  0.00    +0.058 C 
ENDBRANCH  19  23
ENDBRANCH   1  19
TORSDOF 5
ENDMDL
MODEL 5
REMARK VINA RESULT:     -10.4      3.610      6.362
REMARK  Name = 6852168
REMARK  5 active torsions:
REMARK  status: ('A' for Active; 'I' for Inactive)
REMARK    1  A    between atoms: N_1  and  C_5
REMARK    2  A    between atoms: N_1  and  S_19
REMARK    3  A    between atoms: N_4  and  C_9
REMARK    4  A    between atoms: C_9  and  C_14
REMARK    5  A    between atoms: S_19  and  C_23
REMARK                            x       y       z     vdW  Elec       q    Type
REMARK                         _______ _______ _______ _____ _____    ______ ____
ROOT
ATOM      1  N   UNL     1      33.699 -21.545 -18.425  0.00  0.00    -0.172 NA
ATOM      2  H   UNL     1      34.602 -21.272 -18.037  0.00  0.00    +0.149 HD
ENDROOT
BRANCH   1   5
ATOM      3  O   UNL     1      36.262 -21.310 -20.034  0.00  0.00    -0.273 OA
ATOM      4  N   UNL     1      34.799 -19.573 -20.653  0.00  0.00    -0.272 N 
ATOM      5  C   UNL     1      33.856 -21.569 -19.890  0.00  0.00    +0.153 C 
ATOM      6  C   UNL     1      32.784 -20.730 -20.576  0.00  0.00    +0.048 C 
ATOM      7  C   UNL     1      33.375 -19.334 -20.627  0.00  0.00    +0.096 C 
ATOM      8  C   UNL     1      35.142 -20.847 -20.203  0.00  0.00    +0.242 C 
BRANCH   4   9
ATOM      9  C   UNL     1      35.737 -18.517 -20.967  0.00  0.00    +0.152 C 
ATOM     10  C   UNL     1      37.166 -18.909 -20.672  0.00  0.00    +0.031 C 
BRANCH   9  14
ATOM     11  O   UNL     1      33.960 -14.582 -23.585  0.00  0.00    -0.350 OA
ATOM     12  O   UNL     1      35.644 -19.218 -23.231  0.00  0.00    -0.273 OA
ATOM     13  N   UNL     1      35.256 -16.965 -22.825  0.00  0.00    -0.273 N 
ATOM     14  C   UNL     1      35.545 -18.273 -22.443  0.00  0.00    +0.244 C 
ATOM     15  C   UNL     1      35.257 -15.800 -21.935  0.00  0.00    +0.126 C 
ATOM     16  C   UNL     1      35.051 -16.642 -24.237  0.00  0.00    +0.126 C 
ATOM     17  C   UNL     1      34.032 -14.933 -22.201  0.00  0.00    +0.164 C 
ATOM     18  C   UNL     1      33.832 -15.746 -24.404  0.00  0.00    +0.164 C 
ENDBRANCH   9  14
ENDBRANCH   4   9
ENDBRANCH   1   5
BRANCH   1  19
ATOM     19  S   UNL     1      33.213 -22.951 -17.595  0.00  0.00    +0.061 S 
ATOM     20  O   UNL     1      33.372 -24.099 -18.467  0.00  0.00    -0.153 OA
ATOM     21  O   UNL     1      31.942 -22.701 -16.943  0.00  0.00    -0.153 OA
BRANCH  19  23
ATOM     22 CL   UNL     1      38.175 -23.979 -10.814  0.00  0.00    -0.082 Cl
ATOM     23  C   UNL     1      34.434 -23.060 -16.322  0.00  0.00    +0.122 C 
ATOM     24  C   UNL     1      34.087 -23.608 -15.099  0.00  0.00    +0.020 C 
ATOM     25  C   UNL     1      35.710 -22.594 -16.571  0.00  0.00    +0.020 C 
ATOM     26  C   UNL     1      35.046 -23.701 -14.077  0.00  0.00    +0.001 C 
ATOM     27  C   UNL     1      36.359 -23.231 -14.314  0.00  0.00    +0.001 C 
ATOM     28  C   UNL     1      36.675 -22.680 -15.568  0.00  0.00    +0.001 C 
ATOM     29  C   UNL     1      34.730 -24.253 -12.825  0.00  0.00    +0.001 C 
ATOM     30  C   UNL     1      37.318 -23.323 -13.293  0.00  0.00    +0.011 C 
ATOM     31  C   UNL     1      35.696 -24.338 -11.821  0.00  0.00    +0.011 C 
ATOM     32  C   UNL     1      36.987 -23.873 -12.054  0.00  0.00    +0.058 C 
ENDBRANCH  19  23
ENDBRANCH   1  19
TORSDOF 5
ENDMDL
MODEL 6
REMARK VINA RESULT:     -10.4      5.033      7.713
REMARK  Name = 6852168
REMARK  5 active torsions:
REMARK  status: ('A' for Active; 'I' for Inactive)
REMARK    1  A    between atoms: N_1  and  C_5
REMARK    2  A    between atoms: N_1  and  S_19
REMARK    3  A    between atoms: N_4  and  C_9
REMARK    4  A    between atoms: C_9  and  C_14
REMARK    5  A    between atoms: S_19  and  C_23
REMARK                            x       y       z     vdW  Elec       q    Type
REMARK                         _______ _______ _______ _____ _____    ______ ____
ROOT
ATOM      1  N   UNL     1      32.375 -10.071 -20.470  0.00  0.00    -0.172 NA
ATOM      2  H   UNL     1      33.034 -10.323 -21.206  0.00  0.00    +0.149 HD
ENDROOT
BRANCH   1   5
ATOM      3  O   UNL     1      32.097  -8.952 -23.277  0.00  0.00    -0.273 OA
ATOM      4  N   UNL     1      33.280  -7.413 -21.947  0.00  0.00    -0.272 N 
ATOM      5  C   UNL     1      31.738  -8.808 -20.885  0.00  0.00    +0.153 C 
ATOM      6  C   UNL     1      32.114  -7.664 -19.951  0.00  0.00    +0.048 C 
ATOM      7  C   UNL     1      33.396  -7.105 -20.541  0.00  0.00    +0.096 C 
ATOM      8  C   UNL     1      32.354  -8.422 -22.206  0.00  0.00    +0.242 C 
BRANCH   4   9
ATOM      9  C   UNL     1      34.169  -6.824 -22.925  0.00  0.00    +0.152 C 
ATOM     10  C   UNL     1      34.820  -7.861 -23.810  0.00  0.00    +0.031 C 
BRANCH   9  14
ATOM     11  O   UNL     1      34.978  -4.057 -27.070  0.00  0.00    -0.350 OA
ATOM     12  O   UNL     1      32.186  -5.573 -23.280  0.00  0.00    -0.273 OA
ATOM     13  N   UNL     1      33.775  -5.501 -24.971  0.00  0.00    -0.273 N 
ATOM     14  C   UNL     1      33.282  -5.912 -23.735  0.00  0.00    +0.244 C 
ATOM     15  C   UNL     1      35.011  -5.984 -25.596  0.00  0.00    +0.126 C 
ATOM     16  C   UNL     1      32.981  -4.612 -25.819  0.00  0.00    +0.126 C 
ATOM     17  C   UNL     1      35.798  -4.816 -26.179  0.00  0.00    +0.164 C 
ATOM     18  C   UNL     1      33.853  -3.500 -26.385  0.00  0.00    +0.164 C 
ENDBRANCH   9  14
ENDBRANCH   4   9
ENDBRANCH   1   5
BRANCH   1  19
ATOM     19  S   UNL     1      31.423 -11.450 -20.169  0.00  0.00    +0.061 S 
ATOM     20  O   UNL     1      30.136 -11.294 -20.821  0.00  0.00    -0.153 OA
ATOM     21  O   UNL     1      31.490 -11.773 -18.757  0.00  0.00    -0.153 OA
BRANCH  19  23
ATOM     22 CL   UNL     1      35.884 -17.982 -23.187  0.00  0.00    -0.082 Cl
ATOM     23  C   UNL     1      32.321 -12.705 -21.029  0.00  0.00    +0.122 C 
ATOM     24  C   UNL     1      32.862 -13.759 -20.313  0.00  0.00    +0.020 C 
ATOM     25  C   UNL     1      32.469 -12.609 -22.399  0.00  0.00    +0.020 C 
ATOM     26  C   UNL     1      33.579 -14.765 -20.982  0.00  0.00    +0.001 C 
ATOM     27  C   UNL     1      33.740 -14.684 -22.386  0.00  0.00    +0.001 C 
ATOM     28  C   UNL     1      33.177 -13.599 -23.079  0.00  0.00    +0.001 C 
ATOM     29  C   UNL     1      34.140 -15.850 -20.288  0.00  0.00    +0.001 C 
ATOM     30  C   UNL     1      34.457 -15.689 -23.054  0.00  0.00    +0.011 C 
ATOM     31  C   UNL     1      34.850 -16.840 -20.969  0.00  0.00    +0.011 C 
ATOM     32  C   UNL     1      35.008 -16.759 -22.349  0.00  0.00    +0.058 C 
ENDBRANCH  19  23
ENDBRANCH   1  19
TORSDOF 5
ENDMDL
MODEL 7
REMARK VINA RESULT:     -10.4      5.786      8.173
REMARK  Name = 6852168
REMARK  5 active torsions:
REMARK  status: ('A' for Active; 'I' for Inactive)
REMARK    1  A    between atoms: N_1  and  C_5
REMARK    2  A    between atoms: N_1  and  S_19
REMARK    3  A    between atoms: N_4  and  C_9
REMARK    4  A    between atoms: C_9  and  C_14
REMARK    5  A    between atoms: S_19  and  C_23
REMARK                            x       y       z     vdW  Elec       q    Type
REMARK                         _______ _______ _______ _____ _____    ______ ____
ROOT
ATOM      1  N   UNL     1      32.333  -9.988 -20.346  0.00  0.00    -0.172 NA
ATOM      2  H   UNL     1      32.940 -10.299 -21.104  0.00  0.00    +0.149 HD
ENDROOT
BRANCH   1   5
ATOM      3  O   UNL     1      32.052  -8.946 -23.183  0.00  0.00    -0.273 OA
ATOM      4  N   UNL     1      33.258  -7.383 -21.902  0.00  0.00    -0.272 N 
ATOM      5  C   UNL     1      31.707  -8.731 -20.793  0.00  0.00    +0.153 C 
ATOM      6  C   UNL     1      32.100  -7.565 -19.894  0.00  0.00    +0.048 C 
ATOM      7  C   UNL     1      33.384  -7.036 -20.506  0.00  0.00    +0.096 C 
ATOM      8  C   UNL     1      32.320  -8.389 -22.128  0.00  0.00    +0.242 C 
BRANCH   4   9
ATOM      9  C   UNL     1      34.147  -6.831 -22.901  0.00  0.00    +0.152 C 
ATOM     10  C   UNL     1      34.779  -7.899 -23.763  0.00  0.00    +0.031 C 
BRANCH   9  14
ATOM     11  O   UNL     1      34.993  -4.104 -27.065  0.00  0.00    -0.350 OA
ATOM     12  O   UNL     1      32.166  -5.587 -23.288  0.00  0.00    -0.273 OA
ATOM     13  N   UNL     1      33.772  -5.529 -24.964  0.00  0.00    -0.273 N 
ATOM     14  C   UNL     1      33.267  -5.929 -23.729  0.00  0.00    +0.244 C 
ATOM     15  C   UNL     1      35.015  -6.016 -25.572  0.00  0.00    +0.126 C 
ATOM     16  C   UNL     1      32.985  -4.650 -25.828  0.00  0.00    +0.126 C 
ATOM     17  C   UNL     1      35.806  -4.853 -26.158  0.00  0.00    +0.164 C 
ATOM     18  C   UNL     1      33.861  -3.543 -26.397  0.00  0.00    +0.164 C 
ENDBRANCH   9  14
ENDBRANCH   4   9
ENDBRANCH   1   5
BRANCH   1  19
ATOM     19  S   UNL     1      31.363 -11.320 -19.916  0.00  0.00    +0.061 S 
ATOM     20  O   UNL     1      30.057 -11.178 -20.531  0.00  0.00    -0.153 OA
ATOM     21  O   UNL     1      31.475 -11.546 -18.488  0.00  0.00    -0.153 OA
BRANCH  19  23
ATOM     22 CL   UNL     1      35.147 -17.107 -24.800  0.00  0.00    -0.082 Cl
ATOM     23  C   UNL     1      32.202 -12.653 -20.717  0.00  0.00    +0.122 C 
ATOM     24  C   UNL     1      32.331 -12.638 -22.096  0.00  0.00    +0.020 C 
ATOM     25  C   UNL     1      32.711 -13.685 -19.954  0.00  0.00    +0.020 C 
ATOM     26  C   UNL     1      32.996 -13.690 -22.747  0.00  0.00    +0.001 C 
ATOM     27  C   UNL     1      33.525 -14.756 -21.981  0.00  0.00    +0.001 C 
ATOM     28  C   UNL     1      33.374 -14.737 -20.584  0.00  0.00    +0.001 C 
ATOM     29  C   UNL     1      33.147 -13.708 -24.143  0.00  0.00    +0.001 C 
ATOM     30  C   UNL     1      34.188 -15.808 -22.632  0.00  0.00    +0.011 C 
ATOM     31  C   UNL     1      33.810 -14.761 -24.774  0.00  0.00    +0.011 C 
ATOM     32  C   UNL     1      34.329 -15.809 -24.020  0.00  0.00    +0.058 C 
ENDBRANCH  19  23
ENDBRANCH   1  19
TORSDOF 5
ENDMDL
MODEL 8
REMARK VINA RESULT:     -10.4      4.496     10.551
REMARK  Name = 6852168
REMARK  5 active torsions:
REMARK  status: ('A' for Active; 'I' for Inactive)
REMARK    1  A    between atoms: N_1  and  C_5
REMARK    2  A    between atoms: N_1  and  S_19
REMARK    3  A    between atoms: N_4  and  C_9
REMARK    4  A    between atoms: C_9  and  C_14
REMARK    5  A    between atoms: S_19  and  C_23
REMARK                            x       y       z     vdW  Elec       q    Type
REMARK                         _______ _______ _______ _____ _____    ______ ____
ROOT
ATOM      1  N   UNL     1      35.067 -19.729 -20.466  0.00  0.00    -0.172 NA
ATOM      2  H   UNL     1      34.091 -19.432 -20.492  0.00  0.00    +0.149 HD
ENDROOT
BRANCH   1   5
ATOM      3  O   UNL     1      32.734 -21.570 -19.850  0.00  0.00    -0.273 OA
ATOM      4  N   UNL     1      34.455 -21.959 -18.294  0.00  0.00    -0.272 N 
ATOM      5  C   UNL     1      35.061 -21.202 -20.419  0.00  0.00    +0.153 C 
ATOM      6  C   UNL     1      36.294 -21.738 -19.700  0.00  0.00    +0.048 C 
ATOM      7  C   UNL     1      35.888 -21.781 -18.239  0.00  0.00    +0.096 C 
ATOM      8  C   UNL     1      33.913 -21.605 -19.528  0.00  0.00    +0.242 C 
BRANCH   4   9
ATOM      9  C   UNL     1      33.692 -22.314 -17.117  0.00  0.00    +0.152 C 
ATOM     10  C   UNL     1      32.204 -22.315 -17.375  0.00  0.00    +0.031 C 
BRANCH   9  14
ATOM     11  O   UNL     1      37.106 -24.013 -13.807  0.00  0.00    -0.350 OA
ATOM     12  O   UNL     1      33.864 -24.650 -17.487  0.00  0.00    -0.273 OA
ATOM     13  N   UNL     1      34.957 -23.813 -15.618  0.00  0.00    -0.273 N 
ATOM     14  C   UNL     1      34.173 -23.699 -16.764  0.00  0.00    +0.244 C 
ATOM     15  C   UNL     1      35.236 -22.730 -14.668  0.00  0.00    +0.126 C 
ATOM     16  C   UNL     1      35.468 -25.120 -15.205  0.00  0.00    +0.126 C 
ATOM     17  C   UNL     1      36.712 -22.727 -14.292  0.00  0.00    +0.164 C 
ATOM     18  C   UNL     1      36.935 -25.015 -14.813  0.00  0.00    +0.164 C 
ENDBRANCH   9  14
ENDBRANCH   4   9
ENDBRANCH   1   5
BRANCH   1  19
ATOM     19  S   UNL     1      35.861 -18.918 -21.735  0.00  0.00    +0.061 S 
ATOM     20  O   UNL     1      35.487 -19.525 -22.998  0.00  0.00    -0.153 OA
ATOM     21  O   UNL     1      37.261 -18.755 -21.390  0.00  0.00    -0.153 OA
BRANCH  19  23
ATOM     22 CL   UNL     1      32.520 -11.186 -22.584  0.00  0.00    -0.082 Cl
ATOM     23  C   UNL     1      35.121 -17.315 -21.660  0.00  0.00    +0.122 C 
ATOM     24  C   UNL     1      35.003 -16.570 -22.821  0.00  0.00    +0.020 C 
ATOM     25  C   UNL     1      34.677 -16.834 -20.444  0.00  0.00    +0.020 C 
ATOM     26  C   UNL     1      34.417 -15.295 -22.778  0.00  0.00    +0.001 C 
ATOM     27  C   UNL     1      33.954 -14.787 -21.540  0.00  0.00    +0.001 C 
ATOM     28  C   UNL     1      34.092 -15.570 -20.382  0.00  0.00    +0.001 C 
ATOM     29  C   UNL     1      34.278 -14.512 -23.936  0.00  0.00    +0.001 C 
ATOM     30  C   UNL     1      33.369 -13.511 -21.497  0.00  0.00    +0.011 C 
ATOM     31  C   UNL     1      33.694 -13.247 -23.874  0.00  0.00    +0.011 C 
ATOM     32  C   UNL     1      33.241 -12.747 -22.657  0.00  0.00    +0.058 C 
ENDBRANCH  19  23
ENDBRANCH   1  19
TORSDOF 5
ENDMDL
MODEL 9
REMARK VINA RESULT:     -10.4      6.080     12.128
REMARK  Name = 6852168
REMARK  5 active torsions:
REMARK  status: ('A' for Active; 'I' for Inactive)
REMARK    1  A    between atoms: N_1  and  C_5
REMARK    2  A    between atoms: N_1  and  S_19
REMARK    3  A    between atoms: N_4  and  C_9
REMARK    4  A    between atoms: C_9  and  C_14
REMARK    5  A    between atoms: S_19  and  C_23
REMARK                            x       y       z     vdW  Elec       q    Type
REMARK                         _______ _______ _______ _____ _____    ______ ____
ROOT
ATOM      1  N   UNL     1      32.440  -8.759 -21.093  0.00  0.00    -0.172 NA
ATOM      2  H   UNL     1      32.066  -9.082 -20.201  0.00  0.00    +0.149 HD
ENDROOT
BRANCH   1   5
ATOM      3  O   UNL     1      31.027 -11.427 -20.775  0.00  0.00    -0.273 OA
ATOM      4  N   UNL     1      32.829 -11.681 -22.267  0.00  0.00    -0.272 N 
ATOM      5  C   UNL     1      31.809  -9.583 -22.140  0.00  0.00    +0.153 C 
ATOM      6  C   UNL     1      32.678  -9.651 -23.391  0.00  0.00    +0.048 C 
ATOM      7  C   UNL     1      33.600 -10.831 -23.144  0.00  0.00    +0.096 C 
ATOM      8  C   UNL     1      31.793 -11.002 -21.628  0.00  0.00    +0.242 C 
BRANCH   4   9
ATOM      9  C   UNL     1      33.229 -13.044 -21.993  0.00  0.00    +0.152 C 
ATOM     10  C   UNL     1      32.283 -13.742 -21.044  0.00  0.00    +0.031 C 
BRANCH   9  14
ATOM     11  O   UNL     1      35.416 -17.247 -23.737  0.00  0.00    -0.350 OA
ATOM     12  O   UNL     1      32.772 -13.108 -24.318  0.00  0.00    -0.273 OA
ATOM     13  N   UNL     1      33.742 -15.006 -23.398  0.00  0.00    -0.273 N 
ATOM     14  C   UNL     1      33.222 -13.716 -23.343  0.00  0.00    +0.244 C 
ATOM     15  C   UNL     1      34.165 -15.803 -22.241  0.00  0.00    +0.126 C 
ATOM     16  C   UNL     1      33.777 -15.729 -24.670  0.00  0.00    +0.126 C 
ATOM     17  C   UNL     1      35.497 -16.485 -22.530  0.00  0.00    +0.164 C 
ATOM     18  C   UNL     1      35.126 -16.407 -24.857  0.00  0.00    +0.164 C 
ENDBRANCH   9  14
ENDBRANCH   4   9
ENDBRANCH   1   5
BRANCH   1  19
ATOM     19  S   UNL     1      32.262  -7.066 -21.116  0.00  0.00    +0.061 S 
ATOM     20  O   UNL     1      32.882  -6.504 -19.932  0.00  0.00    -0.153 OA
ATOM     21  O   UNL     1      30.887  -6.739 -21.445  0.00  0.00    -0.153 OA
BRANCH  19  23
ATOM     22 CL   UNL     1      36.013  -4.253 -28.164  0.00  0.00    -0.082 Cl
ATOM     23  C   UNL     1      33.246  -6.618 -22.513  0.00  0.00    +0.122 C 
ATOM     24  C   UNL     1      32.717  -5.766 -23.468  0.00  0.00    +0.020 C 
ATOM     25  C   UNL     1      34.525  -7.127 -22.627  0.00  0.00    +0.020 C 
ATOM     26  C   UNL     1      33.488  -5.401 -24.584  0.00  0.00    +0.001 C 
ATOM     27  C   UNL     1      34.801  -5.912 -24.717  0.00  0.00    +0.001 C 
ATOM     28  C   UNL     1      35.304  -6.775 -23.728  0.00  0.00    +0.001 C 
ATOM     29  C   UNL     1      32.984  -4.538 -25.571  0.00  0.00    +0.001 C 
ATOM     30  C   UNL     1      35.570  -5.547 -25.832  0.00  0.00    +0.011 C 
ATOM     31  C   UNL     1      33.763  -4.185 -26.673  0.00  0.00    +0.011 C 
ATOM     32  C   UNL     1      35.054  -4.689 -26.804  0.00  0.00    +0.058 C 
ENDBRANCH  19  23
ENDBRANCH   1  19
TORSDOF 5
ENDMDL
