MODEL 1
REMARK VINA RESULT:     -12.1      0.000      0.000
REMARK  Name = 15984937
REMARK  6 active torsions:
REMARK  status: ('A' for Active; 'I' for Inactive)
REMARK    1  A    between atoms: C_1  and  C_9
REMARK    2  A    between atoms: C_1  and  C_20
REMARK    3  A    between atoms: C_4  and  N_10
REMARK    4  A    between atoms: N_10  and  C_13
REMARK    5  A    between atoms: C_19  and  C_25
REMARK    6  A    between atoms: C_25  and  N_26
REMARK                            x       y       z     vdW  Elec       q    Type
REMARK                         _______ _______ _______ _____ _____    ______ ____
ROOT
ATOM      1  C   UNL     1      31.010 -11.890 -20.933  0.00  0.00    +0.112 C 
ENDROOT
BRANCH   1   9
ATOM      2  O   UNL     1      31.443 -10.867 -18.841  0.00  0.00    -0.275 OA
ATOM      3  N   UNL     1      32.048  -9.657 -20.730  0.00  0.00    -0.279 N 
ATOM      4  C   UNL     1      31.938  -6.987 -21.879  0.00  0.00    +0.072 C 
ATOM      5  C   UNL     1      31.456  -8.224 -22.645  0.00  0.00    +0.041 C 
ATOM      6  C   UNL     1      31.915  -7.222 -20.365  0.00  0.00    +0.041 C 
ATOM      7  C   UNL     1      32.150  -9.506 -22.186  0.00  0.00    +0.095 C 
ATOM      8  C   UNL     1      32.585  -8.535 -19.959  0.00  0.00    +0.095 C 
ATOM      9  C   UNL     1      31.518 -10.765 -20.068  0.00  0.00    +0.230 C 
BRANCH   4  10
ATOM     10  N   UNL     1      33.274  -6.627 -22.313  0.00  0.00    -0.334 N 
ATOM     11  H   UNL     1      34.027  -6.812 -21.706  0.00  0.00    +0.147 HD
BRANCH  10  13
ATOM     12  F   UNL     1      32.021  -3.702 -25.904  0.00  0.00    -0.204 F 
ATOM     13  C   UNL     1      33.547  -6.034 -23.533  0.00  0.00    +0.047 C 
ATOM     14  C   UNL     1      32.631  -5.143 -24.127  0.00  0.00    +0.044 C 
ATOM     15  C   UNL     1      34.748  -6.303 -24.217  0.00  0.00    +0.014 C 
ATOM     16  C   UNL     1      32.906  -4.547 -25.357  0.00  0.00    +0.141 C 
ATOM     17  C   UNL     1      35.023  -5.707 -25.448  0.00  0.00    +0.004 C 
ATOM     18  C   UNL     1      34.101  -4.828 -26.017  0.00  0.00    +0.030 C 
ENDBRANCH  10  13
ENDBRANCH   4  10
ENDBRANCH   1   9
BRANCH   1  20
ATOM     19  C   UNL     1      34.131 -14.713 -21.721  0.00  0.00    -0.043 C 
ATOM     20  C   UNL     1      32.101 -12.876 -21.209  0.00  0.00    -0.013 C 
ATOM     21  C   UNL     1      33.472 -14.727 -20.492  0.00  0.00    -0.007 C 
ATOM     22  C   UNL     1      33.773 -13.780 -22.693  0.00  0.00    -0.007 C 
ATOM     23  C   UNL     1      32.455 -13.807 -20.235  0.00  0.00    -0.004 C 
ATOM     24  C   UNL     1      32.757 -12.859 -22.437  0.00  0.00    -0.004 C 
BRANCH  19  25
ATOM     25  C   UNL     1      35.218 -15.695 -21.995  0.00  0.00    -0.050 C 
BRANCH  25  26
ATOM     26  N   UNL     1      34.703 -17.041 -22.244  0.00  0.00    +0.387 N 
ATOM     27  N   UNL     1      35.013 -19.856 -22.816  0.00  0.00    +0.382 N 
ATOM     28  C   UNL     1      34.629 -19.393 -21.478  0.00  0.00    -0.083 C 
ATOM     29  C   UNL     1      35.174 -17.979 -21.216  0.00  0.00    -0.099 C 
ATOM     30  C   UNL     1      35.092 -17.508 -23.581  0.00  0.00    -0.101 C 
ATOM     31  C   UNL     1      34.557 -18.917 -23.841  0.00  0.00    -0.105 C 
ATOM     32  C   UNL     1      35.164 -20.377 -20.438  0.00  0.00    -0.026 C 
ATOM     33  H   UNL     1      33.684 -17.002 -22.202  0.00  0.00    -0.079 HD
ATOM     34  H   UNL     1      34.593 -20.769 -22.988  0.00  0.00    -0.085 HD
ATOM     35  H   UNL     1      36.030 -19.918 -22.861  0.00  0.00    -0.085 HD
ENDBRANCH  25  26
ENDBRANCH  19  25
ENDBRANCH   1  20
TORSDOF 6
ENDMDL
MODEL 2
REMARK VINA RESULT:     -11.1      6.225     10.930
REMARK  Name = 15984937
REMARK  6 active torsions:
REMARK  status: ('A' for Active; 'I' for Inactive)
REMARK    1  A    between atoms: C_1  and  C_9
REMARK    2  A    between atoms: C_1  and  C_20
REMARK    3  A    between atoms: C_4  and  N_10
REMARK    4  A    between atoms: N_10  and  C_13
REMARK    5  A    between atoms: C_19  and  C_25
REMARK    6  A    between atoms: C_25  and  N_26
REMARK                            x       y       z     vdW  Elec       q    Type
REMARK                         _______ _______ _______ _____ _____    ______ ____
ROOT
ATOM      1  C   UNL     1      36.876 -21.453 -19.125  0.00  0.00    +0.112 C 
ENDROOT
BRANCH   1   9
ATOM      2  O   UNL     1      34.579 -21.731 -19.633  0.00  0.00    -0.275 OA
ATOM      3  N   UNL     1      35.616 -19.851 -20.522  0.00  0.00    -0.279 N 
ATOM      4  C   UNL     1      35.848 -18.299 -22.971  0.00  0.00    +0.072 C 
ATOM      5  C   UNL     1      37.077 -18.795 -22.202  0.00  0.00    +0.041 C 
ATOM      6  C   UNL     1      34.613 -19.153 -22.664  0.00  0.00    +0.041 C 
ATOM      7  C   UNL     1      36.794 -18.999 -20.713  0.00  0.00    +0.095 C 
ATOM      8  C   UNL     1      34.396 -19.362 -21.165  0.00  0.00    +0.095 C 
ATOM      9  C   UNL     1      35.584 -21.031 -19.778  0.00  0.00    +0.230 C 
BRANCH   4  10
ATOM     10  N   UNL     1      35.592 -16.908 -22.651  0.00  0.00    -0.334 N 
ATOM     11  H   UNL     1      35.979 -16.542 -21.822  0.00  0.00    +0.147 HD
BRANCH  10  13
ATOM     12  F   UNL     1      32.730 -13.089 -23.139  0.00  0.00    -0.204 F 
ATOM     13  C   UNL     1      34.834 -16.068 -23.445  0.00  0.00    +0.047 C 
ATOM     14  C   UNL     1      34.144 -14.972 -22.888  0.00  0.00    +0.044 C 
ATOM     15  C   UNL     1      34.726 -16.282 -24.833  0.00  0.00    +0.014 C 
ATOM     16  C   UNL     1      33.377 -14.126 -23.689  0.00  0.00    +0.141 C 
ATOM     17  C   UNL     1      33.960 -15.435 -25.634  0.00  0.00    +0.004 C 
ATOM     18  C   UNL     1      33.285 -14.357 -25.060  0.00  0.00    +0.030 C 
ENDBRANCH  10  13
ENDBRANCH   4  10
ENDBRANCH   1   9
BRANCH   1  20
ATOM     19  C   UNL     1      36.163 -22.863 -15.147  0.00  0.00    -0.043 C 
ATOM     20  C   UNL     1      36.627 -21.945 -17.734  0.00  0.00    -0.013 C 
ATOM     21  C   UNL     1      35.159 -22.957 -16.110  0.00  0.00    -0.007 C 
ATOM     22  C   UNL     1      37.399 -22.310 -15.480  0.00  0.00    -0.007 C 
ATOM     23  C   UNL     1      35.391 -22.497 -17.407  0.00  0.00    -0.004 C 
ATOM     24  C   UNL     1      37.632 -21.850 -16.776  0.00  0.00    -0.004 C 
BRANCH  19  25
ATOM     25  C   UNL     1      35.915 -23.354 -13.761  0.00  0.00    -0.050 C 
BRANCH  25  26
ATOM     26  N   UNL     1      36.582 -24.628 -13.493  0.00  0.00    +0.387 N 
ATOM     27  N   UNL     1      38.250 -26.868 -14.228  0.00  0.00    +0.382 N 
ATOM     28  C   UNL     1      38.740 -25.826 -13.319  0.00  0.00    -0.083 C 
ATOM     29  C   UNL     1      38.040 -24.486 -13.603  0.00  0.00    -0.099 C 
ATOM     30  C   UNL     1      36.097 -25.670 -14.407  0.00  0.00    -0.101 C 
ATOM     31  C   UNL     1      36.797 -27.002 -14.131  0.00  0.00    -0.105 C 
ATOM     32  C   UNL     1      40.252 -25.689 -13.486  0.00  0.00    -0.026 C 
ATOM     33  H   UNL     1      36.356 -24.907 -12.539  0.00  0.00    -0.079 HD
ATOM     34  H   UNL     1      38.685 -27.758 -13.983  0.00  0.00    -0.085 HD
ATOM     35  H   UNL     1      38.490 -26.607 -15.184  0.00  0.00    -0.085 HD
ENDBRANCH  25  26
ENDBRANCH  19  25
ENDBRANCH   1  20
TORSDOF 6
ENDMDL
MODEL 3
REMARK VINA RESULT:     -11.1      4.178      8.000
REMARK  Name = 15984937
REMARK  6 active torsions:
REMARK  status: ('A' for Active; 'I' for Inactive)
REMARK    1  A    between atoms: C_1  and  C_9
REMARK    2  A    between atoms: C_1  and  C_20
REMARK    3  A    between atoms: C_4  and  N_10
REMARK    4  A    between atoms: N_10  and  C_13
REMARK    5  A    between atoms: C_19  and  C_25
REMARK    6  A    between atoms: C_25  and  N_26
REMARK                            x       y       z     vdW  Elec       q    Type
REMARK                         _______ _______ _______ _____ _____    ______ ____
ROOT
ATOM      1  C   UNL     1      36.436 -18.421 -21.165  0.00  0.00    +0.112 C 
ENDROOT
BRANCH   1   9
ATOM      2  O   UNL     1      35.951 -18.654 -23.472  0.00  0.00    -0.275 OA
ATOM      3  N   UNL     1      34.936 -16.874 -22.375  0.00  0.00    -0.279 N 
ATOM      4  C   UNL     1      34.342 -14.041 -22.658  0.00  0.00    +0.072 C 
ATOM      5  C   UNL     1      35.031 -14.608 -21.412  0.00  0.00    +0.041 C 
ATOM      6  C   UNL     1      34.540 -14.955 -23.872  0.00  0.00    +0.041 C 
ATOM      7  C   UNL     1      34.686 -16.078 -21.169  0.00  0.00    +0.095 C 
ATOM      8  C   UNL     1      34.222 -16.419 -23.568  0.00  0.00    +0.095 C 
ATOM      9  C   UNL     1      35.756 -18.001 -22.443  0.00  0.00    +0.230 C 
BRANCH   4  10
ATOM     10  N   UNL     1      32.930 -13.847 -22.397  0.00  0.00    -0.334 N 
ATOM     11  H   UNL     1      32.294 -14.507 -22.758  0.00  0.00    +0.147 HD
BRANCH  10  13
ATOM     12  F   UNL     1      31.519  -9.269 -22.133  0.00  0.00    -0.204 F 
ATOM     13  C   UNL     1      32.426 -12.784 -21.670  0.00  0.00    +0.047 C 
ATOM     14  C   UNL     1      32.217 -11.527 -22.273  0.00  0.00    +0.044 C 
ATOM     15  C   UNL     1      32.106 -12.925 -20.305  0.00  0.00    +0.014 C 
ATOM     16  C   UNL     1      31.710 -10.455 -21.539  0.00  0.00    +0.141 C 
ATOM     17  C   UNL     1      31.599 -11.852 -19.571  0.00  0.00    +0.004 C 
ATOM     18  C   UNL     1      31.401 -10.617 -20.190  0.00  0.00    +0.030 C 
ENDBRANCH  10  13
ENDBRANCH   4  10
ENDBRANCH   1   9
BRANCH   1  20
ATOM     19  C   UNL     1      34.369 -21.710 -19.367  0.00  0.00    -0.043 C 
ATOM     20  C   UNL     1      35.713 -19.570 -20.537  0.00  0.00    -0.013 C 
ATOM     21  C   UNL     1      35.758 -21.621 -19.267  0.00  0.00    -0.007 C 
ATOM     22  C   UNL     1      33.655 -20.728 -20.052  0.00  0.00    -0.007 C 
ATOM     23  C   UNL     1      36.431 -20.549 -19.853  0.00  0.00    -0.004 C 
ATOM     24  C   UNL     1      34.328 -19.656 -20.639  0.00  0.00    -0.004 C 
BRANCH  19  25
ATOM     25  C   UNL     1      33.649 -22.856 -18.742  0.00  0.00    -0.050 C 
BRANCH  25  26
ATOM     26  N   UNL     1      33.471 -22.682 -17.301  0.00  0.00    +0.387 N 
ATOM     27  N   UNL     1      32.888 -23.644 -14.640  0.00  0.00    +0.382 N 
ATOM     28  C   UNL     1      34.258 -23.301 -15.037  0.00  0.00    -0.083 C 
ATOM     29  C   UNL     1      34.445 -23.487 -16.553  0.00  0.00    -0.099 C 
ATOM     30  C   UNL     1      32.102 -23.031 -16.900  0.00  0.00    -0.101 C 
ATOM     31  C   UNL     1      31.915 -22.854 -15.393  0.00  0.00    -0.105 C 
ATOM     32  C   UNL     1      35.237 -24.181 -14.262  0.00  0.00    -0.026 C 
ATOM     33  H   UNL     1      33.628 -21.699 -17.080  0.00  0.00    -0.079 HD
ATOM     34  H   UNL     1      32.771 -23.458 -13.645  0.00  0.00    -0.085 HD
ATOM     35  H   UNL     1      32.728 -24.632 -14.838  0.00  0.00    -0.085 HD
ENDBRANCH  25  26
ENDBRANCH  19  25
ENDBRANCH   1  20
TORSDOF 6
ENDMDL
MODEL 4
REMARK VINA RESULT:     -11.1      6.220     10.977
REMARK  Name = 15984937
REMARK  6 active torsions:
REMARK  status: ('A' for Active; 'I' for Inactive)
REMARK    1  A    between atoms: C_1  and  C_9
REMARK    2  A    between atoms: C_1  and  C_20
REMARK    3  A    between atoms: C_4  and  N_10
REMARK    4  A    between atoms: N_10  and  C_13
REMARK    5  A    between atoms: C_19  and  C_25
REMARK    6  A    between atoms: C_25  and  N_26
REMARK                            x       y       z     vdW  Elec       q    Type
REMARK                         _______ _______ _______ _____ _____    ______ ____
ROOT
ATOM      1  C   UNL     1      36.445 -21.511 -19.222  0.00  0.00    +0.112 C 
ENDROOT
BRANCH   1   9
ATOM      2  O   UNL     1      34.185 -21.645 -19.923  0.00  0.00    -0.275 OA
ATOM      3  N   UNL     1      35.407 -19.828 -20.703  0.00  0.00    -0.279 N 
ATOM      4  C   UNL     1      35.939 -18.282 -23.108  0.00  0.00    +0.072 C 
ATOM      5  C   UNL     1      37.067 -18.856 -22.244  0.00  0.00    +0.041 C 
ATOM      6  C   UNL     1      34.633 -19.059 -22.915  0.00  0.00    +0.041 C 
ATOM      7  C   UNL     1      36.647 -19.049 -20.786  0.00  0.00    +0.095 C 
ATOM      8  C   UNL     1      34.278 -19.261 -21.441  0.00  0.00    +0.095 C 
ATOM      9  C   UNL     1      35.241 -21.007 -19.976  0.00  0.00    +0.230 C 
BRANCH   4  10
ATOM     10  N   UNL     1      35.743 -16.879 -22.797  0.00  0.00    -0.334 N 
ATOM     11  H   UNL     1      36.220 -16.503 -22.021  0.00  0.00    +0.147 HD
BRANCH  10  13
ATOM     12  F   UNL     1      32.768 -13.123 -23.039  0.00  0.00    -0.204 F 
ATOM     13  C   UNL     1      34.922 -16.041 -23.529  0.00  0.00    +0.047 C 
ATOM     14  C   UNL     1      34.238 -14.976 -22.910  0.00  0.00    +0.044 C 
ATOM     15  C   UNL     1      34.743 -16.227 -24.913  0.00  0.00    +0.014 C 
ATOM     16  C   UNL     1      33.408 -14.131 -23.647  0.00  0.00    +0.141 C 
ATOM     17  C   UNL     1      33.914 -15.383 -25.651  0.00  0.00    +0.004 C 
ATOM     18  C   UNL     1      33.246 -14.335 -25.017  0.00  0.00    +0.030 C 
ENDBRANCH  10  13
ENDBRANCH   4  10
ENDBRANCH   1   9
BRANCH   1  20
ATOM     19  C   UNL     1      35.309 -22.922 -15.343  0.00  0.00    -0.043 C 
ATOM     20  C   UNL     1      36.048 -22.005 -17.866  0.00  0.00    -0.013 C 
ATOM     21  C   UNL     1      36.537 -22.285 -15.521  0.00  0.00    -0.007 C 
ATOM     22  C   UNL     1      34.452 -23.100 -16.429  0.00  0.00    -0.007 C 
ATOM     23  C   UNL     1      36.907 -21.825 -16.785  0.00  0.00    -0.004 C 
ATOM     24  C   UNL     1      34.822 -22.641 -17.693  0.00  0.00    -0.004 C 
BRANCH  19  25
ATOM     25  C   UNL     1      34.914 -23.415 -13.992  0.00  0.00    -0.050 C 
BRANCH  25  26
ATOM     26  N   UNL     1      36.046 -23.479 -13.070  0.00  0.00    +0.387 N 
ATOM     27  N   UNL     1      37.735 -24.825 -11.151  0.00  0.00    +0.382 N 
ATOM     28  C   UNL     1      38.196 -24.576 -12.521  0.00  0.00    -0.083 C 
ATOM     29  C   UNL     1      37.004 -24.511 -13.491  0.00  0.00    -0.099 C 
ATOM     30  C   UNL     1      35.587 -23.736 -11.699  0.00  0.00    -0.101 C 
ATOM     31  C   UNL     1      36.771 -23.808 -10.734  0.00  0.00    -0.105 C 
ATOM     32  C   UNL     1      39.163 -25.686 -12.931  0.00  0.00    -0.026 C 
ATOM     33  H   UNL     1      36.519 -22.576 -13.086  0.00  0.00    -0.079 HD
ATOM     34  H   UNL     1      38.535 -24.807 -10.520  0.00  0.00    -0.085 HD
ATOM     35  H   UNL     1      37.280 -25.738 -11.121  0.00  0.00    -0.085 HD
ENDBRANCH  25  26
ENDBRANCH  19  25
ENDBRANCH   1  20
TORSDOF 6
ENDMDL
MODEL 5
REMARK VINA RESULT:     -11.1      3.559      6.374
REMARK  Name = 15984937
REMARK  6 active torsions:
REMARK  status: ('A' for Active; 'I' for Inactive)
REMARK    1  A    between atoms: C_1  and  C_9
REMARK    2  A    between atoms: C_1  and  C_20
REMARK    3  A    between atoms: C_4  and  N_10
REMARK    4  A    between atoms: N_10  and  C_13
REMARK    5  A    between atoms: C_19  and  C_25
REMARK    6  A    between atoms: C_25  and  N_26
REMARK                            x       y       z     vdW  Elec       q    Type
REMARK                         _______ _______ _______ _____ _____    ______ ____
ROOT
ATOM      1  C   UNL     1      34.979 -17.589 -22.367  0.00  0.00    +0.112 C 
ENDROOT
BRANCH   1   9
ATOM      2  O   UNL     1      34.669 -16.425 -20.326  0.00  0.00    -0.275 OA
ATOM      3  N   UNL     1      34.709 -15.136 -22.259  0.00  0.00    -0.279 N 
ATOM      4  C   UNL     1      33.334 -12.941 -23.583  0.00  0.00    +0.072 C 
ATOM      5  C   UNL     1      33.610 -14.272 -24.290  0.00  0.00    +0.041 C 
ATOM      6  C   UNL     1      33.321 -13.107 -22.060  0.00  0.00    +0.041 C 
ATOM      7  C   UNL     1      34.827 -14.999 -23.715  0.00  0.00    +0.095 C 
ATOM      8  C   UNL     1      34.536 -13.874 -21.539  0.00  0.00    +0.095 C 
ATOM      9  C   UNL     1      34.773 -16.337 -21.553  0.00  0.00    +0.230 C 
BRANCH   4  10
ATOM     10  N   UNL     1      34.324 -11.958 -23.976  0.00  0.00    -0.334 N 
ATOM     11  H   UNL     1      35.134 -12.272 -24.442  0.00  0.00    +0.147 HD
BRANCH  10  13
ATOM     12  F   UNL     1      31.785  -8.242 -22.315  0.00  0.00    -0.204 F 
ATOM     13  C   UNL     1      34.196 -10.603 -23.730  0.00  0.00    +0.047 C 
ATOM     14  C   UNL     1      33.031 -10.082 -23.132  0.00  0.00    +0.044 C 
ATOM     15  C   UNL     1      35.225  -9.703 -24.071  0.00  0.00    +0.014 C 
ATOM     16  C   UNL     1      32.901  -8.716 -22.886  0.00  0.00    +0.141 C 
ATOM     17  C   UNL     1      35.095  -8.337 -23.824  0.00  0.00    +0.004 C 
ATOM     18  C   UNL     1      33.932  -7.843 -23.231  0.00  0.00    +0.030 C 
ENDBRANCH  10  13
ENDBRANCH   4  10
ENDBRANCH   1   9
BRANCH   1  20
ATOM     19  C   UNL     1      35.850 -20.916 -19.817  0.00  0.00    -0.043 C 
ATOM     20  C   UNL     1      35.283 -18.752 -21.476  0.00  0.00    -0.013 C 
ATOM     21  C   UNL     1      36.878 -20.075 -20.242  0.00  0.00    -0.007 C 
ATOM     22  C   UNL     1      34.538 -20.672 -20.222  0.00  0.00    -0.007 C 
ATOM     23  C   UNL     1      36.595 -18.991 -21.073  0.00  0.00    -0.004 C 
ATOM     24  C   UNL     1      34.253 -19.589 -21.054  0.00  0.00    -0.004 C 
BRANCH  19  25
ATOM     25  C   UNL     1      36.153 -22.075 -18.929  0.00  0.00    -0.050 C 
BRANCH  25  26
ATOM     26  N   UNL     1      35.221 -22.175 -17.807  0.00  0.00    +0.387 N 
ATOM     27  N   UNL     1      33.799 -23.635 -15.759  0.00  0.00    +0.382 N 
ATOM     28  C   UNL     1      34.927 -22.760 -15.420  0.00  0.00    -0.083 C 
ATOM     29  C   UNL     1      35.907 -22.657 -16.601  0.00  0.00    -0.099 C 
ATOM     30  C   UNL     1      34.095 -23.056 -18.143  0.00  0.00    -0.101 C 
ATOM     31  C   UNL     1      33.123 -23.165 -16.968  0.00  0.00    -0.105 C 
ATOM     32  C   UNL     1      35.631 -23.313 -14.182  0.00  0.00    -0.026 C 
ATOM     33  H   UNL     1      34.854 -21.243 -17.617  0.00  0.00    -0.079 HD
ATOM     34  H   UNL     1      33.136 -23.641 -14.986  0.00  0.00    -0.085 HD
ATOM     35  H   UNL     1      34.155 -24.576 -15.930  0.00  0.00    -0.085 HD
ENDBRANCH  25  26
ENDBRANCH  19  25
ENDBRANCH   1  20
TORSDOF 6
ENDMDL
MODEL 6
REMARK VINA RESULT:     -10.8      6.751     14.080
REMARK  Name = 15984937
REMARK  6 active torsions:
REMARK  status: ('A' for Active; 'I' for Inactive)
REMARK    1  A    between atoms: C_1  and  C_9
REMARK    2  A    between atoms: C_1  and  C_20
REMARK    3  A    between atoms: C_4  and  N_10
REMARK    4  A    between atoms: N_10  and  C_13
REMARK    5  A    between atoms: C_19  and  C_25
REMARK    6  A    between atoms: C_25  and  N_26
REMARK                            x       y       z     vdW  Elec       q    Type
REMARK                         _______ _______ _______ _____ _____    ______ ____
ROOT
ATOM      1  C   UNL     1      35.683 -22.063 -19.197  0.00  0.00    +0.112 C 
ENDROOT
BRANCH   1   9
ATOM      2  O   UNL     1      37.336 -21.179 -17.749  0.00  0.00    -0.275 OA
ATOM      3  N   UNL     1      35.520 -22.215 -16.736  0.00  0.00    -0.279 N 
ATOM      4  C   UNL     1      34.832 -24.084 -14.616  0.00  0.00    +0.072 C 
ATOM      5  C   UNL     1      34.317 -24.254 -16.050  0.00  0.00    +0.041 C 
ATOM      6  C   UNL     1      36.115 -23.247 -14.577  0.00  0.00    +0.041 C 
ATOM      7  C   UNL     1      34.239 -22.927 -16.806  0.00  0.00    +0.095 C 
ATOM      8  C   UNL     1      36.001 -21.951 -15.380  0.00  0.00    +0.095 C 
ATOM      9  C   UNL     1      36.259 -21.775 -17.835  0.00  0.00    +0.230 C 
BRANCH   4  10
ATOM     10  N   UNL     1      33.807 -23.475 -13.792  0.00  0.00    -0.334 N 
ATOM     11  H   UNL     1      34.084 -22.812 -13.118  0.00  0.00    +0.147 HD
BRANCH  10  13
ATOM     12  F   UNL     1      29.312 -22.169 -14.845  0.00  0.00    -0.204 F 
ATOM     13  C   UNL     1      32.461 -23.775 -13.898  0.00  0.00    +0.047 C 
ATOM     14  C   UNL     1      31.534 -22.805 -14.328  0.00  0.00    +0.044 C 
ATOM     15  C   UNL     1      31.977 -25.059 -13.581  0.00  0.00    +0.014 C 
ATOM     16  C   UNL     1      30.176 -23.107 -14.434  0.00  0.00    +0.141 C 
ATOM     17  C   UNL     1      30.619 -25.362 -13.687  0.00  0.00    +0.004 C 
ATOM     18  C   UNL     1      29.719 -24.384 -14.114  0.00  0.00    +0.030 C 
ENDBRANCH  10  13
ENDBRANCH   4  10
ENDBRANCH   1   9
BRANCH   1  20
ATOM     19  C   UNL     1      35.734 -18.541 -21.630  0.00  0.00    -0.043 C 
ATOM     20  C   UNL     1      35.701 -20.832 -20.048  0.00  0.00    -0.013 C 
ATOM     21  C   UNL     1      34.531 -19.203 -21.387  0.00  0.00    -0.007 C 
ATOM     22  C   UNL     1      36.920 -19.026 -21.080  0.00  0.00    -0.007 C 
ATOM     23  C   UNL     1      34.513 -20.351 -20.594  0.00  0.00    -0.004 C 
ATOM     24  C   UNL     1      36.904 -20.174 -20.288  0.00  0.00    -0.004 C 
BRANCH  19  25
ATOM     25  C   UNL     1      35.752 -17.315 -22.478  0.00  0.00    -0.050 C 
BRANCH  25  26
ATOM     26  N   UNL     1      34.649 -16.406 -22.167  0.00  0.00    +0.387 N 
ATOM     27  N   UNL     1      33.560 -13.877 -21.293  0.00  0.00    +0.382 N 
ATOM     28  C   UNL     1      33.527 -14.267 -22.707  0.00  0.00    -0.083 C 
ATOM     29  C   UNL     1      34.689 -15.221 -23.033  0.00  0.00    -0.099 C 
ATOM     30  C   UNL     1      34.684 -16.010 -20.753  0.00  0.00    -0.101 C 
ATOM     31  C   UNL     1      33.534 -15.056 -20.428  0.00  0.00    -0.105 C 
ATOM     32  C   UNL     1      33.603 -13.011 -23.572  0.00  0.00    -0.026 C 
ATOM     33  H   UNL     1      33.774 -16.901 -22.339  0.00  0.00    -0.079 HD
ATOM     34  H   UNL     1      32.750 -13.294 -21.088  0.00  0.00    -0.085 HD
ATOM     35  H   UNL     1      34.423 -13.363 -21.116  0.00  0.00    -0.085 HD
ENDBRANCH  25  26
ENDBRANCH  19  25
ENDBRANCH   1  20
TORSDOF 6
ENDMDL
MODEL 7
REMARK VINA RESULT:     -10.6      4.053     11.655
REMARK  Name = 15984937
REMARK  6 active torsions:
REMARK  status: ('A' for Active; 'I' for Inactive)
REMARK    1  A    between atoms: C_1  and  C_9
REMARK    2  A    between atoms: C_1  and  C_20
REMARK    3  A    between atoms: C_4  and  N_10
REMARK    4  A    between atoms: N_10  and  C_13
REMARK    5  A    between atoms: C_19  and  C_25
REMARK    6  A    between atoms: C_25  and  N_26
REMARK                            x       y       z     vdW  Elec       q    Type
REMARK                         _______ _______ _______ _____ _____    ______ ____
ROOT
ATOM      1  C   UNL     1      33.762 -12.865 -23.741  0.00  0.00    +0.112 C 
ENDROOT
BRANCH   1   9
ATOM      2  O   UNL     1      33.223 -12.832 -21.434  0.00  0.00    -0.275 OA
ATOM      3  N   UNL     1      33.810 -14.894 -22.331  0.00  0.00    -0.279 N 
ATOM      4  C   UNL     1      35.427 -17.253 -21.799  0.00  0.00    +0.072 C 
ATOM      5  C   UNL     1      35.518 -16.486 -23.122  0.00  0.00    +0.041 C 
ATOM      6  C   UNL     1      34.890 -16.364 -20.671  0.00  0.00    +0.041 C 
ATOM      7  C   UNL     1      34.226 -15.738 -23.457  0.00  0.00    +0.095 C 
ATOM      8  C   UNL     1      33.622 -15.607 -21.068  0.00  0.00    +0.095 C 
ATOM      9  C   UNL     1      33.571 -13.521 -22.397  0.00  0.00    +0.230 C 
BRANCH   4  10
ATOM     10  N   UNL     1      34.586 -18.423 -21.962  0.00  0.00    -0.334 N 
ATOM     11  H   UNL     1      33.990 -18.462 -22.746  0.00  0.00    +0.147 HD
BRANCH  10  13
ATOM     12  F   UNL     1      36.918 -21.729 -19.384  0.00  0.00    -0.204 F 
ATOM     13  C   UNL     1      34.575 -19.486 -21.078  0.00  0.00    +0.047 C 
ATOM     14  C   UNL     1      35.776 -20.094 -20.660  0.00  0.00    +0.044 C 
ATOM     15  C   UNL     1      33.364 -19.993 -20.569  0.00  0.00    +0.014 C 
ATOM     16  C   UNL     1      35.764 -21.167 -19.769  0.00  0.00    +0.141 C 
ATOM     17  C   UNL     1      33.352 -21.066 -19.678  0.00  0.00    +0.004 C 
ATOM     18  C   UNL     1      34.554 -21.653 -19.278  0.00  0.00    +0.030 C 
ENDBRANCH  10  13
ENDBRANCH   4  10
ENDBRANCH   1   9
BRANCH   1  20
ATOM     19  C   UNL     1      33.919  -8.607 -23.333  0.00  0.00    -0.043 C 
ATOM     20  C   UNL     1      33.817 -11.377 -23.598  0.00  0.00    -0.013 C 
ATOM     21  C   UNL     1      34.979  -9.290 -23.929  0.00  0.00    -0.007 C 
ATOM     22  C   UNL     1      32.809  -9.311 -22.870  0.00  0.00    -0.007 C 
ATOM     23  C   UNL     1      34.929 -10.677 -24.062  0.00  0.00    -0.004 C 
ATOM     24  C   UNL     1      32.757 -10.699 -23.002  0.00  0.00    -0.004 C 
BRANCH  19  25
ATOM     25  C   UNL     1      33.974  -7.124 -23.190  0.00  0.00    -0.050 C 
BRANCH  25  26
ATOM     26  N   UNL     1      32.666  -6.545 -22.887  0.00  0.00    +0.387 N 
ATOM     27  N   UNL     1      30.942  -4.474 -21.847  0.00  0.00    +0.382 N 
ATOM     28  C   UNL     1      31.099  -4.672 -23.292  0.00  0.00    -0.083 C 
ATOM     29  C   UNL     1      32.476  -5.279 -23.609  0.00  0.00    -0.099 C 
ATOM     30  C   UNL     1      32.509  -6.340 -21.442  0.00  0.00    -0.101 C 
ATOM     31  C   UNL     1      31.144  -5.730 -21.125  0.00  0.00    -0.105 C 
ATOM     32  C   UNL     1      30.926  -3.330 -24.000  0.00  0.00    -0.026 C 
ATOM     33  H   UNL     1      31.950  -7.202 -23.197  0.00  0.00    -0.079 HD
ATOM     34  H   UNL     1      30.002  -4.127 -21.657  0.00  0.00    -0.085 HD
ATOM     35  H   UNL     1      31.640  -3.801 -21.531  0.00  0.00    -0.085 HD
ENDBRANCH  25  26
ENDBRANCH  19  25
ENDBRANCH   1  20
TORSDOF 6
ENDMDL
MODEL 8
REMARK VINA RESULT:     -10.5      7.398     14.796
REMARK  Name = 15984937
REMARK  6 active torsions:
REMARK  status: ('A' for Active; 'I' for Inactive)
REMARK    1  A    between atoms: C_1  and  C_9
REMARK    2  A    between atoms: C_1  and  C_20
REMARK    3  A    between atoms: C_4  and  N_10
REMARK    4  A    between atoms: N_10  and  C_13
REMARK    5  A    between atoms: C_19  and  C_25
REMARK    6  A    between atoms: C_25  and  N_26
REMARK                            x       y       z     vdW  Elec       q    Type
REMARK                         _______ _______ _______ _____ _____    ______ ____
ROOT
ATOM      1  C   UNL     1      36.094 -21.293 -18.968  0.00  0.00    +0.112 C 
ENDROOT
BRANCH   1   9
ATOM      2  O   UNL     1      33.859 -21.902 -19.464  0.00  0.00    -0.275 OA
ATOM      3  N   UNL     1      34.752 -22.755 -17.496  0.00  0.00    -0.279 N 
ATOM      4  C   UNL     1      34.122 -23.192 -14.690  0.00  0.00    +0.072 C 
ATOM      5  C   UNL     1      35.403 -22.478 -15.135  0.00  0.00    +0.041 C 
ATOM      6  C   UNL     1      33.032 -23.108 -15.764  0.00  0.00    +0.041 C 
ATOM      7  C   UNL     1      35.852 -22.898 -16.536  0.00  0.00    +0.095 C 
ATOM      8  C   UNL     1      33.539 -23.498 -17.152  0.00  0.00    +0.095 C 
ATOM      9  C   UNL     1      34.799 -22.007 -18.673  0.00  0.00    +0.230 C 
BRANCH   4  10
ATOM     10  N   UNL     1      34.412 -24.576 -14.372  0.00  0.00    -0.334 N 
ATOM     11  H   UNL     1      33.793 -25.269 -14.698  0.00  0.00    +0.147 HD
BRANCH  10  13
ATOM     12  F   UNL     1      38.631 -26.840 -14.063  0.00  0.00    -0.204 F 
ATOM     13  C   UNL     1      35.511 -24.977 -13.633  0.00  0.00    +0.047 C 
ATOM     14  C   UNL     1      36.548 -25.725 -14.225  0.00  0.00    +0.044 C 
ATOM     15  C   UNL     1      35.625 -24.651 -12.267  0.00  0.00    +0.014 C 
ATOM     16  C   UNL     1      37.655 -26.130 -13.480  0.00  0.00    +0.141 C 
ATOM     17  C   UNL     1      36.732 -25.057 -11.522  0.00  0.00    +0.004 C 
ATOM     18  C   UNL     1      37.747 -25.797 -12.129  0.00  0.00    +0.030 C 
ENDBRANCH  10  13
ENDBRANCH   4  10
ENDBRANCH   1   9
BRANCH   1  20
ATOM     19  C   UNL     1      35.633 -18.660 -22.312  0.00  0.00    -0.043 C 
ATOM     20  C   UNL     1      35.933 -20.373 -20.137  0.00  0.00    -0.013 C 
ATOM     21  C   UNL     1      34.556 -19.435 -21.881  0.00  0.00    -0.007 C 
ATOM     22  C   UNL     1      36.859 -18.743 -21.653  0.00  0.00    -0.007 C 
ATOM     23  C   UNL     1      34.706 -20.293 -20.791  0.00  0.00    -0.004 C 
ATOM     24  C   UNL     1      37.010 -19.601 -20.564  0.00  0.00    -0.004 C 
BRANCH  19  25
ATOM     25  C   UNL     1      35.473 -17.744 -23.477  0.00  0.00    -0.050 C 
BRANCH  25  26
ATOM     26  N   UNL     1      34.522 -16.665 -23.210  0.00  0.00    +0.387 N 
ATOM     27  N   UNL     1      33.810 -13.891 -22.835  0.00  0.00    +0.382 N 
ATOM     28  C   UNL     1      33.452 -14.604 -24.066  0.00  0.00    -0.083 C 
ATOM     29  C   UNL     1      34.454 -15.737 -24.347  0.00  0.00    -0.099 C 
ATOM     30  C   UNL     1      34.883 -15.946 -21.982  0.00  0.00    -0.101 C 
ATOM     31  C   UNL     1      33.893 -14.814 -21.704  0.00  0.00    -0.105 C 
ATOM     32  C   UNL     1      33.424 -13.611 -25.227  0.00  0.00    -0.026 C 
ATOM     33  H   UNL     1      33.601 -17.081 -23.079  0.00  0.00    -0.079 HD
ATOM     34  H   UNL     1      33.102 -13.184 -22.639  0.00  0.00    -0.085 HD
ATOM     35  H   UNL     1      34.723 -13.453 -22.965  0.00  0.00    -0.085 HD
ENDBRANCH  25  26
ENDBRANCH  19  25
ENDBRANCH   1  20
TORSDOF 6
ENDMDL
MODEL 9
REMARK VINA RESULT:     -10.5      6.971     14.378
REMARK  Name = 15984937
REMARK  6 active torsions:
REMARK  status: ('A' for Active; 'I' for Inactive)
REMARK    1  A    between atoms: C_1  and  C_9
REMARK    2  A    between atoms: C_1  and  C_20
REMARK    3  A    between atoms: C_4  and  N_10
REMARK    4  A    between atoms: N_10  and  C_13
REMARK    5  A    between atoms: C_19  and  C_25
REMARK    6  A    between atoms: C_25  and  N_26
REMARK                            x       y       z     vdW  Elec       q    Type
REMARK                         _______ _______ _______ _____ _____    ______ ____
ROOT
ATOM      1  C   UNL     1      36.408 -20.219 -20.308  0.00  0.00    +0.112 C 
ENDROOT
BRANCH   1   9
ATOM      2  O   UNL     1      34.137 -20.879 -20.157  0.00  0.00    -0.275 OA
ATOM      3  N   UNL     1      35.607 -21.872 -18.656  0.00  0.00    -0.279 N 
ATOM      4  C   UNL     1      35.883 -22.600 -15.853  0.00  0.00    +0.072 C 
ATOM      5  C   UNL     1      36.953 -21.790 -16.593  0.00  0.00    +0.041 C 
ATOM      6  C   UNL     1      34.513 -22.465 -16.527  0.00  0.00    +0.041 C 
ATOM      7  C   UNL     1      36.952 -22.055 -18.099  0.00  0.00    +0.095 C 
ATOM      8  C   UNL     1      34.571 -22.699 -18.037  0.00  0.00    +0.095 C 
ATOM      9  C   UNL     1      35.278 -21.016 -19.707  0.00  0.00    +0.230 C 
BRANCH   4  10
ATOM     10  N   UNL     1      36.276 -23.994 -15.785  0.00  0.00    -0.334 N 
ATOM     11  H   UNL     1      36.142 -24.556 -16.583  0.00  0.00    +0.147 HD
BRANCH  10  13
ATOM     12  F   UNL     1      40.024 -25.937 -13.504  0.00  0.00    -0.204 F 
ATOM     13  C   UNL     1      36.828 -24.578 -14.659  0.00  0.00    +0.047 C 
ATOM     14  C   UNL     1      38.180 -24.976 -14.638  0.00  0.00    +0.044 C 
ATOM     15  C   UNL     1      36.056 -24.793 -13.501  0.00  0.00    +0.014 C 
ATOM     16  C   UNL     1      38.736 -25.567 -13.503  0.00  0.00    +0.141 C 
ATOM     17  C   UNL     1      36.612 -25.384 -12.366  0.00  0.00    +0.004 C 
ATOM     18  C   UNL     1      37.952 -25.770 -12.368  0.00  0.00    +0.030 C 
ENDBRANCH  10  13
ENDBRANCH   4  10
ENDBRANCH   1   9
BRANCH   1  20
ATOM     19  C   UNL     1      34.892 -17.250 -22.994  0.00  0.00    -0.043 C 
ATOM     20  C   UNL     1      35.879 -19.181 -21.247  0.00  0.00    -0.013 C 
ATOM     21  C   UNL     1      34.958 -18.584 -23.395  0.00  0.00    -0.007 C 
ATOM     22  C   UNL     1      35.320 -16.883 -21.719  0.00  0.00    -0.007 C 
ATOM     23  C   UNL     1      35.452 -19.552 -22.520  0.00  0.00    -0.004 C 
ATOM     24  C   UNL     1      35.815 -17.850 -20.843  0.00  0.00    -0.004 C 
BRANCH  19  25
ATOM     25  C   UNL     1      34.365 -16.216 -23.930  0.00  0.00    -0.050 C 
BRANCH  25  26
ATOM     26  N   UNL     1      34.348 -14.881 -23.332  0.00  0.00    +0.387 N 
ATOM     27  N   UNL     1      33.060 -12.402 -22.598  0.00  0.00    +0.382 N 
ATOM     28  C   UNL     1      33.377 -13.418 -21.588  0.00  0.00    -0.083 C 
ATOM     29  C   UNL     1      33.393 -14.821 -22.218  0.00  0.00    -0.099 C 
ATOM     30  C   UNL     1      34.024 -13.864 -24.340  0.00  0.00    -0.101 C 
ATOM     31  C   UNL     1      34.001 -12.468 -23.715  0.00  0.00    -0.105 C 
ATOM     32  C   UNL     1      32.344 -13.343 -20.465  0.00  0.00    -0.026 C 
ATOM     33  H   UNL     1      35.280 -14.686 -22.968  0.00  0.00    -0.079 HD
ATOM     34  H   UNL     1      33.113 -11.477 -22.171  0.00  0.00    -0.085 HD
ATOM     35  H   UNL     1      32.120 -12.577 -22.953  0.00  0.00    -0.085 HD
ENDBRANCH  25  26
ENDBRANCH  19  25
ENDBRANCH   1  20
TORSDOF 6
ENDMDL
