MODEL 1
REMARK VINA RESULT:     -11.7      0.000      0.000
REMARK  Name = 24779724
REMARK  3 active torsions:
REMARK  status: ('A' for Active; 'I' for Inactive)
REMARK    1  A    between atoms: C_5  and  C_12
REMARK    2  A    between atoms: C_7  and  S_16
REMARK    3  A    between atoms: S_16  and  C_19
REMARK                            x       y       z     vdW  Elec       q    Type
REMARK                         _______ _______ _______ _____ _____    ______ ____
ROOT
ATOM      1  N   UNL     1      34.730 -21.235 -19.140  0.00  0.00    -0.186 N 
ATOM      2  N   UNL     1      35.765 -21.571 -18.330  0.00  0.00    -0.162 NA
ATOM      3  N   UNL     1      32.717 -21.091 -20.006  0.00  0.00    -0.126 NA
ATOM      4  N   UNL     1      33.577 -20.325 -20.767  0.00  0.00    -0.120 NA
ATOM      5  C   UNL     1      35.430 -22.359 -17.348  0.00  0.00    +0.104 C 
ATOM      6  C   UNL     1      33.418 -21.633 -19.032  0.00  0.00    +0.187 A 
ATOM      7  C   UNL     1      34.775 -20.423 -20.237  0.00  0.00    +0.217 A 
ATOM      8  C   UNL     1      34.046 -22.886 -17.118  0.00  0.00    +0.024 C 
ATOM      9  C   UNL     1      33.089 -22.499 -17.972  0.00  0.00    +0.042 C 
ENDROOT
BRANCH   5  12
ATOM     10  N   UNL     1      37.519 -23.787 -14.743  0.00  0.00    -0.208 N 
ATOM     11  N   UNL     1      38.471 -23.018 -15.298  0.00  0.00    -0.176 NA
ATOM     12  C   UNL     1      36.476 -22.795 -16.387  0.00  0.00    +0.056 C 
ATOM     13  C   UNL     1      36.305 -23.689 -15.359  0.00  0.00    +0.087 C 
ATOM     14  C   UNL     1      37.829 -22.415 -16.301  0.00  0.00    +0.121 C 
ATOM     15  C   UNL     1      37.836 -24.611 -13.602  0.00  0.00    +0.140 C 
ENDBRANCH   5  12
BRANCH   7  16
ATOM     16  S   UNL     1      36.268 -19.634 -20.819  0.00  0.00    -0.051 S 
BRANCH  16  19
ATOM     17  N   UNL     1      34.049 -14.995 -23.809  0.00  0.00    -0.248 NA
ATOM     18  C   UNL     1      34.640 -16.012 -21.706  0.00  0.00    -0.003 C 
ATOM     19  C   UNL     1      35.603 -18.240 -21.705  0.00  0.00    +0.011 C 
ATOM     20  C   UNL     1      34.549 -16.033 -23.113  0.00  0.00    +0.060 C 
ATOM     21  C   UNL     1      35.167 -17.114 -21.012  0.00  0.00    +0.060 C 
ATOM     22  C   UNL     1      35.515 -18.268 -23.091  0.00  0.00    -0.017 C 
ATOM     23  C   UNL     1      34.992 -17.172 -23.781  0.00  0.00    +0.072 C 
ATOM     24  C   UNL     1      34.195 -14.866 -21.034  0.00  0.00    -0.001 C 
ATOM     25  C   UNL     1      33.680 -13.793 -21.748  0.00  0.00    +0.020 C 
ATOM     26  C   UNL     1      33.630 -13.908 -23.123  0.00  0.00    +0.098 C 
ENDBRANCH  16  19
ENDBRANCH   7  16
TORSDOF 3
ENDMDL
MODEL 2
REMARK VINA RESULT:     -11.6      0.745      1.577
REMARK  Name = 24779724
REMARK  3 active torsions:
REMARK  status: ('A' for Active; 'I' for Inactive)
REMARK    1  A    between atoms: C_5  and  C_12
REMARK    2  A    between atoms: C_7  and  S_16
REMARK    3  A    between atoms: S_16  and  C_19
REMARK                            x       y       z     vdW  Elec       q    Type
REMARK                         _______ _______ _______ _____ _____    ______ ____
ROOT
ATOM      1  N   UNL     1      34.730 -21.082 -19.330  0.00  0.00    -0.186 N 
ATOM      2  N   UNL     1      35.777 -21.390 -18.525  0.00  0.00    -0.162 NA
ATOM      3  N   UNL     1      32.714 -21.007 -20.198  0.00  0.00    -0.126 NA
ATOM      4  N   UNL     1      33.542 -20.190 -20.941  0.00  0.00    -0.120 NA
ATOM      5  C   UNL     1      35.475 -22.211 -17.560  0.00  0.00    +0.104 C 
ATOM      6  C   UNL     1      33.436 -21.537 -19.234  0.00  0.00    +0.187 A 
ATOM      7  C   UNL     1      34.742 -20.248 -20.410  0.00  0.00    +0.217 A 
ATOM      8  C   UNL     1      34.114 -22.801 -17.343  0.00  0.00    +0.024 C 
ATOM      9  C   UNL     1      33.143 -22.438 -18.191  0.00  0.00    +0.042 C 
ENDROOT
BRANCH   5  12
ATOM     10  N   UNL     1      37.606 -23.564 -14.949  0.00  0.00    -0.208 N 
ATOM     11  N   UNL     1      38.552 -22.821 -15.548  0.00  0.00    -0.176 NA
ATOM     12  C   UNL     1      36.537 -22.621 -16.605  0.00  0.00    +0.056 C 
ATOM     13  C   UNL     1      36.381 -23.479 -15.543  0.00  0.00    +0.087 C 
ATOM     14  C   UNL     1      37.894 -22.248 -16.558  0.00  0.00    +0.121 C 
ATOM     15  C   UNL     1      37.941 -24.351 -13.786  0.00  0.00    +0.140 C 
ENDBRANCH   5  12
BRANCH   7  16
ATOM     16  S   UNL     1      36.201 -19.385 -20.974  0.00  0.00    -0.051 S 
BRANCH  16  19
ATOM     17  N   UNL     1      33.807 -14.477 -23.336  0.00  0.00    -0.248 NA
ATOM     18  C   UNL     1      34.789 -16.657 -23.643  0.00  0.00    -0.003 C 
ATOM     19  C   UNL     1      35.485 -17.920 -21.691  0.00  0.00    +0.011 C 
ATOM     20  C   UNL     1      34.351 -15.597 -22.822  0.00  0.00    +0.060 C 
ATOM     21  C   UNL     1      35.352 -17.810 -23.072  0.00  0.00    +0.060 C 
ATOM     22  C   UNL     1      35.057 -16.880 -20.877  0.00  0.00    -0.017 C 
ATOM     23  C   UNL     1      34.497 -15.733 -21.444  0.00  0.00    +0.072 C 
ATOM     24  C   UNL     1      34.642 -16.519 -25.030  0.00  0.00    -0.001 C 
ATOM     25  C   UNL     1      34.082 -15.368 -25.563  0.00  0.00    +0.020 C 
ATOM     26  C   UNL     1      33.684 -14.385 -24.679  0.00  0.00    +0.098 C 
ENDBRANCH  16  19
ENDBRANCH   7  16
TORSDOF 3
ENDMDL
MODEL 3
REMARK VINA RESULT:     -10.7      3.074      4.575
REMARK  Name = 24779724
REMARK  3 active torsions:
REMARK  status: ('A' for Active; 'I' for Inactive)
REMARK    1  A    between atoms: C_5  and  C_12
REMARK    2  A    between atoms: C_7  and  S_16
REMARK    3  A    between atoms: S_16  and  C_19
REMARK                            x       y       z     vdW  Elec       q    Type
REMARK                         _______ _______ _______ _____ _____    ______ ____
ROOT
ATOM      1  N   UNL     1      33.042 -23.401 -15.781  0.00  0.00    -0.186 N 
ATOM      2  N   UNL     1      34.097 -23.919 -15.105  0.00  0.00    -0.162 NA
ATOM      3  N   UNL     1      31.081 -22.525 -16.239  0.00  0.00    -0.126 NA
ATOM      4  N   UNL     1      31.778 -22.678 -17.420  0.00  0.00    -0.120 NA
ATOM      5  C   UNL     1      33.915 -23.985 -13.816  0.00  0.00    +0.104 C 
ATOM      6  C   UNL     1      31.847 -22.961 -15.262  0.00  0.00    +0.187 A 
ATOM      7  C   UNL     1      32.947 -23.204 -17.128  0.00  0.00    +0.217 A 
ATOM      8  C   UNL     1      32.660 -23.561 -13.114  0.00  0.00    +0.024 C 
ATOM      9  C   UNL     1      31.672 -23.061 -13.867  0.00  0.00    +0.042 C 
ENDROOT
BRANCH   5  12
ATOM     10  N   UNL     1      36.881 -25.417 -12.287  0.00  0.00    -0.208 N 
ATOM     11  N   UNL     1      36.209 -25.201 -11.143  0.00  0.00    -0.176 NA
ATOM     12  C   UNL     1      35.001 -24.531 -12.963  0.00  0.00    +0.056 C 
ATOM     13  C   UNL     1      36.201 -25.033 -13.406  0.00  0.00    +0.087 C 
ATOM     14  C   UNL     1      35.062 -24.659 -11.562  0.00  0.00    +0.121 C 
ATOM     15  C   UNL     1      38.197 -26.006 -12.244  0.00  0.00    +0.140 C 
ENDBRANCH   5  12
BRANCH   7  16
ATOM     16  S   UNL     1      34.249 -23.615 -18.280  0.00  0.00    -0.051 S 
BRANCH  16  19
ATOM     17  N   UNL     1      34.678 -18.549 -21.368  0.00  0.00    -0.248 NA
ATOM     18  C   UNL     1      35.758 -20.377 -20.229  0.00  0.00    -0.003 C 
ATOM     19  C   UNL     1      34.388 -22.099 -19.205  0.00  0.00    +0.011 C 
ATOM     20  C   UNL     1      34.603 -19.696 -20.669  0.00  0.00    +0.060 C 
ATOM     21  C   UNL     1      35.642 -21.573 -19.501  0.00  0.00    +0.060 C 
ATOM     22  C   UNL     1      33.247 -21.434 -19.634  0.00  0.00    -0.017 C 
ATOM     23  C   UNL     1      33.362 -20.245 -20.358  0.00  0.00    +0.072 C 
ATOM     24  C   UNL     1      37.007 -19.825 -20.542  0.00  0.00    -0.001 C 
ATOM     25  C   UNL     1      37.088 -18.643 -21.263  0.00  0.00    +0.020 C 
ATOM     26  C   UNL     1      35.903 -18.049 -21.649  0.00  0.00    +0.098 C 
ENDBRANCH  16  19
ENDBRANCH   7  16
TORSDOF 3
ENDMDL
MODEL 4
REMARK VINA RESULT:     -10.3      5.096     12.160
REMARK  Name = 24779724
REMARK  3 active torsions:
REMARK  status: ('A' for Active; 'I' for Inactive)
REMARK    1  A    between atoms: C_5  and  C_12
REMARK    2  A    between atoms: C_7  and  S_16
REMARK    3  A    between atoms: S_16  and  C_19
REMARK                            x       y       z     vdW  Elec       q    Type
REMARK                         _______ _______ _______ _____ _____    ______ ____
ROOT
ATOM      1  N   UNL     1      32.581 -10.797 -22.112  0.00  0.00    -0.186 N 
ATOM      2  N   UNL     1      33.167  -9.861 -22.899  0.00  0.00    -0.162 NA
ATOM      3  N   UNL     1      31.414 -11.748 -20.513  0.00  0.00    -0.126 NA
ATOM      4  N   UNL     1      31.948 -12.738 -21.314  0.00  0.00    -0.120 NA
ATOM      5  C   UNL     1      32.931  -8.636 -22.523  0.00  0.00    +0.104 C 
ATOM      6  C   UNL     1      31.799 -10.588 -21.001  0.00  0.00    +0.187 A 
ATOM      7  C   UNL     1      32.643 -12.152 -22.263  0.00  0.00    +0.217 A 
ATOM      8  C   UNL     1      32.114  -8.258 -21.324  0.00  0.00    +0.024 C 
ATOM      9  C   UNL     1      31.576  -9.253 -20.608  0.00  0.00    +0.042 C 
ENDROOT
BRANCH   5  12
ATOM     10  N   UNL     1      33.745  -5.760 -24.586  0.00  0.00    -0.208 N 
ATOM     11  N   UNL     1      35.011  -6.084 -24.271  0.00  0.00    -0.176 NA
ATOM     12  C   UNL     1      33.514  -7.518 -23.309  0.00  0.00    +0.056 C 
ATOM     13  C   UNL     1      32.811  -6.588 -24.035  0.00  0.00    +0.087 C 
ATOM     14  C   UNL     1      34.864  -7.158 -23.491  0.00  0.00    +0.121 C 
ATOM     15  C   UNL     1      33.486  -4.624 -25.438  0.00  0.00    +0.140 C 
ENDBRANCH   5  12
BRANCH   7  16
ATOM     16  S   UNL     1      33.548 -12.959 -23.575  0.00  0.00    -0.051 S 
BRANCH  16  19
ATOM     17  N   UNL     1      35.337 -17.924 -20.831  0.00  0.00    -0.248 NA
ATOM     18  C   UNL     1      34.770 -16.776 -22.872  0.00  0.00    -0.003 C 
ATOM     19  C   UNL     1      34.085 -14.450 -22.763  0.00  0.00    +0.011 C 
ATOM     20  C   UNL     1      34.934 -16.811 -21.471  0.00  0.00    +0.060 C 
ATOM     21  C   UNL     1      34.347 -15.597 -23.508  0.00  0.00    +0.060 C 
ATOM     22  C   UNL     1      34.243 -14.478 -21.384  0.00  0.00    -0.017 C 
ATOM     23  C   UNL     1      34.664 -15.650 -20.751  0.00  0.00    +0.072 C 
ATOM     24  C   UNL     1      35.042 -17.944 -23.596  0.00  0.00    -0.001 C 
ATOM     25  C   UNL     1      35.458 -19.093 -22.940  0.00  0.00    +0.020 C 
ATOM     26  C   UNL     1      35.589 -19.030 -21.567  0.00  0.00    +0.098 C 
ENDBRANCH  16  19
ENDBRANCH   7  16
TORSDOF 3
ENDMDL
MODEL 5
REMARK VINA RESULT:     -10.3      3.693      7.375
REMARK  Name = 24779724
REMARK  3 active torsions:
REMARK  status: ('A' for Active; 'I' for Inactive)
REMARK    1  A    between atoms: C_5  and  C_12
REMARK    2  A    between atoms: C_7  and  S_16
REMARK    3  A    between atoms: S_16  and  C_19
REMARK                            x       y       z     vdW  Elec       q    Type
REMARK                         _______ _______ _______ _____ _____    ______ ____
ROOT
ATOM      1  N   UNL     1      33.802 -15.228 -22.489  0.00  0.00    -0.186 N 
ATOM      2  N   UNL     1      34.249 -16.213 -21.671  0.00  0.00    -0.162 NA
ATOM      3  N   UNL     1      33.435 -14.000 -24.272  0.00  0.00    -0.126 NA
ATOM      4  N   UNL     1      32.778 -13.426 -23.202  0.00  0.00    -0.120 NA
ATOM      5  C   UNL     1      34.986 -17.103 -22.274  0.00  0.00    +0.104 C 
ATOM      6  C   UNL     1      34.046 -15.080 -23.834  0.00  0.00    +0.187 A 
ATOM      7  C   UNL     1      33.010 -14.171 -22.145  0.00  0.00    +0.217 A 
ATOM      8  C   UNL     1      35.349 -17.060 -23.728  0.00  0.00    +0.024 C 
ATOM      9  C   UNL     1      34.860 -16.047 -24.455  0.00  0.00    +0.042 C 
ENDROOT
BRANCH   5  12
ATOM     10  N   UNL     1      35.712 -20.088 -20.338  0.00  0.00    -0.208 N 
ATOM     11  N   UNL     1      36.972 -19.619 -20.373  0.00  0.00    -0.176 NA
ATOM     12  C   UNL     1      35.532 -18.238 -21.486  0.00  0.00    +0.056 C 
ATOM     13  C   UNL     1      34.812 -19.297 -20.990  0.00  0.00    +0.087 C 
ATOM     14  C   UNL     1      36.855 -18.490 -21.075  0.00  0.00    +0.121 C 
ATOM     15  C   UNL     1      35.426 -21.325 -19.651  0.00  0.00    +0.140 C 
ENDBRANCH   5  12
BRANCH   7  16
ATOM     16  S   UNL     1      32.402 -13.892 -20.489  0.00  0.00    -0.051 S 
BRANCH  16  19
ATOM     17  N   UNL     1      31.681  -7.987 -20.454  0.00  0.00    -0.248 NA
ATOM     18  C   UNL     1      32.111 -10.013 -21.685  0.00  0.00    -0.003 C 
ATOM     19  C   UNL     1      32.187 -12.124 -20.490  0.00  0.00    +0.011 C 
ATOM     20  C   UNL     1      31.847  -9.322 -20.484  0.00  0.00    +0.060 C 
ATOM     21  C   UNL     1      32.279 -11.408 -21.680  0.00  0.00    +0.060 C 
ATOM     22  C   UNL     1      31.928 -11.450 -19.303  0.00  0.00    -0.017 C 
ATOM     23  C   UNL     1      31.761 -10.063 -19.308  0.00  0.00    +0.072 C 
ATOM     24  C   UNL     1      32.198  -9.267 -22.868  0.00  0.00    -0.001 C 
ATOM     25  C   UNL     1      32.027  -7.891 -22.841  0.00  0.00    +0.020 C 
ATOM     26  C   UNL     1      31.773  -7.304 -21.618  0.00  0.00    +0.098 C 
ENDBRANCH  16  19
ENDBRANCH   7  16
TORSDOF 3
ENDMDL
MODEL 6
REMARK VINA RESULT:     -10.2      5.301     11.491
REMARK  Name = 24779724
REMARK  3 active torsions:
REMARK  status: ('A' for Active; 'I' for Inactive)
REMARK    1  A    between atoms: C_5  and  C_12
REMARK    2  A    between atoms: C_7  and  S_16
REMARK    3  A    between atoms: S_16  and  C_19
REMARK                            x       y       z     vdW  Elec       q    Type
REMARK                         _______ _______ _______ _____ _____    ______ ____
ROOT
ATOM      1  N   UNL     1      32.481 -11.690 -21.747  0.00  0.00    -0.186 N 
ATOM      2  N   UNL     1      32.673 -10.476 -22.318  0.00  0.00    -0.162 NA
ATOM      3  N   UNL     1      31.862 -13.267 -20.350  0.00  0.00    -0.126 NA
ATOM      4  N   UNL     1      32.515 -13.856 -21.413  0.00  0.00    -0.120 NA
ATOM      5  C   UNL     1      32.177  -9.487 -21.630  0.00  0.00    +0.104 C 
ATOM      6  C   UNL     1      31.846 -11.968 -20.560  0.00  0.00    +0.187 A 
ATOM      7  C   UNL     1      32.880 -12.901 -22.237  0.00  0.00    +0.217 A 
ATOM      8  C   UNL     1      31.476  -9.637 -20.313  0.00  0.00    +0.024 C 
ATOM      9  C   UNL     1      31.336 -10.878 -19.828  0.00  0.00    +0.042 C 
ENDROOT
BRANCH   5  12
ATOM     10  N   UNL     1      31.908  -6.034 -22.721  0.00  0.00    -0.208 N 
ATOM     11  N   UNL     1      33.183  -6.216 -23.106  0.00  0.00    -0.176 NA
ATOM     12  C   UNL     1      32.317  -8.103 -22.153  0.00  0.00    +0.056 C 
ATOM     13  C   UNL     1      31.344  -7.135 -22.146  0.00  0.00    +0.087 C 
ATOM     14  C   UNL     1      33.428  -7.481 -22.756  0.00  0.00    +0.121 C 
ATOM     15  C   UNL     1      31.270  -4.757 -22.936  0.00  0.00    +0.140 C 
ENDBRANCH   5  12
BRANCH   7  16
ATOM     16  S   UNL     1      33.763 -13.098 -23.778  0.00  0.00    -0.051 S 
BRANCH  16  19
ATOM     17  N   UNL     1      35.325 -18.833 -23.535  0.00  0.00    -0.248 NA
ATOM     18  C   UNL     1      34.913 -16.749 -22.397  0.00  0.00    -0.003 C 
ATOM     19  C   UNL     1      34.231 -14.815 -23.694  0.00  0.00    +0.011 C 
ATOM     20  C   UNL     1      34.973 -17.534 -23.568  0.00  0.00    +0.060 C 
ATOM     21  C   UNL     1      34.542 -15.396 -22.468  0.00  0.00    +0.060 C 
ATOM     22  C   UNL     1      34.289 -15.581 -24.851  0.00  0.00    -0.017 C 
ATOM     23  C   UNL     1      34.658 -16.926 -24.780  0.00  0.00    +0.072 C 
ATOM     24  C   UNL     1      35.230 -17.361 -21.177  0.00  0.00    -0.001 C 
ATOM     25  C   UNL     1      35.593 -18.699 -21.139  0.00  0.00    +0.020 C 
ATOM     26  C   UNL     1      35.624 -19.385 -22.337  0.00  0.00    +0.098 C 
ENDBRANCH  16  19
ENDBRANCH   7  16
TORSDOF 3
ENDMDL
MODEL 7
REMARK VINA RESULT:     -10.0      3.746      6.474
REMARK  Name = 24779724
REMARK  3 active torsions:
REMARK  status: ('A' for Active; 'I' for Inactive)
REMARK    1  A    between atoms: C_5  and  C_12
REMARK    2  A    between atoms: C_7  and  S_16
REMARK    3  A    between atoms: S_16  and  C_19
REMARK                            x       y       z     vdW  Elec       q    Type
REMARK                         _______ _______ _______ _____ _____    ______ ____
ROOT
ATOM      1  N   UNL     1      32.981 -23.234 -16.084  0.00  0.00    -0.186 N 
ATOM      2  N   UNL     1      31.695 -23.264 -16.513  0.00  0.00    -0.162 NA
ATOM      3  N   UNL     1      34.750 -23.031 -14.797  0.00  0.00    -0.126 NA
ATOM      4  N   UNL     1      35.169 -23.360 -16.070  0.00  0.00    -0.120 NA
ATOM      5  C   UNL     1      30.823 -23.000 -15.582  0.00  0.00    +0.104 C 
ATOM      6  C   UNL     1      33.435 -22.959 -14.816  0.00  0.00    +0.187 A 
ATOM      7  C   UNL     1      34.101 -23.476 -16.826  0.00  0.00    +0.217 A 
ATOM      8  C   UNL     1      31.173 -22.665 -14.163  0.00  0.00    +0.024 C 
ATOM      9  C   UNL     1      32.471 -22.659 -13.833  0.00  0.00    +0.042 C 
ENDROOT
BRANCH   5  12
ATOM     10  N   UNL     1      27.242 -22.554 -15.979  0.00  0.00    -0.208 N 
ATOM     11  N   UNL     1      27.377 -23.526 -16.898  0.00  0.00    -0.176 NA
ATOM     12  C   UNL     1      29.378 -23.008 -15.926  0.00  0.00    +0.056 C 
ATOM     13  C   UNL     1      28.411 -22.208 -15.368  0.00  0.00    +0.087 C 
ATOM     14  C   UNL     1      28.683 -23.798 -16.861  0.00  0.00    +0.121 C 
ATOM     15  C   UNL     1      25.940 -21.984 -15.724  0.00  0.00    +0.140 C 
ENDBRANCH   5  12
BRANCH   7  16
ATOM     16  S   UNL     1      34.063 -23.887 -18.564  0.00  0.00    -0.051 S 
BRANCH  16  19
ATOM     17  N   UNL     1      34.773 -18.527 -21.045  0.00  0.00    -0.248 NA
ATOM     18  C   UNL     1      35.750 -20.532 -20.132  0.00  0.00    -0.003 C 
ATOM     19  C   UNL     1      34.287 -22.284 -19.307  0.00  0.00    +0.011 C 
ATOM     20  C   UNL     1      34.635 -19.743 -20.483  0.00  0.00    +0.060 C 
ATOM     21  C   UNL     1      35.568 -21.796 -19.547  0.00  0.00    +0.060 C 
ATOM     22  C   UNL     1      33.184 -21.512 -19.650  0.00  0.00    -0.017 C 
ATOM     23  C   UNL     1      33.365 -20.255 -20.232  0.00  0.00    +0.072 C 
ATOM     24  C   UNL     1      37.028 -20.016 -20.384  0.00  0.00    -0.001 C 
ATOM     25  C   UNL     1      37.174 -18.764 -20.963  0.00  0.00    +0.020 C 
ATOM     26  C   UNL     1      36.024 -18.066 -21.272  0.00  0.00    +0.098 C 
ENDBRANCH  16  19
ENDBRANCH   7  16
TORSDOF 3
ENDMDL
MODEL 8
REMARK VINA RESULT:      -9.9      5.482     12.342
REMARK  Name = 24779724
REMARK  3 active torsions:
REMARK  status: ('A' for Active; 'I' for Inactive)
REMARK    1  A    between atoms: C_5  and  C_12
REMARK    2  A    between atoms: C_7  and  S_16
REMARK    3  A    between atoms: S_16  and  C_19
REMARK                            x       y       z     vdW  Elec       q    Type
REMARK                         _______ _______ _______ _____ _____    ______ ____
ROOT
ATOM      1  N   UNL     1      32.157 -10.218 -21.173  0.00  0.00    -0.186 N 
ATOM      2  N   UNL     1      32.538  -9.377 -22.166  0.00  0.00    -0.162 NA
ATOM      3  N   UNL     1      31.526 -10.989 -19.216  0.00  0.00    -0.126 NA
ATOM      4  N   UNL     1      31.610 -12.047 -20.097  0.00  0.00    -0.120 NA
ATOM      5  C   UNL     1      32.609  -8.128 -21.800  0.00  0.00    +0.104 C 
ATOM      6  C   UNL     1      31.856  -9.895 -19.871  0.00  0.00    +0.187 A 
ATOM      7  C   UNL     1      31.990 -11.570 -21.261  0.00  0.00    +0.217 A 
ATOM      8  C   UNL     1      32.328  -7.634 -20.413  0.00  0.00    +0.024 C 
ATOM      9  C   UNL     1      31.958  -8.540 -19.499  0.00  0.00    +0.042 C 
ENDROOT
BRANCH   5  12
ATOM     10  N   UNL     1      34.100  -6.012 -24.347  0.00  0.00    -0.208 N 
ATOM     11  N   UNL     1      33.029  -5.236 -24.112  0.00  0.00    -0.176 NA
ATOM     12  C   UNL     1      33.011  -7.106 -22.801  0.00  0.00    +0.056 C 
ATOM     13  C   UNL     1      34.137  -7.145 -23.586  0.00  0.00    +0.087 C 
ATOM     14  C   UNL     1      32.367  -5.909 -23.167  0.00  0.00    +0.121 C 
ATOM     15  C   UNL     1      35.076  -5.610 -25.331  0.00  0.00    +0.140 C 
ENDBRANCH   5  12
BRANCH   7  16
ATOM     16  S   UNL     1      32.258 -12.502 -22.761  0.00  0.00    -0.051 S 
BRANCH  16  19
ATOM     17  N   UNL     1      35.268 -17.183 -20.660  0.00  0.00    -0.248 NA
ATOM     18  C   UNL     1      34.451 -15.923 -22.545  0.00  0.00    -0.003 C 
ATOM     19  C   UNL     1      33.162 -13.906 -22.142  0.00  0.00    +0.011 C 
ATOM     20  C   UNL     1      34.591 -16.130 -21.156  0.00  0.00    +0.060 C 
ATOM     21  C   UNL     1      33.738 -14.813 -23.027  0.00  0.00    +0.060 C 
ATOM     22  C   UNL     1      33.296 -14.105 -20.774  0.00  0.00    -0.017 C 
ATOM     23  C   UNL     1      34.005 -15.208 -20.294  0.00  0.00    +0.072 C 
ATOM     24  C   UNL     1      35.041 -16.851 -23.413  0.00  0.00    -0.001 C 
ATOM     25  C   UNL     1      35.739 -17.937 -22.905  0.00  0.00    +0.020 C 
ATOM     26  C   UNL     1      35.822 -18.056 -21.532  0.00  0.00    +0.098 C 
ENDBRANCH  16  19
ENDBRANCH   7  16
TORSDOF 3
ENDMDL
MODEL 9
REMARK VINA RESULT:      -9.7      7.459     11.900
REMARK  Name = 24779724
REMARK  3 active torsions:
REMARK  status: ('A' for Active; 'I' for Inactive)
REMARK    1  A    between atoms: C_5  and  C_12
REMARK    2  A    between atoms: C_7  and  S_16
REMARK    3  A    between atoms: S_16  and  C_19
REMARK                            x       y       z     vdW  Elec       q    Type
REMARK                         _______ _______ _______ _____ _____    ______ ____
ROOT
ATOM      1  N   UNL     1      32.355 -10.666 -21.634  0.00  0.00    -0.186 N 
ATOM      2  N   UNL     1      32.834 -11.557 -22.538  0.00  0.00    -0.162 NA
ATOM      3  N   UNL     1      31.485  -9.802 -19.812  0.00  0.00    -0.126 NA
ATOM      4  N   UNL     1      31.769  -8.777 -20.692  0.00  0.00    -0.120 NA
ATOM      5  C   UNL     1      32.786 -12.795 -22.133  0.00  0.00    +0.104 C 
ATOM      6  C   UNL     1      31.841 -10.932 -20.387  0.00  0.00    +0.187 A 
ATOM      7  C   UNL     1      32.286  -9.310 -21.775  0.00  0.00    +0.217 A 
ATOM      8  C   UNL     1      32.236 -13.233 -20.809  0.00  0.00    +0.024 C 
ATOM      9  C   UNL     1      31.785 -12.280 -19.983  0.00  0.00    +0.042 C 
ENDROOT
BRANCH   5  12
ATOM     10  N   UNL     1      34.224 -15.689 -23.789  0.00  0.00    -0.208 N 
ATOM     11  N   UNL     1      33.768 -15.088 -24.901  0.00  0.00    -0.176 NA
ATOM     12  C   UNL     1      33.287 -13.866 -23.032  0.00  0.00    +0.056 C 
ATOM     13  C   UNL     1      33.962 -14.997 -22.643  0.00  0.00    +0.087 C 
ATOM     14  C   UNL     1      33.196 -13.976 -24.433  0.00  0.00    +0.121 C 
ATOM     15  C   UNL     1      34.919 -16.950 -23.888  0.00  0.00    +0.140 C 
ENDBRANCH   5  12
BRANCH   7  16
ATOM     16  S   UNL     1      32.835  -8.441 -23.236  0.00  0.00    -0.051 S 
BRANCH  16  19
ATOM     17  N   UNL     1      30.218  -3.156 -22.454  0.00  0.00    -0.248 NA
ATOM     18  C   UNL     1      31.847  -4.511 -23.603  0.00  0.00    -0.003 C 
ATOM     19  C   UNL     1      32.057  -6.855 -23.010  0.00  0.00    +0.011 C 
ATOM     20  C   UNL     1      30.823  -4.343 -22.647  0.00  0.00    +0.060 C 
ATOM     21  C   UNL     1      32.456  -5.764 -23.778  0.00  0.00    +0.060 C 
ATOM     22  C   UNL     1      31.050  -6.697 -22.067  0.00  0.00    -0.017 C 
ATOM     23  C   UNL     1      30.444  -5.451 -21.893  0.00  0.00    +0.072 C 
ATOM     24  C   UNL     1      32.228  -3.396 -24.362  0.00  0.00    -0.001 C 
ATOM     25  C   UNL     1      31.607  -2.171 -24.166  0.00  0.00    +0.020 C 
ATOM     26  C   UNL     1      30.616  -2.106 -23.207  0.00  0.00    +0.098 C 
ENDBRANCH  16  19
ENDBRANCH   7  16
TORSDOF 3
ENDMDL
