MODEL 1
REMARK VINA RESULT:     -12.9      0.000      0.000
REMARK  Name = 58212050
REMARK  2 active torsions:
REMARK  status: ('A' for Active; 'I' for Inactive)
REMARK    1  A    between atoms: C_2  and  C_13
REMARK    2  A    between atoms: C_10  and  C_26
REMARK                            x       y       z     vdW  Elec       q    Type
REMARK                         _______ _______ _______ _____ _____    ______ ____
ROOT
ATOM      1  N   UNL     1      37.148 -22.969 -16.717  0.00  0.00    +0.389 N 
ATOM      2  C   UNL     1      34.693 -23.205 -16.938  0.00  0.00    +0.023 C 
ATOM      3  C   UNL     1      35.892 -23.089 -15.966  0.00  0.00    -0.068 C 
ATOM      4  C   UNL     1      34.763 -22.205 -18.085  0.00  0.00    -0.026 C 
ATOM      5  C   UNL     1      35.960 -21.507 -18.339  0.00  0.00    -0.047 C 
ATOM      6  C   UNL     1      37.166 -21.691 -17.447  0.00  0.00    -0.050 C 
ATOM      7  C   UNL     1      33.675 -22.024 -18.956  0.00  0.00    -0.004 C 
ATOM      8  C   UNL     1      36.024 -20.597 -19.404  0.00  0.00    -0.005 C 
ATOM      9  C   UNL     1      38.299 -23.056 -15.818  0.00  0.00    -0.100 C 
ATOM     10  C   UNL     1      34.925 -20.408 -20.241  0.00  0.00    +0.019 C 
ATOM     11  C   UNL     1      33.754 -21.126 -20.021  0.00  0.00    +0.001 C 
ATOM     12  H   UNL     1      37.208 -23.738 -17.384  0.00  0.00    -0.079 HD
ENDROOT
BRANCH   2  13
ATOM     13  C   UNL     1      33.395 -23.156 -16.141  0.00  0.00    -0.020 C 
ATOM     14  C   UNL     1      32.177 -23.001 -16.803  0.00  0.00    -0.004 C 
ATOM     15  C   UNL     1      33.426 -23.265 -14.755  0.00  0.00    -0.004 C 
ATOM     16  C   UNL     1      30.972 -22.953 -16.083  0.00  0.00    -0.000 C 
ATOM     17  C   UNL     1      31.004 -23.064 -14.673  0.00  0.00    -0.000 C 
ATOM     18  C   UNL     1      32.239 -23.219 -14.024  0.00  0.00    -0.000 C 
ATOM     19  C   UNL     1      29.737 -22.797 -16.733  0.00  0.00    -0.000 C 
ATOM     20  C   UNL     1      29.798 -23.015 -13.953  0.00  0.00    -0.000 C 
ATOM     21  C   UNL     1      28.549 -22.751 -16.003  0.00  0.00    -0.000 C 
ATOM     22  C   UNL     1      28.580 -22.860 -14.615  0.00  0.00    -0.000 C 
ENDBRANCH   2  13
BRANCH  10  26
ATOM     23  N   UNL     1      35.324 -18.204 -21.000  0.00  0.00    -0.147 NA
ATOM     24  N   UNL     1      35.419 -17.261 -21.975  0.00  0.00    -0.133 NA
ATOM     25  N   UNL     1      35.292 -16.634 -24.273  0.00  0.00    -0.341 N 
ATOM     26  C   UNL     1      35.005 -19.471 -21.340  0.00  0.00    +0.103 C 
ATOM     27  C   UNL     1      34.768 -19.862 -22.643  0.00  0.00    +0.024 C 
ATOM     28  C   UNL     1      34.865 -18.902 -23.635  0.00  0.00    +0.037 C 
ATOM     29  C   UNL     1      35.193 -17.616 -23.258  0.00  0.00    +0.147 C 
ATOM     30  H   UNL     1      35.524 -15.707 -24.039  0.00  0.00    +0.144 HD
ATOM     31  H   UNL     1      35.129 -16.879 -25.212  0.00  0.00    +0.144 HD
ENDBRANCH  10  26
TORSDOF 2
ENDMDL
MODEL 2
REMARK VINA RESULT:     -12.1      7.661     13.154
REMARK  Name = 58212050
REMARK  2 active torsions:
REMARK  status: ('A' for Active; 'I' for Inactive)
REMARK    1  A    between atoms: C_2  and  C_13
REMARK    2  A    between atoms: C_10  and  C_26
REMARK                            x       y       z     vdW  Elec       q    Type
REMARK                         _______ _______ _______ _____ _____    ______ ____
ROOT
ATOM      1  N   UNL     1      30.990 -11.153 -20.031  0.00  0.00    +0.389 N 
ATOM      2  C   UNL     1      32.032 -10.536 -22.191  0.00  0.00    +0.023 C 
ATOM      3  C   UNL     1      31.630 -10.061 -20.773  0.00  0.00    -0.068 C 
ATOM      4  C   UNL     1      32.702 -11.904 -22.187  0.00  0.00    -0.026 C 
ATOM      5  C   UNL     1      32.642 -12.714 -21.036  0.00  0.00    -0.047 C 
ATOM      6  C   UNL     1      31.973 -12.218 -19.775  0.00  0.00    -0.050 C 
ATOM      7  C   UNL     1      33.310 -12.416 -23.346  0.00  0.00    -0.004 C 
ATOM      8  C   UNL     1      33.249 -13.979 -21.042  0.00  0.00    -0.005 C 
ATOM      9  C   UNL     1      30.431 -10.664 -18.770  0.00  0.00    -0.100 C 
ATOM     10  C   UNL     1      33.875 -14.459 -22.191  0.00  0.00    +0.019 C 
ATOM     11  C   UNL     1      33.899 -13.680 -23.344  0.00  0.00    +0.001 C 
ATOM     12  H   UNL     1      30.225 -11.529 -20.591  0.00  0.00    -0.079 HD
ENDROOT
BRANCH   2  13
ATOM     13  C   UNL     1      32.843  -9.442 -22.876  0.00  0.00    -0.020 C 
ATOM     14  C   UNL     1      32.240  -8.226 -23.198  0.00  0.00    -0.004 C 
ATOM     15  C   UNL     1      34.183  -9.658 -23.179  0.00  0.00    -0.004 C 
ATOM     16  C   UNL     1      32.972  -7.209 -23.830  0.00  0.00    -0.000 C 
ATOM     17  C   UNL     1      34.336  -7.428 -24.140  0.00  0.00    -0.000 C 
ATOM     18  C   UNL     1      34.926  -8.658 -23.807  0.00  0.00    -0.000 C 
ATOM     19  C   UNL     1      32.381  -5.979 -24.163  0.00  0.00    -0.000 C 
ATOM     20  C   UNL     1      35.069  -6.411 -24.772  0.00  0.00    -0.000 C 
ATOM     21  C   UNL     1      33.124  -4.979 -24.791  0.00  0.00    -0.000 C 
ATOM     22  C   UNL     1      34.465  -5.194 -25.096  0.00  0.00    -0.000 C 
ENDBRANCH   2  13
BRANCH  10  26
ATOM     23  N   UNL     1      34.755 -16.280 -20.966  0.00  0.00    -0.147 NA
ATOM     24  N   UNL     1      35.335 -17.507 -20.874  0.00  0.00    -0.133 NA
ATOM     25  N   UNL     1      36.234 -19.457 -21.910  0.00  0.00    -0.341 N 
ATOM     26  C   UNL     1      34.491 -15.767 -22.187  0.00  0.00    +0.103 C 
ATOM     27  C   UNL     1      34.784 -16.433 -23.361  0.00  0.00    +0.024 C 
ATOM     28  C   UNL     1      35.374 -17.682 -23.267  0.00  0.00    +0.037 C 
ATOM     29  C   UNL     1      35.631 -18.181 -22.006  0.00  0.00    +0.147 C 
ATOM     30  H   UNL     1      36.432 -19.843 -21.026  0.00  0.00    +0.144 HD
ATOM     31  H   UNL     1      36.457 -19.959 -22.727  0.00  0.00    +0.144 HD
ENDBRANCH  10  26
TORSDOF 2
ENDMDL
MODEL 3
REMARK VINA RESULT:     -10.8     12.039     16.411
REMARK  Name = 58212050
REMARK  2 active torsions:
REMARK  status: ('A' for Active; 'I' for Inactive)
REMARK    1  A    between atoms: C_2  and  C_13
REMARK    2  A    between atoms: C_10  and  C_26
REMARK                            x       y       z     vdW  Elec       q    Type
REMARK                         _______ _______ _______ _____ _____    ______ ____
ROOT
ATOM      1  N   UNL     1      31.071  -3.766 -22.477  0.00  0.00    +0.389 N 
ATOM      2  C   UNL     1      32.237  -5.913 -22.081  0.00  0.00    +0.023 C 
ATOM      3  C   UNL     1      30.885  -5.161 -22.061  0.00  0.00    -0.068 C 
ATOM      4  C   UNL     1      33.053  -5.631 -23.337  0.00  0.00    -0.026 C 
ATOM      5  C   UNL     1      32.697  -4.562 -24.181  0.00  0.00    -0.047 C 
ATOM      6  C   UNL     1      31.473  -3.722 -23.892  0.00  0.00    -0.050 C 
ATOM      7  C   UNL     1      34.213  -6.368 -23.627  0.00  0.00    -0.004 C 
ATOM      8  C   UNL     1      33.458  -4.297 -25.329  0.00  0.00    -0.005 C 
ATOM      9  C   UNL     1      29.843  -2.997 -22.274  0.00  0.00    -0.100 C 
ATOM     10  C   UNL     1      34.590  -5.057 -25.619  0.00  0.00    +0.019 C 
ATOM     11  C   UNL     1      34.971  -6.087 -24.765  0.00  0.00    +0.001 C 
ATOM     12  H   UNL     1      31.805  -3.346 -21.906  0.00  0.00    -0.079 HD
ENDROOT
BRANCH   2  13
ATOM     13  C   UNL     1      31.992  -7.394 -21.812  0.00  0.00    -0.020 C 
ATOM     14  C   UNL     1      32.061  -7.886 -20.509  0.00  0.00    -0.004 C 
ATOM     15  C   UNL     1      31.699  -8.252 -22.867  0.00  0.00    -0.004 C 
ATOM     16  C   UNL     1      31.839  -9.247 -20.245  0.00  0.00    -0.000 C 
ATOM     17  C   UNL     1      31.541 -10.121 -21.318  0.00  0.00    -0.000 C 
ATOM     18  C   UNL     1      31.475  -9.608 -22.623  0.00  0.00    -0.000 C 
ATOM     19  C   UNL     1      31.906  -9.760 -18.939  0.00  0.00    -0.000 C 
ATOM     20  C   UNL     1      31.319 -11.482 -21.054  0.00  0.00    -0.000 C 
ATOM     21  C   UNL     1      31.682 -11.116 -18.695  0.00  0.00    -0.000 C 
ATOM     22  C   UNL     1      31.390 -11.975 -19.750  0.00  0.00    -0.000 C 
ENDBRANCH   2  13
BRANCH  10  26
ATOM     23  N   UNL     1      36.711  -4.815 -26.636  0.00  0.00    -0.147 NA
ATOM     24  N   UNL     1      37.519  -4.558 -27.700  0.00  0.00    -0.133 NA
ATOM     25  N   UNL     1      37.801  -3.997 -30.000  0.00  0.00    -0.341 N 
ATOM     26  C   UNL     1      35.371  -4.771 -26.802  0.00  0.00    +0.103 C 
ATOM     27  C   UNL     1      34.773  -4.474 -28.010  0.00  0.00    +0.024 C 
ATOM     28  C   UNL     1      35.596  -4.212 -29.092  0.00  0.00    +0.037 C 
ATOM     29  C   UNL     1      36.961  -4.265 -28.894  0.00  0.00    +0.147 C 
ATOM     30  H   UNL     1      38.779  -4.026 -29.893  0.00  0.00    +0.144 HD
ATOM     31  H   UNL     1      37.407  -3.781 -30.876  0.00  0.00    +0.144 HD
ENDBRANCH  10  26
TORSDOF 2
ENDMDL
MODEL 4
REMARK VINA RESULT:     -10.6     11.267     15.836
REMARK  Name = 58212050
REMARK  2 active torsions:
REMARK  status: ('A' for Active; 'I' for Inactive)
REMARK    1  A    between atoms: C_2  and  C_13
REMARK    2  A    between atoms: C_10  and  C_26
REMARK                            x       y       z     vdW  Elec       q    Type
REMARK                         _______ _______ _______ _____ _____    ______ ____
ROOT
ATOM      1  N   UNL     1      31.313  -5.245 -21.827  0.00  0.00    +0.389 N 
ATOM      2  C   UNL     1      32.714  -7.278 -22.016  0.00  0.00    +0.023 C 
ATOM      3  C   UNL     1      31.307  -6.708 -21.713  0.00  0.00    -0.068 C 
ATOM      4  C   UNL     1      33.355  -6.647 -23.246  0.00  0.00    -0.026 C 
ATOM      5  C   UNL     1      32.808  -5.473 -23.800  0.00  0.00    -0.047 C 
ATOM      6  C   UNL     1      31.551  -4.860 -23.228  0.00  0.00    -0.050 C 
ATOM      7  C   UNL     1      34.541  -7.166 -23.792  0.00  0.00    -0.004 C 
ATOM      8  C   UNL     1      33.410  -4.887 -24.923  0.00  0.00    -0.005 C 
ATOM      9  C   UNL     1      30.048  -4.684 -21.354  0.00  0.00    -0.100 C 
ATOM     10  C   UNL     1      34.569  -5.433 -25.471  0.00  0.00    +0.019 C 
ATOM     11  C   UNL     1      35.138  -6.568 -24.901  0.00  0.00    +0.001 C 
ATOM     12  H   UNL     1      32.063  -4.872 -21.245  0.00  0.00    -0.079 HD
ENDROOT
BRANCH   2  13
ATOM     13  C   UNL     1      32.640  -8.800 -22.059  0.00  0.00    -0.020 C 
ATOM     14  C   UNL     1      33.358  -9.505 -23.025  0.00  0.00    -0.004 C 
ATOM     15  C   UNL     1      31.856  -9.484 -21.136  0.00  0.00    -0.004 C 
ATOM     16  C   UNL     1      33.300 -10.907 -23.079  0.00  0.00    -0.000 C 
ATOM     17  C   UNL     1      32.503 -11.603 -22.140  0.00  0.00    -0.000 C 
ATOM     18  C   UNL     1      31.787 -10.877 -21.175  0.00  0.00    -0.000 C 
ATOM     19  C   UNL     1      34.017 -11.633 -24.045  0.00  0.00    -0.000 C 
ATOM     20  C   UNL     1      32.444 -13.005 -22.194  0.00  0.00    -0.000 C 
ATOM     21  C   UNL     1      33.947 -13.026 -24.084  0.00  0.00    -0.000 C 
ATOM     22  C   UNL     1      33.163 -13.711 -23.160  0.00  0.00    -0.000 C 
ENDBRANCH   2  13
BRANCH  10  26
ATOM     23  N   UNL     1      34.337  -4.469 -27.618  0.00  0.00    -0.147 NA
ATOM     24  N   UNL     1      34.835  -3.883 -28.740  0.00  0.00    -0.133 NA
ATOM     25  N   UNL     1      36.682  -3.055 -30.000  0.00  0.00    -0.341 N 
ATOM     26  C   UNL     1      35.185  -4.817 -26.626  0.00  0.00    +0.103 C 
ATOM     27  C   UNL     1      36.547  -4.605 -26.694  0.00  0.00    +0.024 C 
ATOM     28  C   UNL     1      37.054  -4.009 -27.836  0.00  0.00    +0.037 C 
ATOM     29  C   UNL     1      36.164  -3.664 -28.833  0.00  0.00    +0.147 C 
ATOM     30  H   UNL     1      36.075  -2.796 -30.731  0.00  0.00    +0.144 HD
ATOM     31  H   UNL     1      37.649  -2.890 -30.081  0.00  0.00    +0.144 HD
ENDBRANCH  10  26
TORSDOF 2
ENDMDL
MODEL 5
REMARK VINA RESULT:     -10.3      5.521     11.040
REMARK  Name = 58212050
REMARK  2 active torsions:
REMARK  status: ('A' for Active; 'I' for Inactive)
REMARK    1  A    between atoms: C_2  and  C_13
REMARK    2  A    between atoms: C_10  and  C_26
REMARK                            x       y       z     vdW  Elec       q    Type
REMARK                         _______ _______ _______ _____ _____    ______ ____
ROOT
ATOM      1  N   UNL     1      34.087 -14.405 -25.975  0.00  0.00    +0.389 N 
ATOM      2  C   UNL     1      34.197 -13.164 -23.836  0.00  0.00    +0.023 C 
ATOM      3  C   UNL     1      33.482 -13.315 -25.200  0.00  0.00    -0.068 C 
ATOM      4  C   UNL     1      34.443 -14.499 -23.145  0.00  0.00    -0.026 C 
ATOM      5  C   UNL     1      34.295 -15.701 -23.864  0.00  0.00    -0.047 C 
ATOM      6  C   UNL     1      33.833 -15.689 -25.303  0.00  0.00    -0.050 C 
ATOM      7  C   UNL     1      34.902 -14.555 -21.818  0.00  0.00    -0.004 C 
ATOM      8  C   UNL     1      34.536 -16.928 -23.228  0.00  0.00    -0.005 C 
ATOM      9  C   UNL     1      33.553 -14.430 -27.337  0.00  0.00    -0.100 C 
ATOM     10  C   UNL     1      34.961 -16.966 -21.902  0.00  0.00    +0.019 C 
ATOM     11  C   UNL     1      35.151 -15.780 -21.199  0.00  0.00    +0.001 C 
ATOM     12  H   UNL     1      35.094 -14.249 -26.032  0.00  0.00    -0.079 HD
ENDROOT
BRANCH   2  13
ATOM     13  C   UNL     1      33.445 -12.147 -22.985  0.00  0.00    -0.020 C 
ATOM     14  C   UNL     1      33.653 -10.782 -23.183  0.00  0.00    -0.004 C 
ATOM     15  C   UNL     1      32.551 -12.581 -22.011  0.00  0.00    -0.004 C 
ATOM     16  C   UNL     1      32.969  -9.833 -22.408  0.00  0.00    -0.000 C 
ATOM     17  C   UNL     1      32.061 -10.274 -21.417  0.00  0.00    -0.000 C 
ATOM     18  C   UNL     1      31.863 -11.651 -21.231  0.00  0.00    -0.000 C 
ATOM     19  C   UNL     1      33.167  -8.454 -22.594  0.00  0.00    -0.000 C 
ATOM     20  C   UNL     1      31.376  -9.324 -20.640  0.00  0.00    -0.000 C 
ATOM     21  C   UNL     1      32.479  -7.525 -21.813  0.00  0.00    -0.000 C 
ATOM     22  C   UNL     1      31.586  -7.959 -20.838  0.00  0.00    -0.000 C 
ENDBRANCH   2  13
BRANCH  10  26
ATOM     23  N   UNL     1      36.484 -18.438 -20.850  0.00  0.00    -0.147 NA
ATOM     24  N   UNL     1      36.805 -19.608 -20.235  0.00  0.00    -0.133 NA
ATOM     25  N   UNL     1      36.178 -21.755 -19.409  0.00  0.00    -0.341 N 
ATOM     26  C   UNL     1      35.213 -18.237 -21.258  0.00  0.00    +0.103 C 
ATOM     27  C   UNL     1      34.211 -19.170 -21.080  0.00  0.00    +0.024 C 
ATOM     28  C   UNL     1      34.538 -20.360 -20.455  0.00  0.00    +0.037 C 
ATOM     29  C   UNL     1      35.845 -20.538 -20.048  0.00  0.00    +0.147 C 
ATOM     30  H   UNL     1      37.102 -21.915 -19.107  0.00  0.00    +0.144 HD
ATOM     31  H   UNL     1      35.488 -22.442 -19.267  0.00  0.00    +0.144 HD
ENDBRANCH  10  26
TORSDOF 2
ENDMDL
MODEL 6
REMARK VINA RESULT:     -10.1      5.227     10.461
REMARK  Name = 58212050
REMARK  2 active torsions:
REMARK  status: ('A' for Active; 'I' for Inactive)
REMARK    1  A    between atoms: C_2  and  C_13
REMARK    2  A    between atoms: C_10  and  C_26
REMARK                            x       y       z     vdW  Elec       q    Type
REMARK                         _______ _______ _______ _____ _____    ______ ____
ROOT
ATOM      1  N   UNL     1      34.049 -14.432 -25.915  0.00  0.00    +0.389 N 
ATOM      2  C   UNL     1      34.206 -13.209 -23.768  0.00  0.00    +0.023 C 
ATOM      3  C   UNL     1      33.467 -13.344 -25.121  0.00  0.00    -0.068 C 
ATOM      4  C   UNL     1      34.451 -14.552 -23.092  0.00  0.00    -0.026 C 
ATOM      5  C   UNL     1      34.280 -15.747 -23.818  0.00  0.00    -0.047 C 
ATOM      6  C   UNL     1      33.795 -15.720 -25.249  0.00  0.00    -0.050 C 
ATOM      7  C   UNL     1      34.931 -14.623 -21.773  0.00  0.00    -0.004 C 
ATOM      8  C   UNL     1      34.521 -16.981 -23.196  0.00  0.00    -0.005 C 
ATOM      9  C   UNL     1      33.493 -14.441 -27.268  0.00  0.00    -0.100 C 
ATOM     10  C   UNL     1      34.967 -17.034 -21.877  0.00  0.00    +0.019 C 
ATOM     11  C   UNL     1      35.179 -15.855 -21.168  0.00  0.00    +0.001 C 
ATOM     12  H   UNL     1      35.056 -14.285 -25.988  0.00  0.00    -0.079 HD
ENDROOT
BRANCH   2  13
ATOM     13  C   UNL     1      33.477 -12.193 -22.897  0.00  0.00    -0.020 C 
ATOM     14  C   UNL     1      32.938 -12.584 -21.671  0.00  0.00    -0.004 C 
ATOM     15  C   UNL     1      33.348 -10.876 -23.326  0.00  0.00    -0.004 C 
ATOM     16  C   UNL     1      32.263 -11.661 -20.858  0.00  0.00    -0.000 C 
ATOM     17  C   UNL     1      32.131 -10.321 -21.294  0.00  0.00    -0.000 C 
ATOM     18  C   UNL     1      32.679  -9.944 -22.530  0.00  0.00    -0.000 C 
ATOM     19  C   UNL     1      31.714 -12.038 -19.621  0.00  0.00    -0.000 C 
ATOM     20  C   UNL     1      31.455  -9.397 -20.480  0.00  0.00    -0.000 C 
ATOM     21  C   UNL     1      31.046 -11.107 -18.825  0.00  0.00    -0.000 C 
ATOM     22  C   UNL     1      30.916  -9.789 -19.254  0.00  0.00    -0.000 C 
ENDBRANCH   2  13
BRANCH  10  26
ATOM     23  N   UNL     1      36.482 -18.506 -20.813  0.00  0.00    -0.147 NA
ATOM     24  N   UNL     1      36.802 -19.682 -20.209  0.00  0.00    -0.133 NA
ATOM     25  N   UNL     1      36.180 -21.849 -19.432  0.00  0.00    -0.341 N 
ATOM     26  C   UNL     1      35.218 -18.312 -21.247  0.00  0.00    +0.103 C 
ATOM     27  C   UNL     1      34.223 -19.258 -21.108  0.00  0.00    +0.024 C 
ATOM     28  C   UNL     1      34.549 -20.455 -20.494  0.00  0.00    +0.037 C 
ATOM     29  C   UNL     1      35.848 -20.625 -20.060  0.00  0.00    +0.147 C 
ATOM     30  H   UNL     1      37.098 -22.003 -19.110  0.00  0.00    +0.144 HD
ATOM     31  H   UNL     1      35.494 -22.545 -19.317  0.00  0.00    +0.144 HD
ENDBRANCH  10  26
TORSDOF 2
ENDMDL
MODEL 7
REMARK VINA RESULT:      -9.9      2.353      5.720
REMARK  Name = 58212050
REMARK  2 active torsions:
REMARK  status: ('A' for Active; 'I' for Inactive)
REMARK    1  A    between atoms: C_2  and  C_13
REMARK    2  A    between atoms: C_10  and  C_26
REMARK                            x       y       z     vdW  Elec       q    Type
REMARK                         _______ _______ _______ _____ _____    ______ ____
ROOT
ATOM      1  N   UNL     1      32.481 -23.346 -15.755  0.00  0.00    +0.389 N 
ATOM      2  C   UNL     1      34.924 -23.442 -15.367  0.00  0.00    +0.023 C 
ATOM      3  C   UNL     1      33.579 -24.206 -15.300  0.00  0.00    -0.068 C 
ATOM      4  C   UNL     1      35.098 -22.665 -16.666  0.00  0.00    -0.026 C 
ATOM      5  C   UNL     1      33.994 -22.459 -17.515  0.00  0.00    -0.047 C 
ATOM      6  C   UNL     1      32.644 -23.053 -17.188  0.00  0.00    -0.050 C 
ATOM      7  C   UNL     1      36.328 -22.071 -16.995  0.00  0.00    -0.004 C 
ATOM      8  C   UNL     1      34.156 -21.731 -18.704  0.00  0.00    -0.005 C 
ATOM      9  C   UNL     1      31.187 -23.986 -15.511  0.00  0.00    -0.100 C 
ATOM     10  C   UNL     1      35.391 -21.173 -19.030  0.00  0.00    +0.019 C 
ATOM     11  C   UNL     1      36.474 -21.338 -18.173  0.00  0.00    +0.001 C 
ATOM     12  H   UNL     1      32.506 -22.472 -15.229  0.00  0.00    -0.079 HD
ENDROOT
BRANCH   2  13
ATOM     13  C   UNL     1      36.064 -24.405 -15.055  0.00  0.00    -0.020 C 
ATOM     14  C   UNL     1      37.375 -23.934 -14.985  0.00  0.00    -0.004 C 
ATOM     15  C   UNL     1      35.796 -25.754 -14.842  0.00  0.00    -0.004 C 
ATOM     16  C   UNL     1      38.436 -24.807 -14.699  0.00  0.00    -0.000 C 
ATOM     17  C   UNL     1      38.163 -26.179 -14.483  0.00  0.00    -0.000 C 
ATOM     18  C   UNL     1      36.838 -26.636 -14.558  0.00  0.00    -0.000 C 
ATOM     19  C   UNL     1      39.762 -24.350 -14.625  0.00  0.00    -0.000 C 
ATOM     20  C   UNL     1      39.225 -27.054 -14.198  0.00  0.00    -0.000 C 
ATOM     21  C   UNL     1      40.804 -25.232 -14.340  0.00  0.00    -0.000 C 
ATOM     22  C   UNL     1      40.537 -26.581 -14.128  0.00  0.00    -0.000 C 
ENDBRANCH   2  13
BRANCH  10  26
ATOM     23  N   UNL     1      34.439 -20.337 -21.027  0.00  0.00    -0.147 NA
ATOM     24  N   UNL     1      34.498 -19.645 -22.197  0.00  0.00    -0.133 NA
ATOM     25  N   UNL     1      35.721 -18.337 -23.772  0.00  0.00    -0.341 N 
ATOM     26  C   UNL     1      35.544 -20.419 -20.255  0.00  0.00    +0.103 C 
ATOM     27  C   UNL     1      36.744 -19.828 -20.596  0.00  0.00    +0.024 C 
ATOM     28  C   UNL     1      36.804 -19.124 -21.786  0.00  0.00    +0.037 C 
ATOM     29  C   UNL     1      35.659 -19.057 -22.555  0.00  0.00    +0.147 C 
ATOM     30  H   UNL     1      34.923 -18.270 -24.344  0.00  0.00    +0.144 HD
ATOM     31  H   UNL     1      36.562 -17.905 -24.046  0.00  0.00    +0.144 HD
ENDBRANCH  10  26
TORSDOF 2
ENDMDL
