MODEL 1
REMARK VINA RESULT:     -11.5      0.000      0.000
REMARK  Name = 11314340
REMARK  7 active torsions:
REMARK  status: ('A' for Active; 'I' for Inactive)
REMARK    1  A    between atoms: C_2  and  C_10
REMARK    2  A    between atoms: C_3  and  O_18
REMARK    3  A    between atoms: O_18  and  C_19
REMARK    4  A    between atoms: C_19  and  C_20
REMARK    5  A    between atoms: C_20  and  N_21
REMARK    6  A    between atoms: C_20  and  C_25
REMARK    7  A    between atoms: C_25  and  C_26
REMARK                            x       y       z     vdW  Elec       q    Type
REMARK                         _______ _______ _______ _____ _____    ______ ____
ROOT
ATOM      1  N   UNL     1      33.500 -14.734 -25.747  0.00  0.00    -0.239 NA
ATOM      2  C   UNL     1      33.386 -14.349 -23.369  0.00  0.00    +0.022 C 
ATOM      3  C   UNL     1      34.679 -16.184 -24.214  0.00  0.00    +0.158 C 
ATOM      4  C   UNL     1      34.207 -15.441 -23.136  0.00  0.00    +0.040 C 
ATOM      5  C   UNL     1      33.061 -14.036 -24.675  0.00  0.00    +0.099 C 
ATOM      6  C   UNL     1      34.298 -15.793 -25.487  0.00  0.00    +0.136 C 
ENDROOT
BRANCH   2  10
ATOM      7  N   UNL     1      31.333 -10.135 -19.953  0.00  0.00    -0.280 N 
ATOM      8  N   UNL     1      31.439 -11.254 -19.209  0.00  0.00    -0.173 NA
ATOM      9  C   UNL     1      32.100 -11.584 -21.358  0.00  0.00    +0.032 A 
ATOM     10  C   UNL     1      32.877 -13.555 -22.266  0.00  0.00    +0.002 C 
ATOM     11  C   UNL     1      31.917 -12.182 -20.057  0.00  0.00    +0.102 A 
ATOM     12  C   UNL     1      32.574 -12.201 -22.508  0.00  0.00    +0.003 C 
ATOM     13  C   UNL     1      31.717 -10.277 -21.255  0.00  0.00    +0.053 A 
ATOM     14  C   UNL     1      32.713 -14.194 -20.996  0.00  0.00    +0.002 C 
ATOM     15  C   UNL     1      32.228 -13.537 -19.843  0.00  0.00    +0.021 C 
ATOM     16  C   UNL     1      31.665  -9.157 -22.209  0.00  0.00    +0.051 C 
ATOM     17  H   UNL     1      31.003  -9.283 -19.586  0.00  0.00    +0.189 HD
ENDBRANCH   2  10
BRANCH   3  18
ATOM     18  O   UNL     1      35.485 -17.257 -24.022  0.00  0.00    -0.476 OA
BRANCH  18  19
ATOM     19  C   UNL     1      34.857 -18.500 -23.704  0.00  0.00    +0.184 C 
BRANCH  19  20
ATOM     20  C   UNL     1      35.552 -19.156 -22.505  0.00  0.00    -0.017 C 
BRANCH  20  21
ATOM     21  N   UNL     1      36.895 -18.582 -22.379  0.00  0.00    +0.384 N 
ATOM     22  H   UNL     1      36.823 -17.582 -22.197  0.00  0.00    -0.089 HD
ATOM     23  H   UNL     1      37.412 -18.734 -23.246  0.00  0.00    -0.089 HD
ATOM     24  H   UNL     1      37.387 -19.034 -21.607  0.00  0.00    -0.089 HD
ENDBRANCH  20  21
BRANCH  20  25
ATOM     25  C   UNL     1      34.805 -18.933 -21.173  0.00  0.00    +0.008 C 
BRANCH  25  26
ATOM     26  C   UNL     1      34.612 -20.179 -20.343  0.00  0.00    -0.024 C 
ATOM     27  C   UNL     1      33.328 -20.574 -20.000  0.00  0.00    -0.004 C 
ATOM     28  C   UNL     1      35.721 -20.906 -19.940  0.00  0.00    -0.004 C 
ATOM     29  C   UNL     1      33.148 -21.726 -19.234  0.00  0.00    -0.000 C 
ATOM     30  C   UNL     1      35.540 -22.058 -19.173  0.00  0.00    -0.000 C 
ATOM     31  C   UNL     1      34.255 -22.468 -18.820  0.00  0.00    -0.000 C 
ENDBRANCH  25  26
ENDBRANCH  20  25
ENDBRANCH  19  20
ENDBRANCH  18  19
ENDBRANCH   3  18
TORSDOF 7
ENDMDL
MODEL 2
REMARK VINA RESULT:     -11.2      3.221     10.335
REMARK  Name = 11314340
REMARK  7 active torsions:
REMARK  status: ('A' for Active; 'I' for Inactive)
REMARK    1  A    between atoms: C_2  and  C_10
REMARK    2  A    between atoms: C_3  and  O_18
REMARK    3  A    between atoms: O_18  and  C_19
REMARK    4  A    between atoms: C_19  and  C_20
REMARK    5  A    between atoms: C_20  and  N_21
REMARK    6  A    between atoms: C_20  and  C_25
REMARK    7  A    between atoms: C_25  and  C_26
REMARK                            x       y       z     vdW  Elec       q    Type
REMARK                         _______ _______ _______ _____ _____    ______ ____
ROOT
ATOM      1  N   UNL     1      31.707 -11.928 -19.892  0.00  0.00    -0.239 NA
ATOM      2  C   UNL     1      32.672 -12.652 -21.979  0.00  0.00    +0.022 C 
ATOM      3  C   UNL     1      31.988 -10.369 -21.717  0.00  0.00    +0.158 C 
ATOM      4  C   UNL     1      32.539 -11.375 -22.503  0.00  0.00    +0.040 C 
ATOM      5  C   UNL     1      32.247 -12.881 -20.684  0.00  0.00    +0.099 C 
ATOM      6  C   UNL     1      31.590 -10.694 -20.431  0.00  0.00    +0.136 C 
ENDROOT
BRANCH   2  10
ATOM      7  N   UNL     1      35.334 -17.447 -23.867  0.00  0.00    -0.280 N 
ATOM      8  N   UNL     1      34.874 -16.780 -24.944  0.00  0.00    -0.173 NA
ATOM      9  C   UNL     1      34.384 -15.714 -22.998  0.00  0.00    +0.032 A 
ATOM     10  C   UNL     1      33.243 -13.724 -22.774  0.00  0.00    +0.002 C 
ATOM     11  C   UNL     1      34.273 -15.688 -24.437  0.00  0.00    +0.102 A 
ATOM     12  C   UNL     1      33.898 -14.773 -22.100  0.00  0.00    +0.003 C 
ATOM     13  C   UNL     1      35.067 -16.851 -22.669  0.00  0.00    +0.053 A 
ATOM     14  C   UNL     1      33.105 -13.653 -24.197  0.00  0.00    +0.002 C 
ATOM     15  C   UNL     1      33.613 -14.628 -25.084  0.00  0.00    +0.021 C 
ATOM     16  C   UNL     1      35.496 -17.443 -21.391  0.00  0.00    +0.051 C 
ATOM     17  H   UNL     1      35.824 -18.298 -23.940  0.00  0.00    +0.189 HD
ENDBRANCH   2  10
BRANCH   3  18
ATOM     18  O   UNL     1      31.844  -9.108 -22.197  0.00  0.00    -0.476 OA
BRANCH  18  19
ATOM     19  C   UNL     1      31.604  -8.069 -21.247  0.00  0.00    +0.184 C 
BRANCH  19  20
ATOM     20  C   UNL     1      32.844  -7.178 -21.109  0.00  0.00    -0.017 C 
BRANCH  20  21
ATOM     21  N   UNL     1      33.407  -7.373 -19.770  0.00  0.00    +0.384 N 
ATOM     22  H   UNL     1      33.861  -8.284 -19.721  0.00  0.00    -0.089 HD
ATOM     23  H   UNL     1      32.659  -7.327 -19.077  0.00  0.00    -0.089 HD
ATOM     24  H   UNL     1      34.092  -6.640 -19.579  0.00  0.00    -0.089 HD
ENDBRANCH  20  21
BRANCH  20  25
ATOM     25  C   UNL     1      33.942  -7.499 -22.146  0.00  0.00    +0.008 C 
BRANCH  25  26
ATOM     26  C   UNL     1      33.945  -6.599 -23.358  0.00  0.00    -0.024 C 
ATOM     27  C   UNL     1      35.071  -6.553 -24.166  0.00  0.00    -0.004 C 
ATOM     28  C   UNL     1      32.824  -5.836 -23.642  0.00  0.00    -0.004 C 
ATOM     29  C   UNL     1      35.075  -5.722 -25.286  0.00  0.00    -0.000 C 
ATOM     30  C   UNL     1      32.829  -5.005 -24.763  0.00  0.00    -0.000 C 
ATOM     31  C   UNL     1      33.953  -4.948 -25.584  0.00  0.00    -0.000 C 
ENDBRANCH  25  26
ENDBRANCH  20  25
ENDBRANCH  19  20
ENDBRANCH  18  19
ENDBRANCH   3  18
TORSDOF 7
ENDMDL
MODEL 3
REMARK VINA RESULT:     -11.2      3.606     10.193
REMARK  Name = 11314340
REMARK  7 active torsions:
REMARK  status: ('A' for Active; 'I' for Inactive)
REMARK    1  A    between atoms: C_2  and  C_10
REMARK    2  A    between atoms: C_3  and  O_18
REMARK    3  A    between atoms: O_18  and  C_19
REMARK    4  A    between atoms: C_19  and  C_20
REMARK    5  A    between atoms: C_20  and  N_21
REMARK    6  A    between atoms: C_20  and  C_25
REMARK    7  A    between atoms: C_25  and  C_26
REMARK                            x       y       z     vdW  Elec       q    Type
REMARK                         _______ _______ _______ _____ _____    ______ ____
ROOT
ATOM      1  N   UNL     1      31.297 -11.525 -19.410  0.00  0.00    -0.239 NA
ATOM      2  C   UNL     1      32.556 -12.542 -21.198  0.00  0.00    +0.022 C 
ATOM      3  C   UNL     1      31.843 -10.260 -21.396  0.00  0.00    +0.158 C 
ATOM      4  C   UNL     1      32.502 -11.364 -21.928  0.00  0.00    +0.040 C 
ATOM      5  C   UNL     1      31.946 -12.577 -19.959  0.00  0.00    +0.099 C 
ATOM      6  C   UNL     1      31.262 -10.392 -20.146  0.00  0.00    +0.136 C 
ENDROOT
BRANCH   2  10
ATOM      7  N   UNL     1      34.842 -16.673 -24.565  0.00  0.00    -0.280 N 
ATOM      8  N   UNL     1      35.130 -16.979 -23.285  0.00  0.00    -0.173 NA
ATOM      9  C   UNL     1      33.932 -15.057 -23.462  0.00  0.00    +0.032 A 
ATOM     10  C   UNL     1      33.235 -13.711 -21.726  0.00  0.00    +0.002 C 
ATOM     11  C   UNL     1      34.574 -15.988 -22.565  0.00  0.00    +0.102 A 
ATOM     12  C   UNL     1      33.244 -13.899 -23.121  0.00  0.00    +0.003 C 
ATOM     13  C   UNL     1      34.123 -15.526 -24.731  0.00  0.00    +0.053 A 
ATOM     14  C   UNL     1      33.857 -14.603 -20.796  0.00  0.00    +0.002 C 
ATOM     15  C   UNL     1      34.550 -15.774 -21.175  0.00  0.00    +0.021 C 
ATOM     16  C   UNL     1      33.723 -15.041 -26.062  0.00  0.00    +0.051 C 
ATOM     17  H   UNL     1      35.130 -17.234 -25.322  0.00  0.00    +0.189 HD
ENDBRANCH   2  10
BRANCH   3  18
ATOM     18  O   UNL     1      31.773  -9.092 -22.082  0.00  0.00    -0.476 OA
BRANCH  18  19
ATOM     19  C   UNL     1      31.507  -7.906 -21.331  0.00  0.00    +0.184 C 
BRANCH  19  20
ATOM     20  C   UNL     1      32.794  -7.093 -21.149  0.00  0.00    -0.017 C 
BRANCH  20  21
ATOM     21  N   UNL     1      33.321  -7.357 -19.807  0.00  0.00    +0.384 N 
ATOM     22  H   UNL     1      32.932  -6.682 -19.149  0.00  0.00    -0.089 HD
ATOM     23  H   UNL     1      34.338  -7.273 -19.819  0.00  0.00    -0.089 HD
ATOM     24  H   UNL     1      33.061  -8.301 -19.519  0.00  0.00    -0.089 HD
ENDBRANCH  20  21
BRANCH  20  25
ATOM     25  C   UNL     1      33.889  -7.450 -22.176  0.00  0.00    +0.008 C 
BRANCH  25  26
ATOM     26  C   UNL     1      33.924  -6.559 -23.394  0.00  0.00    -0.024 C 
ATOM     27  C   UNL     1      32.841  -5.736 -23.665  0.00  0.00    -0.004 C 
ATOM     28  C   UNL     1      35.037  -6.580 -24.220  0.00  0.00    -0.004 C 
ATOM     29  C   UNL     1      32.873  -4.913 -24.790  0.00  0.00    -0.000 C 
ATOM     30  C   UNL     1      35.067  -5.756 -25.346  0.00  0.00    -0.000 C 
ATOM     31  C   UNL     1      33.986  -4.923 -25.631  0.00  0.00    -0.000 C 
ENDBRANCH  25  26
ENDBRANCH  20  25
ENDBRANCH  19  20
ENDBRANCH  18  19
ENDBRANCH   3  18
TORSDOF 7
ENDMDL
MODEL 4
REMARK VINA RESULT:     -11.1      3.105      5.666
REMARK  Name = 11314340
REMARK  7 active torsions:
REMARK  status: ('A' for Active; 'I' for Inactive)
REMARK    1  A    between atoms: C_2  and  C_10
REMARK    2  A    between atoms: C_3  and  O_18
REMARK    3  A    between atoms: O_18  and  C_19
REMARK    4  A    between atoms: C_19  and  C_20
REMARK    5  A    between atoms: C_20  and  N_21
REMARK    6  A    between atoms: C_20  and  C_25
REMARK    7  A    between atoms: C_25  and  C_26
REMARK                            x       y       z     vdW  Elec       q    Type
REMARK                         _______ _______ _______ _____ _____    ______ ____
ROOT
ATOM      1  N   UNL     1      37.446 -19.323 -20.685  0.00  0.00    -0.239 NA
ATOM      2  C   UNL     1      35.511 -18.201 -21.586  0.00  0.00    +0.022 C 
ATOM      3  C   UNL     1      35.235 -20.248 -20.368  0.00  0.00    +0.158 C 
ATOM      4  C   UNL     1      34.681 -19.188 -21.077  0.00  0.00    +0.040 C 
ATOM      5  C   UNL     1      36.872 -18.308 -21.369  0.00  0.00    +0.099 C 
ATOM      6  C   UNL     1      36.610 -20.270 -20.202  0.00  0.00    +0.136 C 
ENDROOT
BRANCH   2  10
ATOM      7  N   UNL     1      32.934 -13.281 -23.256  0.00  0.00    -0.280 N 
ATOM      8  N   UNL     1      33.399 -13.898 -24.360  0.00  0.00    -0.173 NA
ATOM      9  C   UNL     1      33.851 -15.068 -22.465  0.00  0.00    +0.032 A 
ATOM     10  C   UNL     1      34.964 -17.082 -22.331  0.00  0.00    +0.002 C 
ATOM     11  C   UNL     1      33.980 -15.022 -23.902  0.00  0.00    +0.102 A 
ATOM     12  C   UNL     1      34.314 -16.061 -21.611  0.00  0.00    +0.003 C 
ATOM     13  C   UNL     1      33.178 -13.942 -22.087  0.00  0.00    +0.053 A 
ATOM     14  C   UNL     1      35.119 -17.082 -23.754  0.00  0.00    +0.002 C 
ATOM     15  C   UNL     1      34.635 -16.055 -24.596  0.00  0.00    +0.021 C 
ATOM     16  C   UNL     1      32.740 -13.411 -20.785  0.00  0.00    +0.051 C 
ATOM     17  H   UNL     1      32.456 -12.421 -23.290  0.00  0.00    +0.189 HD
ENDBRANCH   2  10
BRANCH   3  18
ATOM     18  O   UNL     1      34.452 -21.230 -19.856  0.00  0.00    -0.476 OA
BRANCH  18  19
ATOM     19  C   UNL     1      34.927 -21.905 -18.690  0.00  0.00    +0.184 C 
BRANCH  19  20
ATOM     20  C   UNL     1      33.832 -22.814 -18.119  0.00  0.00    -0.017 C 
BRANCH  20  21
ATOM     21  N   UNL     1      33.828 -24.067 -18.879  0.00  0.00    +0.384 N 
ATOM     22  H   UNL     1      34.678 -24.129 -19.439  0.00  0.00    -0.089 HD
ATOM     23  H   UNL     1      33.014 -24.089 -19.494  0.00  0.00    -0.089 HD
ATOM     24  H   UNL     1      33.788 -24.857 -18.234  0.00  0.00    -0.089 HD
ENDBRANCH  20  21
BRANCH  20  25
ATOM     25  C   UNL     1      34.041 -23.155 -16.628  0.00  0.00    +0.008 C 
BRANCH  25  26
ATOM     26  C   UNL     1      32.776 -23.186 -15.806  0.00  0.00    -0.024 C 
ATOM     27  C   UNL     1      31.561 -22.917 -16.418  0.00  0.00    -0.004 C 
ATOM     28  C   UNL     1      32.850 -23.483 -14.454  0.00  0.00    -0.004 C 
ATOM     29  C   UNL     1      30.392 -22.945 -15.660  0.00  0.00    -0.000 C 
ATOM     30  C   UNL     1      31.679 -23.511 -13.696  0.00  0.00    -0.000 C 
ATOM     31  C   UNL     1      30.451 -23.242 -14.298  0.00  0.00    -0.000 C 
ENDBRANCH  25  26
ENDBRANCH  20  25
ENDBRANCH  19  20
ENDBRANCH  18  19
ENDBRANCH   3  18
TORSDOF 7
ENDMDL
MODEL 5
REMARK VINA RESULT:     -11.0      1.294      2.027
REMARK  Name = 11314340
REMARK  7 active torsions:
REMARK  status: ('A' for Active; 'I' for Inactive)
REMARK    1  A    between atoms: C_2  and  C_10
REMARK    2  A    between atoms: C_3  and  O_18
REMARK    3  A    between atoms: O_18  and  C_19
REMARK    4  A    between atoms: C_19  and  C_20
REMARK    5  A    between atoms: C_20  and  N_21
REMARK    6  A    between atoms: C_20  and  C_25
REMARK    7  A    between atoms: C_25  and  C_26
REMARK                            x       y       z     vdW  Elec       q    Type
REMARK                         _______ _______ _______ _____ _____    ______ ____
ROOT
ATOM      1  N   UNL     1      33.813 -15.358 -25.680  0.00  0.00    -0.239 NA
ATOM      2  C   UNL     1      33.889 -13.729 -23.903  0.00  0.00    +0.022 C 
ATOM      3  C   UNL     1      34.963 -15.853 -23.612  0.00  0.00    +0.158 C 
ATOM      4  C   UNL     1      34.629 -14.598 -23.116  0.00  0.00    +0.040 C 
ATOM      5  C   UNL     1      33.506 -14.147 -25.164  0.00  0.00    +0.099 C 
ATOM      6  C   UNL     1      34.534 -16.182 -24.888  0.00  0.00    +0.136 C 
ENDROOT
BRANCH   2  10
ATOM      7  N   UNL     1      31.660  -9.229 -21.002  0.00  0.00    -0.280 N 
ATOM      8  N   UNL     1      32.449  -8.740 -21.979  0.00  0.00    -0.173 NA
ATOM      9  C   UNL     1      32.399 -11.012 -21.970  0.00  0.00    +0.032 A 
ATOM     10  C   UNL     1      33.523 -12.413 -23.414  0.00  0.00    +0.002 C 
ATOM     11  C   UNL     1      32.928  -9.829 -22.606  0.00  0.00    +0.102 A 
ATOM     12  C   UNL     1      32.647 -12.334 -22.314  0.00  0.00    +0.003 C 
ATOM     13  C   UNL     1      31.593 -10.591 -20.950  0.00  0.00    +0.053 A 
ATOM     14  C   UNL     1      34.075 -11.272 -24.078  0.00  0.00    +0.002 C 
ATOM     15  C   UNL     1      33.802  -9.937 -23.703  0.00  0.00    +0.021 C 
ATOM     16  C   UNL     1      30.779 -11.295 -19.945  0.00  0.00    +0.051 C 
ATOM     17  H   UNL     1      31.171  -8.649 -20.374  0.00  0.00    +0.189 HD
ENDBRANCH   2  10
BRANCH   3  18
ATOM     18  O   UNL     1      35.687 -16.727 -22.869  0.00  0.00    -0.476 OA
BRANCH  18  19
ATOM     19  C   UNL     1      35.414 -18.119 -23.044  0.00  0.00    +0.184 C 
BRANCH  19  20
ATOM     20  C   UNL     1      35.538 -18.856 -21.706  0.00  0.00    -0.017 C 
BRANCH  20  21
ATOM     21  N   UNL     1      35.687 -17.861 -20.641  0.00  0.00    +0.384 N 
ATOM     22  H   UNL     1      36.279 -18.238 -19.902  0.00  0.00    -0.089 HD
ATOM     23  H   UNL     1      34.768 -17.633 -20.258  0.00  0.00    -0.089 HD
ATOM     24  H   UNL     1      36.114 -17.016 -21.022  0.00  0.00    -0.089 HD
ENDBRANCH  20  21
BRANCH  20  25
ATOM     25  C   UNL     1      34.311 -19.733 -21.379  0.00  0.00    +0.008 C 
BRANCH  25  26
ATOM     26  C   UNL     1      34.505 -20.679 -20.219  0.00  0.00    -0.024 C 
ATOM     27  C   UNL     1      33.393 -21.184 -19.560  0.00  0.00    -0.004 C 
ATOM     28  C   UNL     1      35.789 -21.028 -19.833  0.00  0.00    -0.004 C 
ATOM     29  C   UNL     1      33.571 -22.058 -18.489  0.00  0.00    -0.000 C 
ATOM     30  C   UNL     1      35.967 -21.903 -18.760  0.00  0.00    -0.000 C 
ATOM     31  C   UNL     1      34.859 -22.418 -18.088  0.00  0.00    -0.000 C 
ENDBRANCH  25  26
ENDBRANCH  20  25
ENDBRANCH  19  20
ENDBRANCH  18  19
ENDBRANCH   3  18
TORSDOF 7
ENDMDL
MODEL 6
REMARK VINA RESULT:     -10.9      3.589      7.053
REMARK  Name = 11314340
REMARK  7 active torsions:
REMARK  status: ('A' for Active; 'I' for Inactive)
REMARK    1  A    between atoms: C_2  and  C_10
REMARK    2  A    between atoms: C_3  and  O_18
REMARK    3  A    between atoms: O_18  and  C_19
REMARK    4  A    between atoms: C_19  and  C_20
REMARK    5  A    between atoms: C_20  and  N_21
REMARK    6  A    between atoms: C_20  and  C_25
REMARK    7  A    between atoms: C_25  and  C_26
REMARK                            x       y       z     vdW  Elec       q    Type
REMARK                         _______ _______ _______ _____ _____    ______ ____
ROOT
ATOM      1  N   UNL     1      36.530 -21.393 -19.162  0.00  0.00    -0.239 NA
ATOM      2  C   UNL     1      35.142 -20.039 -20.595  0.00  0.00    +0.022 C 
ATOM      3  C   UNL     1      34.134 -21.709 -19.200  0.00  0.00    +0.158 C 
ATOM      4  C   UNL     1      34.007 -20.697 -20.146  0.00  0.00    +0.040 C 
ATOM      5  C   UNL     1      36.368 -20.415 -20.082  0.00  0.00    +0.099 C 
ATOM      6  C   UNL     1      35.406 -22.016 -18.745  0.00  0.00    +0.136 C 
ENDROOT
BRANCH   2  10
ATOM      7  N   UNL     1      34.637 -14.973 -23.375  0.00  0.00    -0.280 N 
ATOM      8  N   UNL     1      34.759 -15.943 -24.303  0.00  0.00    -0.173 NA
ATOM      9  C   UNL     1      34.812 -16.767 -22.186  0.00  0.00    +0.032 A 
ATOM     10  C   UNL     1      35.043 -18.979 -21.582  0.00  0.00    +0.002 C 
ATOM     11  C   UNL     1      34.871 -17.081 -23.594  0.00  0.00    +0.102 A 
ATOM     12  C   UNL     1      34.890 -17.657 -21.123  0.00  0.00    +0.003 C 
ATOM     13  C   UNL     1      34.662 -15.413 -22.083  0.00  0.00    +0.053 A 
ATOM     14  C   UNL     1      35.107 -19.342 -22.965  0.00  0.00    +0.002 C 
ATOM     15  C   UNL     1      35.024 -18.411 -24.025  0.00  0.00    +0.021 C 
ATOM     16  C   UNL     1      34.543 -14.490 -20.942  0.00  0.00    +0.051 C 
ATOM     17  H   UNL     1      34.538 -14.022 -23.611  0.00  0.00    +0.189 HD
ENDBRANCH   2  10
BRANCH   3  18
ATOM     18  O   UNL     1      33.045 -22.373 -18.738  0.00  0.00    -0.476 OA
BRANCH  18  19
ATOM     19  C   UNL     1      33.253 -23.324 -17.692  0.00  0.00    +0.184 C 
BRANCH  19  20
ATOM     20  C   UNL     1      32.682 -22.794 -16.371  0.00  0.00    -0.017 C 
BRANCH  20  21
ATOM     21  N   UNL     1      31.220 -22.879 -16.432  0.00  0.00    +0.384 N 
ATOM     22  H   UNL     1      30.828 -22.667 -15.516  0.00  0.00    -0.089 HD
ATOM     23  H   UNL     1      30.946 -23.822 -16.710  0.00  0.00    -0.089 HD
ATOM     24  H   UNL     1      30.869 -22.208 -17.117  0.00  0.00    -0.089 HD
ENDBRANCH  20  21
BRANCH  20  25
ATOM     25  C   UNL     1      33.161 -23.592 -15.139  0.00  0.00    +0.008 C 
BRANCH  25  26
ATOM     26  C   UNL     1      34.659 -23.736 -15.025  0.00  0.00    -0.024 C 
ATOM     27  C   UNL     1      35.209 -24.996 -14.845  0.00  0.00    -0.004 C 
ATOM     28  C   UNL     1      35.459 -22.606 -15.103  0.00  0.00    -0.004 C 
ATOM     29  C   UNL     1      36.593 -25.130 -14.740  0.00  0.00    -0.000 C 
ATOM     30  C   UNL     1      36.843 -22.741 -14.998  0.00  0.00    -0.000 C 
ATOM     31  C   UNL     1      37.410 -24.001 -14.816  0.00  0.00    -0.000 C 
ENDBRANCH  25  26
ENDBRANCH  20  25
ENDBRANCH  19  20
ENDBRANCH  18  19
ENDBRANCH   3  18
TORSDOF 7
ENDMDL
MODEL 7
REMARK VINA RESULT:     -10.9      2.383      3.272
REMARK  Name = 11314340
REMARK  7 active torsions:
REMARK  status: ('A' for Active; 'I' for Inactive)
REMARK    1  A    between atoms: C_2  and  C_10
REMARK    2  A    between atoms: C_3  and  O_18
REMARK    3  A    between atoms: O_18  and  C_19
REMARK    4  A    between atoms: C_19  and  C_20
REMARK    5  A    between atoms: C_20  and  N_21
REMARK    6  A    between atoms: C_20  and  C_25
REMARK    7  A    between atoms: C_25  and  C_26
REMARK                            x       y       z     vdW  Elec       q    Type
REMARK                         _______ _______ _______ _____ _____    ______ ____
ROOT
ATOM      1  N   UNL     1      33.390 -14.102 -26.059  0.00  0.00    -0.239 NA
ATOM      2  C   UNL     1      34.010 -12.444 -24.421  0.00  0.00    +0.022 C 
ATOM      3  C   UNL     1      34.002 -14.765 -23.817  0.00  0.00    +0.158 C 
ATOM      4  C   UNL     1      34.211 -13.434 -23.471  0.00  0.00    +0.040 C 
ATOM      5  C   UNL     1      33.603 -12.820 -25.687  0.00  0.00    +0.099 C 
ATOM      6  C   UNL     1      33.594 -15.044 -25.111  0.00  0.00    +0.136 C 
ENDROOT
BRANCH   2  10
ATOM      7  N   UNL     1      33.674  -7.057 -22.300  0.00  0.00    -0.280 N 
ATOM      8  N   UNL     1      34.745  -7.113 -23.116  0.00  0.00    -0.173 NA
ATOM      9  C   UNL     1      33.652  -9.101 -22.993  0.00  0.00    +0.032 A 
ATOM     10  C   UNL     1      34.219 -11.047 -24.092  0.00  0.00    +0.002 C 
ATOM     11  C   UNL     1      34.762  -8.380 -23.569  0.00  0.00    +0.102 A 
ATOM     12  C   UNL     1      33.314 -10.431 -23.205  0.00  0.00    +0.003 C 
ATOM     13  C   UNL     1      32.980  -8.226 -22.189  0.00  0.00    +0.053 A 
ATOM     14  C   UNL     1      35.334 -10.376 -24.687  0.00  0.00    +0.002 C 
ATOM     15  C   UNL     1      35.651  -9.019 -24.452  0.00  0.00    +0.021 C 
ATOM     16  C   UNL     1      31.783  -8.345 -21.339  0.00  0.00    +0.051 C 
ATOM     17  H   UNL     1      33.415  -6.236 -21.821  0.00  0.00    +0.189 HD
ENDBRANCH   2  10
BRANCH   3  18
ATOM     18  O   UNL     1      34.191 -15.759 -22.913  0.00  0.00    -0.476 OA
BRANCH  18  19
ATOM     19  C   UNL     1      35.384 -16.536 -23.033  0.00  0.00    +0.184 C 
BRANCH  19  20
ATOM     20  C   UNL     1      35.477 -17.548 -21.885  0.00  0.00    -0.017 C 
BRANCH  20  21
ATOM     21  N   UNL     1      34.907 -16.935 -20.682  0.00  0.00    +0.384 N 
ATOM     22  H   UNL     1      34.048 -17.421 -20.426  0.00  0.00    -0.089 HD
ATOM     23  H   UNL     1      34.700 -15.953 -20.866  0.00  0.00    -0.089 HD
ATOM     24  H   UNL     1      35.578 -17.003 -19.915  0.00  0.00    -0.089 HD
ENDBRANCH  20  21
BRANCH  20  25
ATOM     25  C   UNL     1      34.714 -18.859 -22.167  0.00  0.00    +0.008 C 
BRANCH  25  26
ATOM     26  C   UNL     1      34.760 -19.867 -21.045  0.00  0.00    -0.024 C 
ATOM     27  C   UNL     1      35.988 -20.312 -20.580  0.00  0.00    -0.004 C 
ATOM     28  C   UNL     1      33.573 -20.331 -20.498  0.00  0.00    -0.004 C 
ATOM     29  C   UNL     1      36.031 -21.244 -19.544  0.00  0.00    -0.000 C 
ATOM     30  C   UNL     1      33.617 -21.262 -19.460  0.00  0.00    -0.000 C 
ATOM     31  C   UNL     1      34.845 -21.719 -18.983  0.00  0.00    -0.000 C 
ENDBRANCH  25  26
ENDBRANCH  20  25
ENDBRANCH  19  20
ENDBRANCH  18  19
ENDBRANCH   3  18
TORSDOF 7
ENDMDL
MODEL 8
REMARK VINA RESULT:     -10.9      5.758     11.591
REMARK  Name = 11314340
REMARK  7 active torsions:
REMARK  status: ('A' for Active; 'I' for Inactive)
REMARK    1  A    between atoms: C_2  and  C_10
REMARK    2  A    between atoms: C_3  and  O_18
REMARK    3  A    between atoms: O_18  and  C_19
REMARK    4  A    between atoms: C_19  and  C_20
REMARK    5  A    between atoms: C_20  and  N_21
REMARK    6  A    between atoms: C_20  and  C_25
REMARK    7  A    between atoms: C_25  and  C_26
REMARK                            x       y       z     vdW  Elec       q    Type
REMARK                         _______ _______ _______ _____ _____    ______ ____
ROOT
ATOM      1  N   UNL     1      31.572 -23.308 -15.181  0.00  0.00    -0.239 NA
ATOM      2  C   UNL     1      33.982 -23.378 -15.214  0.00  0.00    +0.022 C 
ATOM      3  C   UNL     1      32.785 -22.784 -17.205  0.00  0.00    +0.158 C 
ATOM      4  C   UNL     1      33.991 -23.007 -16.550  0.00  0.00    +0.040 C 
ATOM      5  C   UNL     1      32.764 -23.515 -14.577  0.00  0.00    +0.099 C 
ATOM      6  C   UNL     1      31.614 -22.948 -16.483  0.00  0.00    +0.136 C 
ENDROOT
BRANCH   2  10
ATOM      7  N   UNL     1      38.069 -24.423 -11.234  0.00  0.00    -0.280 N 
ATOM      8  N   UNL     1      38.680 -24.302 -12.430  0.00  0.00    -0.173 NA
ATOM      9  C   UNL     1      36.427 -24.042 -12.583  0.00  0.00    +0.032 A 
ATOM     10  C   UNL     1      35.224 -23.618 -14.502  0.00  0.00    +0.002 C 
ATOM     11  C   UNL     1      37.681 -24.063 -13.299  0.00  0.00    +0.102 A 
ATOM     12  C   UNL     1      35.161 -23.827 -13.111  0.00  0.00    +0.003 C 
ATOM     13  C   UNL     1      36.713 -24.275 -11.268  0.00  0.00    +0.053 A 
ATOM     14  C   UNL     1      36.440 -23.629 -15.257  0.00  0.00    +0.002 C 
ATOM     15  C   UNL     1      37.714 -23.851 -14.689  0.00  0.00    +0.021 C 
ATOM     16  C   UNL     1      35.887 -24.378 -10.053  0.00  0.00    +0.051 C 
ATOM     17  H   UNL     1      38.564 -24.604 -10.402  0.00  0.00    +0.189 HD
ENDBRANCH   2  10
BRANCH   3  18
ATOM     18  O   UNL     1      32.757 -22.419 -18.512  0.00  0.00    -0.476 OA
BRANCH  18  19
ATOM     19  C   UNL     1      34.013 -22.202 -19.158  0.00  0.00    +0.184 C 
BRANCH  19  20
ATOM     20  C   UNL     1      33.877 -21.114 -20.230  0.00  0.00    -0.017 C 
BRANCH  20  21
ATOM     21  N   UNL     1      32.728 -20.270 -19.890  0.00  0.00    +0.384 N 
ATOM     22  H   UNL     1      32.795 -19.385 -20.392  0.00  0.00    -0.089 HD
ATOM     23  H   UNL     1      32.723 -20.092 -18.885  0.00  0.00    -0.089 HD
ATOM     24  H   UNL     1      31.866 -20.748 -20.154  0.00  0.00    -0.089 HD
ENDBRANCH  20  21
BRANCH  20  25
ATOM     25  C   UNL     1      35.124 -20.210 -20.340  0.00  0.00    +0.008 C 
BRANCH  25  26
ATOM     26  C   UNL     1      35.069 -19.196 -21.456  0.00  0.00    -0.024 C 
ATOM     27  C   UNL     1      35.191 -17.848 -21.156  0.00  0.00    -0.004 C 
ATOM     28  C   UNL     1      34.899 -19.630 -22.762  0.00  0.00    -0.004 C 
ATOM     29  C   UNL     1      35.141 -16.911 -22.187  0.00  0.00    -0.000 C 
ATOM     30  C   UNL     1      34.849 -18.692 -23.793  0.00  0.00    -0.000 C 
ATOM     31  C   UNL     1      34.969 -17.333 -23.506  0.00  0.00    -0.000 C 
ENDBRANCH  25  26
ENDBRANCH  20  25
ENDBRANCH  19  20
ENDBRANCH  18  19
ENDBRANCH   3  18
TORSDOF 7
ENDMDL
MODEL 9
REMARK VINA RESULT:     -10.9      4.939     11.035
REMARK  Name = 11314340
REMARK  7 active torsions:
REMARK  status: ('A' for Active; 'I' for Inactive)
REMARK    1  A    between atoms: C_2  and  C_10
REMARK    2  A    between atoms: C_3  and  O_18
REMARK    3  A    between atoms: O_18  and  C_19
REMARK    4  A    between atoms: C_19  and  C_20
REMARK    5  A    between atoms: C_20  and  N_21
REMARK    6  A    between atoms: C_20  and  C_25
REMARK    7  A    between atoms: C_25  and  C_26
REMARK                            x       y       z     vdW  Elec       q    Type
REMARK                         _______ _______ _______ _____ _____    ______ ____
ROOT
ATOM      1  N   UNL     1      32.839 -22.447 -18.405  0.00  0.00    -0.239 NA
ATOM      2  C   UNL     1      34.559 -22.907 -16.779  0.00  0.00    +0.022 C 
ATOM      3  C   UNL     1      35.092 -21.640 -18.744  0.00  0.00    +0.158 C 
ATOM      4  C   UNL     1      35.488 -22.218 -17.543  0.00  0.00    +0.040 C 
ATOM      5  C   UNL     1      33.261 -22.996 -17.243  0.00  0.00    +0.099 C 
ATOM      6  C   UNL     1      33.769 -21.783 -19.127  0.00  0.00    +0.136 C 
ENDROOT
BRANCH   2  10
ATOM      7  N   UNL     1      37.367 -25.463 -12.395  0.00  0.00    -0.280 N 
ATOM      8  N   UNL     1      36.093 -25.261 -12.006  0.00  0.00    -0.173 NA
ATOM      9  C   UNL     1      36.476 -24.517 -14.119  0.00  0.00    +0.032 A 
ATOM     10  C   UNL     1      34.941 -23.522 -15.521  0.00  0.00    +0.002 C 
ATOM     11  C   UNL     1      35.505 -24.670 -13.062  0.00  0.00    +0.102 A 
ATOM     12  C   UNL     1      36.273 -23.956 -15.373  0.00  0.00    +0.003 C 
ATOM     13  C   UNL     1      37.654 -25.034 -13.658  0.00  0.00    +0.053 A 
ATOM     14  C   UNL     1      33.942 -23.650 -14.505  0.00  0.00    +0.002 C 
ATOM     15  C   UNL     1      34.181 -24.228 -13.237  0.00  0.00    +0.021 C 
ATOM     16  C   UNL     1      38.997 -25.174 -14.244  0.00  0.00    +0.051 C 
ATOM     17  H   UNL     1      38.039 -25.886 -11.812  0.00  0.00    +0.189 HD
ENDBRANCH   2  10
BRANCH   3  18
ATOM     18  O   UNL     1      35.975 -20.958 -19.516  0.00  0.00    -0.476 OA
BRANCH  18  19
ATOM     19  C   UNL     1      35.468 -20.332 -20.695  0.00  0.00    +0.184 C 
BRANCH  19  20
ATOM     20  C   UNL     1      36.078 -18.935 -20.859  0.00  0.00    -0.017 C 
BRANCH  20  21
ATOM     21  N   UNL     1      37.473 -18.985 -20.414  0.00  0.00    +0.384 N 
ATOM     22  H   UNL     1      37.526 -19.453 -19.510  0.00  0.00    -0.089 HD
ATOM     23  H   UNL     1      37.836 -18.035 -20.327  0.00  0.00    -0.089 HD
ATOM     24  H   UNL     1      38.030 -19.499 -21.098  0.00  0.00    -0.089 HD
ENDBRANCH  20  21
BRANCH  20  25
ATOM     25  C   UNL     1      36.054 -18.429 -22.317  0.00  0.00    +0.008 C 
BRANCH  25  26
ATOM     26  C   UNL     1      35.285 -17.147 -22.526  0.00  0.00    -0.024 C 
ATOM     27  C   UNL     1      34.908 -16.394 -21.424  0.00  0.00    -0.004 C 
ATOM     28  C   UNL     1      34.969 -16.745 -23.814  0.00  0.00    -0.004 C 
ATOM     29  C   UNL     1      34.198 -15.209 -21.616  0.00  0.00    -0.000 C 
ATOM     30  C   UNL     1      34.259 -15.559 -24.005  0.00  0.00    -0.000 C 
ATOM     31  C   UNL     1      33.873 -14.792 -22.907  0.00  0.00    -0.000 C 
ENDBRANCH  25  26
ENDBRANCH  20  25
ENDBRANCH  19  20
ENDBRANCH  18  19
ENDBRANCH   3  18
TORSDOF 7
ENDMDL
