MODEL 1
REMARK VINA RESULT:     -11.2      0.000      0.000
REMARK  Name = 447359
REMARK  5 active torsions:
REMARK  status: ('A' for Active; 'I' for Inactive)
REMARK    1  A    between atoms: N_2  and  S_8
REMARK    2  A    between atoms: N_3  and  C_21
REMARK    3  A    between atoms: S_8  and  C_13
REMARK    4  A    between atoms: C_21  and  C_22
REMARK    5  A    between atoms: C_25  and  C_30
REMARK                            x       y       z     vdW  Elec       q    Type
REMARK                         _______ _______ _______ _____ _____    ______ ____
ROOT
ATOM      1  O   UNL     1      37.822 -20.041 -20.263  0.00  0.00    -0.273 OA
ATOM      2  N   UNL     1      34.427 -21.024 -19.481  0.00  0.00    -0.144 NA
ATOM      3  N   UNL     1      35.822 -19.168 -21.045  0.00  0.00    -0.273 N 
ATOM      4  C   UNL     1      33.768 -20.499 -20.697  0.00  0.00    +0.118 C 
ATOM      5  C   UNL     1      34.365 -19.135 -20.970  0.00  0.00    +0.113 C 
ATOM      6  C   UNL     1      35.868 -21.251 -19.704  0.00  0.00    +0.181 C 
ATOM      7  C   UNL     1      36.590 -20.089 -20.338  0.00  0.00    +0.244 C 
ENDROOT
BRANCH   2   8
ATOM      8  S   UNL     1      33.597 -22.278 -18.663  0.00  0.00    +0.069 S 
ATOM      9  O   UNL     1      33.695 -23.487 -19.455  0.00  0.00    -0.152 OA
ATOM     10  O   UNL     1      32.327 -21.774 -18.186  0.00  0.00    -0.152 OA
BRANCH   8  13
ATOM     11 CL   UNL     1      36.205 -24.512 -11.252  0.00  0.00    -0.082 Cl
ATOM     12  S   UNL     1      33.569 -23.329 -15.942  0.00  0.00    -0.067 S 
ATOM     13  C   UNL     1      34.509 -22.638 -17.166  0.00  0.00    +0.152 C 
ATOM     14  C   UNL     1      35.808 -22.462 -16.831  0.00  0.00    +0.027 C 
ATOM     15  C   UNL     1      36.081 -22.911 -15.495  0.00  0.00    +0.008 C 
ATOM     16  C   UNL     1      34.929 -23.415 -14.885  0.00  0.00    +0.032 C 
ATOM     17  C   UNL     1      37.287 -22.913 -14.754  0.00  0.00    +0.001 C 
ATOM     18  C   UNL     1      34.952 -23.915 -13.568  0.00  0.00    +0.018 C 
ATOM     19  C   UNL     1      37.314 -23.408 -13.448  0.00  0.00    +0.011 C 
ATOM     20  C   UNL     1      36.157 -23.903 -12.863  0.00  0.00    +0.058 C 
ENDBRANCH   8  13
ENDBRANCH   2   8
BRANCH   3  21
ATOM     21  C   UNL     1      36.458 -18.038 -21.710  0.00  0.00    +0.120 C 
BRANCH  21  22
ATOM     22  C   UNL     1      35.447 -16.957 -21.940  0.00  0.00    -0.002 C 
ATOM     23  C   UNL     1      35.099 -16.602 -23.240  0.00  0.00    +0.000 C 
ATOM     24  C   UNL     1      34.863 -16.314 -20.852  0.00  0.00    -0.003 C 
ATOM     25  C   UNL     1      34.158 -15.595 -23.454  0.00  0.00    +0.030 C 
ATOM     26  C   UNL     1      33.923 -15.306 -21.067  0.00  0.00    -0.000 C 
ATOM     27  C   UNL     1      33.570 -14.946 -22.368  0.00  0.00    +0.003 C 
BRANCH  25  30
ATOM     28  N   UNL     1      32.878 -14.194 -25.056  0.00  0.00    -0.343 N 
ATOM     29  N   UNL     1      34.322 -15.859 -25.837  0.00  0.00    -0.285 NA
ATOM     30  C   UNL     1      33.790 -15.219 -24.810  0.00  0.00    +0.117 C 
ATOM     31  H   UNL     1      32.643 -13.957 -25.982  0.00  0.00    +0.144 HD
ATOM     32  H   UNL     1      32.469 -13.709 -24.305  0.00  0.00    +0.144 HD
ATOM     33  H   UNL     1      34.074 -15.606 -26.756  0.00  0.00    +0.188 HD
ENDBRANCH  25  30
ENDBRANCH  21  22
ENDBRANCH   3  21
TORSDOF 5
ENDMDL
MODEL 2
REMARK VINA RESULT:     -11.2      8.513     11.926
REMARK  Name = 447359
REMARK  5 active torsions:
REMARK  status: ('A' for Active; 'I' for Inactive)
REMARK    1  A    between atoms: N_2  and  S_8
REMARK    2  A    between atoms: N_3  and  C_21
REMARK    3  A    between atoms: S_8  and  C_13
REMARK    4  A    between atoms: C_21  and  C_22
REMARK    5  A    between atoms: C_25  and  C_30
REMARK                            x       y       z     vdW  Elec       q    Type
REMARK                         _______ _______ _______ _____ _____    ______ ____
ROOT
ATOM      1  O   UNL     1      33.182  -6.676 -19.456  0.00  0.00    -0.273 OA
ATOM      2  N   UNL     1      31.462  -9.669 -20.545  0.00  0.00    -0.144 NA
ATOM      3  N   UNL     1      32.256  -7.169 -21.523  0.00  0.00    -0.273 N 
ATOM      4  C   UNL     1      31.689  -9.528 -22.000  0.00  0.00    +0.118 C 
ATOM      5  C   UNL     1      31.457  -8.073 -22.345  0.00  0.00    +0.113 C 
ATOM      6  C   UNL     1      32.457  -8.906 -19.767  0.00  0.00    +0.181 C 
ATOM      7  C   UNL     1      32.642  -7.480 -20.222  0.00  0.00    +0.244 C 
ENDROOT
BRANCH   2   8
ATOM      8  S   UNL     1      31.147 -11.257 -19.989  0.00  0.00    +0.069 S 
ATOM      9  O   UNL     1      29.745 -11.551 -20.207  0.00  0.00    -0.152 OA
ATOM     10  O   UNL     1      31.778 -11.443 -18.700  0.00  0.00    -0.152 OA
BRANCH   8  13
ATOM     11 CL   UNL     1      35.431 -17.310 -23.413  0.00  0.00    -0.082 Cl
ATOM     12  S   UNL     1      32.694 -13.715 -20.262  0.00  0.00    -0.067 S 
ATOM     13  C   UNL     1      32.023 -12.387 -21.064  0.00  0.00    +0.152 C 
ATOM     14  C   UNL     1      32.248 -12.378 -22.399  0.00  0.00    +0.027 C 
ATOM     15  C   UNL     1      33.015 -13.516 -22.820  0.00  0.00    +0.008 C 
ATOM     16  C   UNL     1      33.332 -14.341 -21.737  0.00  0.00    +0.032 C 
ATOM     17  C   UNL     1      33.469 -13.895 -24.106  0.00  0.00    +0.001 C 
ATOM     18  C   UNL     1      34.081 -15.522 -21.906  0.00  0.00    +0.018 C 
ATOM     19  C   UNL     1      34.212 -15.066 -24.277  0.00  0.00    +0.011 C 
ATOM     20  C   UNL     1      34.514 -15.869 -23.187  0.00  0.00    +0.058 C 
ENDBRANCH   8  13
ENDBRANCH   2   8
BRANCH   3  21
ATOM     21  C   UNL     1      32.436  -5.819 -22.039  0.00  0.00    +0.120 C 
BRANCH  21  22
ATOM     22  C   UNL     1      33.330  -5.855 -23.240  0.00  0.00    -0.002 C 
ATOM     23  C   UNL     1      33.043  -5.051 -24.339  0.00  0.00    +0.000 C 
ATOM     24  C   UNL     1      34.440  -6.694 -23.251  0.00  0.00    -0.003 C 
ATOM     25  C   UNL     1      33.875  -5.085 -25.458  0.00  0.00    +0.030 C 
ATOM     26  C   UNL     1      35.271  -6.728 -24.370  0.00  0.00    -0.000 C 
ATOM     27  C   UNL     1      34.989  -5.924 -25.474  0.00  0.00    +0.003 C 
BRANCH  25  30
ATOM     28  N   UNL     1      34.225  -4.439 -27.830  0.00  0.00    -0.343 N 
ATOM     29  N   UNL     1      32.689  -3.277 -26.507  0.00  0.00    -0.285 NA
ATOM     30  C   UNL     1      33.581  -4.246 -26.610  0.00  0.00    +0.117 C 
ATOM     31  H   UNL     1      34.011  -3.860 -28.597  0.00  0.00    +0.144 HD
ATOM     32  H   UNL     1      34.894  -5.154 -27.926  0.00  0.00    +0.144 HD
ATOM     33  H   UNL     1      32.488  -2.708 -27.285  0.00  0.00    +0.188 HD
ENDBRANCH  25  30
ENDBRANCH  21  22
ENDBRANCH   3  21
TORSDOF 5
ENDMDL
MODEL 3
REMARK VINA RESULT:     -11.2      8.198     11.560
REMARK  Name = 447359
REMARK  5 active torsions:
REMARK  status: ('A' for Active; 'I' for Inactive)
REMARK    1  A    between atoms: N_2  and  S_8
REMARK    2  A    between atoms: N_3  and  C_21
REMARK    3  A    between atoms: S_8  and  C_13
REMARK    4  A    between atoms: C_21  and  C_22
REMARK    5  A    between atoms: C_25  and  C_30
REMARK                            x       y       z     vdW  Elec       q    Type
REMARK                         _______ _______ _______ _____ _____    ______ ____
ROOT
ATOM      1  O   UNL     1      35.201  -9.349 -24.428  0.00  0.00    -0.273 OA
ATOM      2  N   UNL     1      32.839 -10.291 -21.852  0.00  0.00    -0.144 NA
ATOM      3  N   UNL     1      34.091  -8.013 -22.893  0.00  0.00    -0.273 N 
ATOM      4  C   UNL     1      32.154  -8.988 -21.704  0.00  0.00    +0.118 C 
ATOM      5  C   UNL     1      33.227  -7.920 -21.720  0.00  0.00    +0.113 C 
ATOM      6  C   UNL     1      33.503 -10.405 -23.165  0.00  0.00    +0.181 C 
ATOM      7  C   UNL     1      34.358  -9.219 -23.535  0.00  0.00    +0.244 C 
ENDROOT
BRANCH   2   8
ATOM      8  S   UNL     1      31.948 -11.664 -21.351  0.00  0.00    +0.069 S 
ATOM      9  O   UNL     1      30.680 -11.671 -22.051  0.00  0.00    -0.152 OA
ATOM     10  O   UNL     1      32.029 -11.782 -19.911  0.00  0.00    -0.152 OA
BRANCH   8  13
ATOM     11 CL   UNL     1      36.189 -18.567 -22.388  0.00  0.00    -0.082 Cl
ATOM     12  S   UNL     1      33.494 -14.059 -20.729  0.00  0.00    -0.067 S 
ATOM     13  C   UNL     1      32.810 -13.112 -21.952  0.00  0.00    +0.152 C 
ATOM     14  C   UNL     1      33.016 -13.591 -23.201  0.00  0.00    +0.027 C 
ATOM     15  C   UNL     1      33.778 -14.808 -23.188  0.00  0.00    +0.008 C 
ATOM     16  C   UNL     1      34.111 -15.183 -21.882  0.00  0.00    +0.032 C 
ATOM     17  C   UNL     1      34.213 -15.632 -24.252  0.00  0.00    +0.001 C 
ATOM     18  C   UNL     1      34.859 -16.347 -21.619  0.00  0.00    +0.018 C 
ATOM     19  C   UNL     1      34.955 -16.788 -23.995  0.00  0.00    +0.011 C 
ATOM     20  C   UNL     1      35.274 -17.139 -22.691  0.00  0.00    +0.058 C 
ENDBRANCH   8  13
ENDBRANCH   2   8
BRANCH   3  21
ATOM     21  C   UNL     1      34.857  -6.819 -23.224  0.00  0.00    +0.120 C 
BRANCH  21  22
ATOM     22  C   UNL     1      34.006  -5.883 -24.025  0.00  0.00    -0.002 C 
ATOM     23  C   UNL     1      32.897  -5.283 -23.436  0.00  0.00    +0.000 C 
ATOM     24  C   UNL     1      34.328  -5.621 -25.354  0.00  0.00    -0.003 C 
ATOM     25  C   UNL     1      32.103  -4.411 -24.182  0.00  0.00    +0.030 C 
ATOM     26  C   UNL     1      33.533  -4.750 -26.099  0.00  0.00    -0.000 C 
ATOM     27  C   UNL     1      32.421  -4.145 -25.514  0.00  0.00    +0.003 C 
BRANCH  25  30
ATOM     28  N   UNL     1      30.534  -4.110 -22.282  0.00  0.00    -0.343 N 
ATOM     29  N   UNL     1      30.255  -2.877 -24.248  0.00  0.00    -0.285 NA
ATOM     30  C   UNL     1      30.944  -3.780 -23.572  0.00  0.00    +0.117 C 
ATOM     31  H   UNL     1      29.746  -3.670 -21.888  0.00  0.00    +0.144 HD
ATOM     32  H   UNL     1      31.032  -4.782 -21.764  0.00  0.00    +0.144 HD
ATOM     33  H   UNL     1      29.470  -2.448 -23.836  0.00  0.00    +0.188 HD
ENDBRANCH  25  30
ENDBRANCH  21  22
ENDBRANCH   3  21
TORSDOF 5
ENDMDL
MODEL 4
REMARK VINA RESULT:     -11.0      9.885     14.154
REMARK  Name = 447359
REMARK  5 active torsions:
REMARK  status: ('A' for Active; 'I' for Inactive)
REMARK    1  A    between atoms: N_2  and  S_8
REMARK    2  A    between atoms: N_3  and  C_21
REMARK    3  A    between atoms: S_8  and  C_13
REMARK    4  A    between atoms: C_21  and  C_22
REMARK    5  A    between atoms: C_25  and  C_30
REMARK                            x       y       z     vdW  Elec       q    Type
REMARK                         _______ _______ _______ _____ _____    ______ ____
ROOT
ATOM      1  O   UNL     1      31.352 -11.441 -18.171  0.00  0.00    -0.273 OA
ATOM      2  N   UNL     1      32.231  -8.777 -20.459  0.00  0.00    -0.144 NA
ATOM      3  N   UNL     1      31.645 -11.515 -20.470  0.00  0.00    -0.273 N 
ATOM      4  C   UNL     1      31.679  -9.369 -21.698  0.00  0.00    +0.118 C 
ATOM      5  C   UNL     1      32.056 -10.835 -21.694  0.00  0.00    +0.113 C 
ATOM      6  C   UNL     1      31.599  -9.354 -19.257  0.00  0.00    +0.181 C 
ATOM      7  C   UNL     1      31.546 -10.861 -19.244  0.00  0.00    +0.244 C 
ENDROOT
BRANCH   2   8
ATOM      8  S   UNL     1      32.407  -7.075 -20.459  0.00  0.00    +0.069 S 
ATOM      9  O   UNL     1      33.439  -6.719 -19.506  0.00  0.00    -0.152 OA
ATOM     10  O   UNL     1      31.097  -6.462 -20.434  0.00  0.00    -0.152 OA
BRANCH   8  13
ATOM     11 CL   UNL     1      33.943  -4.031 -27.881  0.00  0.00    -0.082 Cl
ATOM     12  S   UNL     1      32.058  -5.591 -22.947  0.00  0.00    -0.067 S 
ATOM     13  C   UNL     1      33.074  -6.603 -22.051  0.00  0.00    +0.152 C 
ATOM     14  C   UNL     1      34.238  -6.905 -22.672  0.00  0.00    +0.027 C 
ATOM     15  C   UNL     1      34.333  -6.283 -23.962  0.00  0.00    +0.008 C 
ATOM     16  C   UNL     1      33.193  -5.525 -24.243  0.00  0.00    +0.032 C 
ATOM     17  C   UNL     1      35.362  -6.329 -24.932  0.00  0.00    +0.001 C 
ATOM     18  C   UNL     1      33.057  -4.820 -25.456  0.00  0.00    +0.018 C 
ATOM     19  C   UNL     1      35.232  -5.632 -26.136  0.00  0.00    +0.011 C 
ATOM     20  C   UNL     1      34.090  -4.886 -26.393  0.00  0.00    +0.058 C 
ENDBRANCH   8  13
ENDBRANCH   2   8
BRANCH   3  21
ATOM     21  C   UNL     1      31.570 -12.968 -20.535  0.00  0.00    +0.120 C 
BRANCH  21  22
ATOM     22  C   UNL     1      32.650 -13.487 -21.433  0.00  0.00    -0.002 C 
ATOM     23  C   UNL     1      32.492 -13.418 -22.814  0.00  0.00    +0.000 C 
ATOM     24  C   UNL     1      33.804 -14.035 -20.882  0.00  0.00    -0.003 C 
ATOM     25  C   UNL     1      33.497 -13.902 -23.651  0.00  0.00    +0.030 C 
ATOM     26  C   UNL     1      34.809 -14.519 -21.719  0.00  0.00    -0.000 C 
ATOM     27  C   UNL     1      34.656 -14.453 -23.104  0.00  0.00    +0.003 C 
BRANCH  25  30
ATOM     28  N   UNL     1      33.770 -12.725 -25.820  0.00  0.00    -0.343 N 
ATOM     29  N   UNL     1      32.770 -14.836 -25.743  0.00  0.00    -0.285 NA
ATOM     30  C   UNL     1      33.338 -13.833 -25.096  0.00  0.00    +0.117 C 
ATOM     31  H   UNL     1      33.652 -12.699 -26.797  0.00  0.00    +0.144 HD
ATOM     32  H   UNL     1      34.192 -11.967 -25.356  0.00  0.00    +0.144 HD
ATOM     33  H   UNL     1      32.661 -14.791 -26.721  0.00  0.00    +0.188 HD
ENDBRANCH  25  30
ENDBRANCH  21  22
ENDBRANCH   3  21
TORSDOF 5
ENDMDL
MODEL 5
REMARK VINA RESULT:     -11.0      4.315      9.952
REMARK  Name = 447359
REMARK  5 active torsions:
REMARK  status: ('A' for Active; 'I' for Inactive)
REMARK    1  A    between atoms: N_2  and  S_8
REMARK    2  A    between atoms: N_3  and  C_21
REMARK    3  A    between atoms: S_8  and  C_13
REMARK    4  A    between atoms: C_21  and  C_22
REMARK    5  A    between atoms: C_25  and  C_30
REMARK                            x       y       z     vdW  Elec       q    Type
REMARK                         _______ _______ _______ _____ _____    ______ ____
ROOT
ATOM      1  O   UNL     1      32.351 -20.921 -19.221  0.00  0.00    -0.273 OA
ATOM      2  N   UNL     1      35.574 -19.916 -20.526  0.00  0.00    -0.144 NA
ATOM      3  N   UNL     1      34.439 -21.863 -18.865  0.00  0.00    -0.273 N 
ATOM      4  C   UNL     1      36.273 -21.213 -20.391  0.00  0.00    +0.118 C 
ATOM      5  C   UNL     1      35.886 -21.786 -19.045  0.00  0.00    +0.113 C 
ATOM      6  C   UNL     1      34.110 -20.093 -20.568  0.00  0.00    +0.181 C 
ATOM      7  C   UNL     1      33.558 -20.975 -19.476  0.00  0.00    +0.244 C 
ENDROOT
BRANCH   2   8
ATOM      8  S   UNL     1      36.223 -18.835 -21.684  0.00  0.00    +0.069 S 
ATOM      9  O   UNL     1      35.916 -19.339 -23.007  0.00  0.00    -0.152 OA
ATOM     10  O   UNL     1      37.568 -18.473 -21.294  0.00  0.00    -0.152 OA
BRANCH   8  13
ATOM     11 CL   UNL     1      32.588 -11.601 -22.766  0.00  0.00    -0.082 Cl
ATOM     12  S   UNL     1      35.346 -16.364 -22.964  0.00  0.00    -0.067 S 
ATOM     13  C   UNL     1      35.310 -17.301 -21.558  0.00  0.00    +0.152 C 
ATOM     14  C   UNL     1      34.597 -16.751 -20.547  0.00  0.00    +0.027 C 
ATOM     15  C   UNL     1      34.033 -15.484 -20.919  0.00  0.00    +0.008 C 
ATOM     16  C   UNL     1      34.369 -15.146 -22.233  0.00  0.00    +0.032 C 
ATOM     17  C   UNL     1      33.230 -14.583 -20.180  0.00  0.00    +0.001 C 
ATOM     18  C   UNL     1      33.928 -13.944 -22.820  0.00  0.00    +0.018 C 
ATOM     19  C   UNL     1      32.790 -13.389 -20.759  0.00  0.00    +0.011 C 
ATOM     20  C   UNL     1      33.138 -13.075 -22.065  0.00  0.00    +0.058 C 
ENDBRANCH   8  13
ENDBRANCH   2   8
BRANCH   3  21
ATOM     21  C   UNL     1      33.967 -22.766 -17.824  0.00  0.00    +0.120 C 
BRANCH  21  22
ATOM     22  C   UNL     1      34.959 -22.801 -16.702  0.00  0.00    -0.002 C 
ATOM     23  C   UNL     1      34.639 -23.459 -15.518  0.00  0.00    +0.000 C 
ATOM     24  C   UNL     1      36.193 -22.175 -16.851  0.00  0.00    -0.003 C 
ATOM     25  C   UNL     1      35.563 -23.491 -14.473  0.00  0.00    +0.030 C 
ATOM     26  C   UNL     1      37.116 -22.207 -15.805  0.00  0.00    -0.000 C 
ATOM     27  C   UNL     1      36.801 -22.865 -14.616  0.00  0.00    +0.003 C 
BRANCH  25  30
ATOM     28  N   UNL     1      35.883 -25.354 -12.862  0.00  0.00    -0.343 N 
ATOM     29  N   UNL     1      34.303 -23.685 -12.436  0.00  0.00    -0.285 NA
ATOM     30  C   UNL     1      35.235 -24.177 -13.233  0.00  0.00    +0.117 C 
ATOM     31  H   UNL     1      35.646 -25.801 -12.018  0.00  0.00    +0.144 HD
ATOM     32  H   UNL     1      36.578 -25.737 -13.444  0.00  0.00    +0.144 HD
ATOM     33  H   UNL     1      34.080 -24.147 -11.595  0.00  0.00    +0.188 HD
ENDBRANCH  25  30
ENDBRANCH  21  22
ENDBRANCH   3  21
TORSDOF 5
ENDMDL
MODEL 6
REMARK VINA RESULT:     -10.7      3.507      5.574
REMARK  Name = 447359
REMARK  5 active torsions:
REMARK  status: ('A' for Active; 'I' for Inactive)
REMARK    1  A    between atoms: N_2  and  S_8
REMARK    2  A    between atoms: N_3  and  C_21
REMARK    3  A    between atoms: S_8  and  C_13
REMARK    4  A    between atoms: C_21  and  C_22
REMARK    5  A    between atoms: C_25  and  C_30
REMARK                            x       y       z     vdW  Elec       q    Type
REMARK                         _______ _______ _______ _____ _____    ______ ____
ROOT
ATOM      1  O   UNL     1      33.717 -14.887 -19.930  0.00  0.00    -0.273 OA
ATOM      2  N   UNL     1      34.910 -17.311 -22.339  0.00  0.00    -0.144 NA
ATOM      3  N   UNL     1      33.699 -14.789 -22.246  0.00  0.00    -0.273 N 
ATOM      4  C   UNL     1      35.120 -16.393 -23.480  0.00  0.00    +0.118 C 
ATOM      5  C   UNL     1      33.928 -15.460 -23.522  0.00  0.00    +0.113 C 
ATOM      6  C   UNL     1      34.919 -16.586 -21.054  0.00  0.00    +0.181 C 
ATOM      7  C   UNL     1      34.039 -15.362 -21.023  0.00  0.00    +0.244 C 
ENDROOT
BRANCH   2   8
ATOM      8  S   UNL     1      35.812 -18.765 -22.375  0.00  0.00    +0.069 S 
ATOM      9  O   UNL     1      37.176 -18.471 -21.987  0.00  0.00    -0.152 OA
ATOM     10  O   UNL     1      35.499 -19.488 -23.590  0.00  0.00    -0.152 OA
BRANCH   8  13
ATOM     11 CL   UNL     1      34.648 -23.846 -16.087  0.00  0.00    -0.082 Cl
ATOM     12  S   UNL     1      36.391 -20.560 -20.149  0.00  0.00    -0.067 S 
ATOM     13  C   UNL     1      35.184 -19.820 -21.073  0.00  0.00    +0.152 C 
ATOM     14  C   UNL     1      33.925 -20.136 -20.690  0.00  0.00    +0.027 C 
ATOM     15  C   UNL     1      33.916 -21.037 -19.573  0.00  0.00    +0.008 C 
ATOM     16  C   UNL     1      35.216 -21.356 -19.170  0.00  0.00    +0.032 C 
ATOM     17  C   UNL     1      32.834 -21.613 -18.865  0.00  0.00    +0.001 C 
ATOM     18  C   UNL     1      35.458 -22.227 -18.089  0.00  0.00    +0.018 C 
ATOM     19  C   UNL     1      33.071 -22.477 -17.793  0.00  0.00    +0.011 C 
ATOM     20  C   UNL     1      34.371 -22.780 -17.411  0.00  0.00    +0.058 C 
ENDBRANCH   8  13
ENDBRANCH   2   8
BRANCH   3  21
ATOM     21  C   UNL     1      32.877 -13.586 -22.290  0.00  0.00    +0.120 C 
BRANCH  21  22
ATOM     22  C   UNL     1      33.488 -12.595 -23.231  0.00  0.00    -0.002 C 
ATOM     23  C   UNL     1      33.621 -11.265 -22.843  0.00  0.00    +0.000 C 
ATOM     24  C   UNL     1      33.919 -13.010 -24.488  0.00  0.00    -0.003 C 
ATOM     25  C   UNL     1      34.189 -10.341 -23.721  0.00  0.00    +0.030 C 
ATOM     26  C   UNL     1      34.486 -12.085 -25.365  0.00  0.00    -0.000 C 
ATOM     27  C   UNL     1      34.622 -10.751 -24.982  0.00  0.00    +0.003 C 
BRANCH  25  30
ATOM     28  N   UNL     1      33.331  -8.296 -22.603  0.00  0.00    -0.343 N 
ATOM     29  N   UNL     1      35.424  -8.281 -23.644  0.00  0.00    -0.285 NA
ATOM     30  C   UNL     1      34.330  -8.950 -23.321  0.00  0.00    +0.117 C 
ATOM     31  H   UNL     1      33.447  -7.354 -22.343  0.00  0.00    +0.144 HD
ATOM     32  H   UNL     1      32.508  -8.777 -22.356  0.00  0.00    +0.144 HD
ATOM     33  H   UNL     1      35.521  -7.339 -23.374  0.00  0.00    +0.188 HD
ENDBRANCH  25  30
ENDBRANCH  21  22
ENDBRANCH   3  21
TORSDOF 5
ENDMDL
MODEL 7
REMARK VINA RESULT:     -10.6      9.608     14.321
REMARK  Name = 447359
REMARK  5 active torsions:
REMARK  status: ('A' for Active; 'I' for Inactive)
REMARK    1  A    between atoms: N_2  and  S_8
REMARK    2  A    between atoms: N_3  and  C_21
REMARK    3  A    between atoms: S_8  and  C_13
REMARK    4  A    between atoms: C_21  and  C_22
REMARK    5  A    between atoms: C_25  and  C_30
REMARK                            x       y       z     vdW  Elec       q    Type
REMARK                         _______ _______ _______ _____ _____    ______ ____
ROOT
ATOM      1  O   UNL     1      31.570 -11.425 -18.261  0.00  0.00    -0.273 OA
ATOM      2  N   UNL     1      32.228  -8.705 -20.556  0.00  0.00    -0.144 NA
ATOM      3  N   UNL     1      31.679 -11.450 -20.576  0.00  0.00    -0.273 N 
ATOM      4  C   UNL     1      31.586  -9.280 -21.758  0.00  0.00    +0.118 C 
ATOM      5  C   UNL     1      31.981 -10.740 -21.815  0.00  0.00    +0.113 C 
ATOM      6  C   UNL     1      31.702  -9.314 -19.320  0.00  0.00    +0.181 C 
ATOM      7  C   UNL     1      31.670 -10.822 -19.334  0.00  0.00    +0.244 C 
ENDROOT
BRANCH   2   8
ATOM      8  S   UNL     1      32.381  -7.000 -20.535  0.00  0.00    +0.069 S 
ATOM      9  O   UNL     1      33.405  -6.641 -19.575  0.00  0.00    -0.152 OA
ATOM     10  O   UNL     1      31.062  -6.405 -20.507  0.00  0.00    -0.152 OA
BRANCH   8  13
ATOM     11 CL   UNL     1      33.924  -3.800 -27.890  0.00  0.00    -0.082 Cl
ATOM     12  S   UNL     1      32.041  -5.450 -22.983  0.00  0.00    -0.067 S 
ATOM     13  C   UNL     1      33.046  -6.500 -22.119  0.00  0.00    +0.152 C 
ATOM     14  C   UNL     1      34.201  -6.805 -22.754  0.00  0.00    +0.027 C 
ATOM     15  C   UNL     1      34.299  -6.154 -24.029  0.00  0.00    +0.008 C 
ATOM     16  C   UNL     1      33.169  -5.370 -24.285  0.00  0.00    +0.032 C 
ATOM     17  C   UNL     1      35.322  -6.192 -25.007  0.00  0.00    +0.001 C 
ATOM     18  C   UNL     1      33.039  -4.634 -25.479  0.00  0.00    +0.018 C 
ATOM     19  C   UNL     1      35.196  -5.463 -26.192  0.00  0.00    +0.011 C 
ATOM     20  C   UNL     1      34.065  -4.694 -26.424  0.00  0.00    +0.058 C 
ENDBRANCH   8  13
ENDBRANCH   2   8
BRANCH   3  21
ATOM     21  C   UNL     1      31.618 -12.903 -20.665  0.00  0.00    +0.120 C 
BRANCH  21  22
ATOM     22  C   UNL     1      32.689 -13.394 -21.590  0.00  0.00    -0.002 C 
ATOM     23  C   UNL     1      33.326 -14.603 -21.327  0.00  0.00    +0.000 C 
ATOM     24  C   UNL     1      33.041 -12.638 -22.704  0.00  0.00    -0.003 C 
ATOM     25  C   UNL     1      34.325 -15.060 -22.187  0.00  0.00    +0.030 C 
ATOM     26  C   UNL     1      34.040 -13.096 -23.563  0.00  0.00    -0.000 C 
ATOM     27  C   UNL     1      34.682 -14.307 -23.305  0.00  0.00    +0.003 C 
BRANCH  25  30
ATOM     28  N   UNL     1      35.731 -16.977 -22.904  0.00  0.00    -0.343 N 
ATOM     29  N   UNL     1      34.908 -16.872 -20.719  0.00  0.00    -0.285 NA
ATOM     30  C   UNL     1      34.995 -16.323 -21.918  0.00  0.00    +0.117 C 
ATOM     31  H   UNL     1      36.177 -17.831 -22.700  0.00  0.00    +0.144 HD
ATOM     32  H   UNL     1      35.805 -16.586 -23.804  0.00  0.00    +0.144 HD
ATOM     33  H   UNL     1      35.361 -17.727 -20.535  0.00  0.00    +0.188 HD
ENDBRANCH  25  30
ENDBRANCH  21  22
ENDBRANCH   3  21
TORSDOF 5
ENDMDL
MODEL 8
REMARK VINA RESULT:     -10.4      8.145     11.425
REMARK  Name = 447359
REMARK  5 active torsions:
REMARK  status: ('A' for Active; 'I' for Inactive)
REMARK    1  A    between atoms: N_2  and  S_8
REMARK    2  A    between atoms: N_3  and  C_21
REMARK    3  A    between atoms: S_8  and  C_13
REMARK    4  A    between atoms: C_21  and  C_22
REMARK    5  A    between atoms: C_25  and  C_30
REMARK                            x       y       z     vdW  Elec       q    Type
REMARK                         _______ _______ _______ _____ _____    ______ ____
ROOT
ATOM      1  O   UNL     1      35.410  -9.372 -24.482  0.00  0.00    -0.273 OA
ATOM      2  N   UNL     1      32.944 -10.181 -21.959  0.00  0.00    -0.144 NA
ATOM      3  N   UNL     1      34.343  -7.976 -22.969  0.00  0.00    -0.273 N 
ATOM      4  C   UNL     1      32.330  -8.841 -21.824  0.00  0.00    +0.118 C 
ATOM      5  C   UNL     1      33.460  -7.835 -21.815  0.00  0.00    +0.113 C 
ATOM      6  C   UNL     1      33.629 -10.332 -23.257  0.00  0.00    +0.181 C 
ATOM      7  C   UNL     1      34.556  -9.196 -23.607  0.00  0.00    +0.244 C 
ENDROOT
BRANCH   2   8
ATOM      8  S   UNL     1      31.967 -11.502 -21.478  0.00  0.00    +0.069 S 
ATOM      9  O   UNL     1      30.753 -11.488 -22.268  0.00  0.00    -0.152 OA
ATOM     10  O   UNL     1      31.941 -11.572 -20.033  0.00  0.00    -0.152 OA
BRANCH   8  13
ATOM     11 CL   UNL     1      36.046 -18.561 -21.980  0.00  0.00    -0.082 Cl
ATOM     12  S   UNL     1      33.411 -13.905 -20.670  0.00  0.00    -0.067 S 
ATOM     13  C   UNL     1      32.813 -13.001 -21.967  0.00  0.00    +0.152 C 
ATOM     14  C   UNL     1      33.063 -13.546 -23.180  0.00  0.00    +0.027 C 
ATOM     15  C   UNL     1      33.786 -14.781 -23.073  0.00  0.00    +0.008 C 
ATOM     16  C   UNL     1      34.047 -15.100 -21.737  0.00  0.00    +0.032 C 
ATOM     17  C   UNL     1      34.246 -15.668 -24.075  0.00  0.00    +0.001 C 
ATOM     18  C   UNL     1      34.748 -16.270 -21.382  0.00  0.00    +0.018 C 
ATOM     19  C   UNL     1      34.941 -16.830 -23.727  0.00  0.00    +0.011 C 
ATOM     20  C   UNL     1      35.188 -17.125 -22.394  0.00  0.00    +0.058 C 
ENDBRANCH   8  13
ENDBRANCH   2   8
BRANCH   3  21
ATOM     21  C   UNL     1      35.182  -6.827 -23.283  0.00  0.00    +0.120 C 
BRANCH  21  22
ATOM     22  C   UNL     1      34.529  -6.006 -24.352  0.00  0.00    -0.002 C 
ATOM     23  C   UNL     1      35.264  -5.612 -25.465  0.00  0.00    +0.000 C 
ATOM     24  C   UNL     1      33.192  -5.642 -24.223  0.00  0.00    -0.003 C 
ATOM     25  C   UNL     1      34.656  -4.846 -26.461  0.00  0.00    +0.030 C 
ATOM     26  C   UNL     1      32.585  -4.876 -25.218  0.00  0.00    -0.000 C 
ATOM     27  C   UNL     1      33.316  -4.478 -26.337  0.00  0.00    +0.003 C 
BRANCH  25  30
ATOM     28  N   UNL     1      35.008  -3.361 -28.419  0.00  0.00    -0.343 N 
ATOM     29  N   UNL     1      36.524  -5.078 -27.955  0.00  0.00    -0.285 NA
ATOM     30  C   UNL     1      35.419  -4.431 -27.628  0.00  0.00    +0.117 C 
ATOM     31  H   UNL     1      35.539  -3.097 -29.205  0.00  0.00    +0.144 HD
ATOM     32  H   UNL     1      34.186  -2.869 -28.194  0.00  0.00    +0.144 HD
ATOM     33  H   UNL     1      37.042  -4.798 -28.744  0.00  0.00    +0.188 HD
ENDBRANCH  25  30
ENDBRANCH  21  22
ENDBRANCH   3  21
TORSDOF 5
ENDMDL
MODEL 9
REMARK VINA RESULT:     -10.4      3.523      5.742
REMARK  Name = 447359
REMARK  5 active torsions:
REMARK  status: ('A' for Active; 'I' for Inactive)
REMARK    1  A    between atoms: N_2  and  S_8
REMARK    2  A    between atoms: N_3  and  C_21
REMARK    3  A    between atoms: S_8  and  C_13
REMARK    4  A    between atoms: C_21  and  C_22
REMARK    5  A    between atoms: C_25  and  C_30
REMARK                            x       y       z     vdW  Elec       q    Type
REMARK                         _______ _______ _______ _____ _____    ______ ____
ROOT
ATOM      1  O   UNL     1      33.851 -15.837 -25.310  0.00  0.00    -0.273 OA
ATOM      2  N   UNL     1      35.776 -17.225 -22.576  0.00  0.00    -0.144 NA
ATOM      3  N   UNL     1      34.051 -15.089 -23.125  0.00  0.00    -0.273 N 
ATOM      4  C   UNL     1      35.004 -16.645 -21.455  0.00  0.00    +0.118 C 
ATOM      5  C   UNL     1      34.702 -15.208 -21.823  0.00  0.00    +0.113 C 
ATOM      6  C   UNL     1      34.972 -17.285 -23.812  0.00  0.00    +0.181 C 
ATOM      7  C   UNL     1      34.265 -15.998 -24.157  0.00  0.00    +0.244 C 
ENDROOT
BRANCH   2   8
ATOM      8  S   UNL     1      36.680 -18.632 -22.211  0.00  0.00    +0.069 S 
ATOM      9  O   UNL     1      37.842 -18.245 -21.438  0.00  0.00    -0.152 OA
ATOM     10  O   UNL     1      36.787 -19.449 -23.400  0.00  0.00    -0.152 OA
BRANCH   8  13
ATOM     11 CL   UNL     1      33.762 -23.736 -16.541  0.00  0.00    -0.082 Cl
ATOM     12  S   UNL     1      36.613 -20.604 -20.062  0.00  0.00    -0.067 S 
ATOM     13  C   UNL     1      35.698 -19.625 -21.092  0.00  0.00    +0.152 C 
ATOM     14  C   UNL     1      34.361 -19.740 -20.917  0.00  0.00    +0.027 C 
ATOM     15  C   UNL     1      34.035 -20.679 -19.882  0.00  0.00    +0.008 C 
ATOM     16  C   UNL     1      35.189 -21.234 -19.321  0.00  0.00    +0.032 C 
ATOM     17  C   UNL     1      32.780 -21.096 -19.379  0.00  0.00    +0.001 C 
ATOM     18  C   UNL     1      35.120 -22.185 -18.284  0.00  0.00    +0.018 C 
ATOM     19  C   UNL     1      32.707 -22.038 -18.350  0.00  0.00    +0.011 C 
ATOM     20  C   UNL     1      33.867 -22.576 -17.810  0.00  0.00    +0.058 C 
ENDBRANCH   8  13
ENDBRANCH   2   8
BRANCH   3  21
ATOM     21  C   UNL     1      33.347 -13.840 -23.381  0.00  0.00    +0.120 C 
BRANCH  21  22
ATOM     22  C   UNL     1      32.799 -13.300 -22.095  0.00  0.00    -0.002 C 
ATOM     23  C   UNL     1      32.598 -11.931 -21.951  0.00  0.00    +0.000 C 
ATOM     24  C   UNL     1      32.495 -14.172 -21.053  0.00  0.00    -0.003 C 
ATOM     25  C   UNL     1      32.089 -11.428 -20.754  0.00  0.00    +0.030 C 
ATOM     26  C   UNL     1      31.986 -13.668 -19.856  0.00  0.00    -0.000 C 
ATOM     27  C   UNL     1      31.783 -12.297 -19.706  0.00  0.00    +0.003 C 
BRANCH  25  30
ATOM     28  N   UNL     1      31.986  -9.381 -19.352  0.00  0.00    -0.343 N 
ATOM     29  N   UNL     1      31.569  -9.259 -21.649  0.00  0.00    -0.285 NA
ATOM     30  C   UNL     1      31.876  -9.997 -20.597  0.00  0.00    +0.117 C 
ATOM     31  H   UNL     1      31.838  -8.411 -19.268  0.00  0.00    +0.144 HD
ATOM     32  H   UNL     1      32.211  -9.914 -18.557  0.00  0.00    +0.144 HD
ATOM     33  H   UNL     1      31.426  -8.290 -21.544  0.00  0.00    +0.188 HD
ENDBRANCH  25  30
ENDBRANCH  21  22
ENDBRANCH   3  21
TORSDOF 5
ENDMDL
