MODEL 1
REMARK VINA RESULT:     -12.3      0.000      0.000
REMARK  Name = 9826451
REMARK  9 active torsions:
REMARK  status: ('A' for Active; 'I' for Inactive)
REMARK    1  A    between atoms: C_1  and  N_2
REMARK    2  A    between atoms: C_1  and  C_19
REMARK    3  A    between atoms: C_8  and  O_10
REMARK    4  A    between atoms: O_10  and  C_11
REMARK    5  A    between atoms: C_14  and  O_17
REMARK    6  A    between atoms: C_19  and  O_20
REMARK    7  A    between atoms: O_20  and  C_24
REMARK    8  A    between atoms: C_21  and  C_27
REMARK    9  A    between atoms: C_27  and  C_32
REMARK                            x       y       z     vdW  Elec       q    Type
REMARK                         _______ _______ _______ _____ _____    ______ ____
ROOT
ATOM      1  C   UNL     1      36.221 -22.044 -17.336  0.00  0.00    +0.139 C 
ENDROOT
BRANCH   1   2
ATOM      2  N   UNL     1      35.042 -22.703 -16.826  0.00  0.00    -0.291 N 
ATOM      3  C   UNL     1      33.892 -22.867 -17.716  0.00  0.00    +0.113 C 
ATOM      4  N   UNL     1      36.054 -23.008 -14.707  0.00  0.00    -0.233 NA
ATOM      5  N   UNL     1      34.824 -24.094 -12.943  0.00  0.00    -0.214 NA
ATOM      6  C   UNL     1      34.980 -23.171 -15.507  0.00  0.00    +0.115 C 
ATOM      7  C   UNL     1      33.807 -23.777 -15.102  0.00  0.00    +0.146 C 
ATOM      8  C   UNL     1      33.787 -24.223 -13.796  0.00  0.00    +0.210 C 
ATOM      9  C   UNL     1      35.909 -23.486 -13.456  0.00  0.00    +0.254 C 
BRANCH   8  10
ATOM     10  O   UNL     1      32.659 -24.836 -13.318  0.00  0.00    -0.440 OA
BRANCH  10  11
ATOM     11  C   UNL     1      31.450 -24.458 -13.866  0.00  0.00    +0.147 C 
ATOM     12  C   UNL     1      31.175 -23.109 -14.087  0.00  0.00    +0.041 C 
ATOM     13  C   UNL     1      30.502 -25.427 -14.201  0.00  0.00    +0.041 C 
ATOM     14  C   UNL     1      29.007 -23.695 -14.976  0.00  0.00    +0.139 C 
ATOM     15  C   UNL     1      29.954 -22.727 -14.642  0.00  0.00    +0.040 C 
ATOM     16  C   UNL     1      29.282 -25.045 -14.757  0.00  0.00    +0.040 C 
BRANCH  14  17
ATOM     17  O   UNL     1      27.815 -23.323 -15.519  0.00  0.00    -0.471 OA
ATOM     18  C   UNL     1      27.830 -22.870 -16.872  0.00  0.00    +0.252 C 
ENDBRANCH  14  17
ENDBRANCH  10  11
ENDBRANCH   8  10
ENDBRANCH   1   2
BRANCH   1  19
ATOM     19  C   UNL     1      36.088 -21.824 -18.834  0.00  0.00    +0.227 C 
BRANCH  19  20
ATOM     20  O   UNL     1      36.771 -20.627 -19.200  0.00  0.00    -0.474 OA
BRANCH  20  24
ATOM     21  C   UNL     1      35.407 -18.624 -22.570  0.00  0.00    -0.021 C 
ATOM     22  C   UNL     1      34.552 -19.475 -21.871  0.00  0.00    -0.001 C 
ATOM     23  C   UNL     1      36.721 -18.445 -22.136  0.00  0.00    -0.001 C 
ATOM     24  C   UNL     1      36.324 -19.970 -20.305  0.00  0.00    +0.139 C 
ATOM     25  C   UNL     1      35.010 -20.149 -20.739  0.00  0.00    +0.037 C 
ATOM     26  C   UNL     1      37.179 -19.119 -21.005  0.00  0.00    +0.037 C 
BRANCH  21  27
ATOM     27  C   UNL     1      34.912 -17.896 -23.793  0.00  0.00    +0.047 C 
BRANCH  27  32
ATOM     28  S   UNL     1      34.616 -15.748 -22.095  0.00  0.00    -0.048 S 
ATOM     29  O   UNL     1      34.448 -15.861 -25.949  0.00  0.00    -0.274 OA
ATOM     30  O   UNL     1      32.870 -13.784 -22.138  0.00  0.00    -0.263 OA
ATOM     31  N   UNL     1      33.554 -14.692 -24.164  0.00  0.00    -0.246 N 
ATOM     32  C   UNL     1      35.160 -16.401 -23.703  0.00  0.00    +0.137 C 
ATOM     33  C   UNL     1      34.366 -15.645 -24.744  0.00  0.00    +0.239 C 
ATOM     34  C   UNL     1      33.531 -14.570 -22.800  0.00  0.00    +0.279 C 
ATOM     35  H   UNL     1      32.997 -14.107 -24.725  0.00  0.00    +0.158 HD
ENDBRANCH  27  32
ENDBRANCH  21  27
ENDBRANCH  20  24
ENDBRANCH  19  20
ENDBRANCH   1  19
TORSDOF 9
ENDMDL
MODEL 2
REMARK VINA RESULT:     -12.0      5.753     10.131
REMARK  Name = 9826451
REMARK  9 active torsions:
REMARK  status: ('A' for Active; 'I' for Inactive)
REMARK    1  A    between atoms: C_1  and  N_2
REMARK    2  A    between atoms: C_1  and  C_19
REMARK    3  A    between atoms: C_8  and  O_10
REMARK    4  A    between atoms: O_10  and  C_11
REMARK    5  A    between atoms: C_14  and  O_17
REMARK    6  A    between atoms: C_19  and  O_20
REMARK    7  A    between atoms: O_20  and  C_24
REMARK    8  A    between atoms: C_21  and  C_27
REMARK    9  A    between atoms: C_27  and  C_32
REMARK                            x       y       z     vdW  Elec       q    Type
REMARK                         _______ _______ _______ _____ _____    ______ ____
ROOT
ATOM      1  C   UNL     1      33.815 -14.123 -23.559  0.00  0.00    +0.139 C 
ENDROOT
BRANCH   1   2
ATOM      2  N   UNL     1      34.386 -14.994 -22.559  0.00  0.00    -0.291 N 
ATOM      3  C   UNL     1      34.572 -14.475 -21.203  0.00  0.00    +0.113 C 
ATOM      4  N   UNL     1      34.589 -16.760 -24.124  0.00  0.00    -0.233 NA
ATOM      5  N   UNL     1      35.533 -18.865 -23.432  0.00  0.00    -0.214 NA
ATOM      6  C   UNL     1      34.772 -16.305 -22.867  0.00  0.00    +0.115 C 
ATOM      7  C   UNL     1      35.321 -17.061 -21.851  0.00  0.00    +0.146 C 
ATOM      8  C   UNL     1      35.687 -18.347 -22.196  0.00  0.00    +0.210 C 
ATOM      9  C   UNL     1      34.987 -18.029 -24.334  0.00  0.00    +0.254 C 
BRANCH   8  10
ATOM     10  O   UNL     1      36.240 -19.162 -21.243  0.00  0.00    -0.440 OA
BRANCH  10  11
ATOM     11  C   UNL     1      35.388 -20.005 -20.557  0.00  0.00    +0.147 C 
ATOM     12  C   UNL     1      34.007 -19.855 -20.682  0.00  0.00    +0.041 C 
ATOM     13  C   UNL     1      35.910 -21.010 -19.741  0.00  0.00    +0.041 C 
ATOM     14  C   UNL     1      33.669 -21.711 -19.173  0.00  0.00    +0.139 C 
ATOM     15  C   UNL     1      33.148 -20.708 -19.990  0.00  0.00    +0.040 C 
ATOM     16  C   UNL     1      35.051 -21.863 -19.050  0.00  0.00    +0.040 C 
BRANCH  14  17
ATOM     17  O   UNL     1      32.830 -22.544 -18.499  0.00  0.00    -0.471 OA
ATOM     18  C   UNL     1      33.372 -23.247 -17.381  0.00  0.00    +0.252 C 
ENDBRANCH  14  17
ENDBRANCH  10  11
ENDBRANCH   8  10
ENDBRANCH   1   2
BRANCH   1  19
ATOM     19  C   UNL     1      33.634 -12.726 -22.990  0.00  0.00    +0.227 C 
BRANCH  19  20
ATOM     20  O   UNL     1      34.221 -11.773 -23.875  0.00  0.00    -0.474 OA
BRANCH  20  24
ATOM     21  C   UNL     1      33.583  -7.761 -23.028  0.00  0.00    -0.021 C 
ATOM     22  C   UNL     1      32.615  -8.706 -22.692  0.00  0.00    -0.001 C 
ATOM     23  C   UNL     1      34.766  -8.163 -23.649  0.00  0.00    -0.001 C 
ATOM     24  C   UNL     1      34.011 -10.457 -23.597  0.00  0.00    +0.139 C 
ATOM     25  C   UNL     1      32.829 -10.055 -22.977  0.00  0.00    +0.037 C 
ATOM     26  C   UNL     1      34.979  -9.511 -23.934  0.00  0.00    +0.037 C 
BRANCH  21  27
ATOM     27  C   UNL     1      33.352  -6.304 -22.721  0.00  0.00    +0.047 C 
BRANCH  27  32
ATOM     28  S   UNL     1      32.311  -4.354 -24.365  0.00  0.00    -0.048 S 
ATOM     29  O   UNL     1      30.727  -6.059 -21.286  0.00  0.00    -0.274 OA
ATOM     30  O   UNL     1      30.975  -2.171 -23.766  0.00  0.00    -0.263 OA
ATOM     31  N   UNL     1      30.708  -4.033 -22.403  0.00  0.00    -0.246 N 
ATOM     32  C   UNL     1      32.040  -5.803 -23.299  0.00  0.00    +0.137 C 
ATOM     33  C   UNL     1      31.095  -5.343 -22.211  0.00  0.00    +0.239 C 
ATOM     34  C   UNL     1      31.215  -3.330 -23.463  0.00  0.00    +0.279 C 
ATOM     35  H   UNL     1      30.073  -3.608 -21.782  0.00  0.00    +0.158 HD
ENDBRANCH  27  32
ENDBRANCH  21  27
ENDBRANCH  20  24
ENDBRANCH  19  20
ENDBRANCH   1  19
TORSDOF 9
ENDMDL
MODEL 3
REMARK VINA RESULT:     -11.9      2.525      5.042
REMARK  Name = 9826451
REMARK  9 active torsions:
REMARK  status: ('A' for Active; 'I' for Inactive)
REMARK    1  A    between atoms: C_1  and  N_2
REMARK    2  A    between atoms: C_1  and  C_19
REMARK    3  A    between atoms: C_8  and  O_10
REMARK    4  A    between atoms: O_10  and  C_11
REMARK    5  A    between atoms: C_14  and  O_17
REMARK    6  A    between atoms: C_19  and  O_20
REMARK    7  A    between atoms: O_20  and  C_24
REMARK    8  A    between atoms: C_21  and  C_27
REMARK    9  A    between atoms: C_27  and  C_32
REMARK                            x       y       z     vdW  Elec       q    Type
REMARK                         _______ _______ _______ _____ _____    ______ ____
ROOT
ATOM      1  C   UNL     1      33.567 -22.014 -19.536  0.00  0.00    +0.139 C 
ENDROOT
BRANCH   1   2
ATOM      2  N   UNL     1      34.334 -22.280 -18.342  0.00  0.00    -0.291 N 
ATOM      3  C   UNL     1      35.775 -22.024 -18.365  0.00  0.00    +0.113 C 
ATOM      4  N   UNL     1      32.400 -23.012 -17.188  0.00  0.00    -0.233 NA
ATOM      5  N   UNL     1      32.586 -23.768 -14.908  0.00  0.00    -0.214 NA
ATOM      6  C   UNL     1      33.730 -22.785 -17.183  0.00  0.00    +0.115 C 
ATOM      7  C   UNL     1      34.544 -23.022 -16.094  0.00  0.00    +0.146 C 
ATOM      8  C   UNL     1      33.910 -23.518 -14.972  0.00  0.00    +0.210 C 
ATOM      9  C   UNL     1      31.901 -23.496 -16.035  0.00  0.00    +0.254 C 
BRANCH   8  10
ATOM     10  O   UNL     1      34.649 -23.780 -13.848  0.00  0.00    -0.440 OA
BRANCH  10  11
ATOM     11  C   UNL     1      35.799 -24.527 -14.005  0.00  0.00    +0.147 C 
ATOM     12  C   UNL     1      35.751 -25.753 -14.667  0.00  0.00    +0.041 C 
ATOM     13  C   UNL     1      37.012 -24.054 -13.501  0.00  0.00    +0.041 C 
ATOM     14  C   UNL     1      38.125 -26.034 -14.322  0.00  0.00    +0.139 C 
ATOM     15  C   UNL     1      36.913 -26.507 -14.826  0.00  0.00    +0.040 C 
ATOM     16  C   UNL     1      38.174 -24.807 -13.660  0.00  0.00    +0.040 C 
BRANCH  14  17
ATOM     17  O   UNL     1      39.260 -26.769 -14.477  0.00  0.00    -0.471 OA
ATOM     18  C   UNL     1      40.501 -26.103 -14.253  0.00  0.00    +0.252 C 
ENDBRANCH  14  17
ENDBRANCH  10  11
ENDBRANCH   8  10
ENDBRANCH   1   2
BRANCH   1  19
ATOM     19  C   UNL     1      33.772 -20.574 -19.975  0.00  0.00    +0.227 C 
BRANCH  19  20
ATOM     20  O   UNL     1      34.793 -20.522 -20.970  0.00  0.00    -0.474 OA
BRANCH  20  24
ATOM     21  C   UNL     1      35.155 -16.993 -23.124  0.00  0.00    -0.021 C 
ATOM     22  C   UNL     1      34.949 -18.199 -23.792  0.00  0.00    -0.001 C 
ATOM     23  C   UNL     1      35.240 -16.972 -21.732  0.00  0.00    -0.001 C 
ATOM     24  C   UNL     1      34.912 -19.365 -21.677  0.00  0.00    +0.139 C 
ATOM     25  C   UNL     1      34.827 -19.386 -23.069  0.00  0.00    +0.037 C 
ATOM     26  C   UNL     1      35.119 -18.158 -21.009  0.00  0.00    +0.037 C 
BRANCH  21  27
ATOM     27  C   UNL     1      35.286 -15.712 -23.907  0.00  0.00    +0.047 C 
BRANCH  27  32
ATOM     28  S   UNL     1      33.480 -15.199 -25.923  0.00  0.00    -0.048 S 
ATOM     29  O   UNL     1      34.280 -13.123 -22.769  0.00  0.00    -0.274 OA
ATOM     30  O   UNL     1      32.946 -12.958 -27.187  0.00  0.00    -0.263 OA
ATOM     31  N   UNL     1      33.590 -12.837 -24.959  0.00  0.00    -0.246 N 
ATOM     32  C   UNL     1      33.937 -15.065 -24.167  0.00  0.00    +0.137 C 
ATOM     33  C   UNL     1      33.965 -13.584 -23.861  0.00  0.00    +0.239 C 
ATOM     34  C   UNL     1      33.290 -13.472 -26.134  0.00  0.00    +0.279 C 
ATOM     35  H   UNL     1      33.539 -11.856 -24.897  0.00  0.00    +0.158 HD
ENDBRANCH  27  32
ENDBRANCH  21  27
ENDBRANCH  20  24
ENDBRANCH  19  20
ENDBRANCH   1  19
TORSDOF 9
ENDMDL
MODEL 4
REMARK VINA RESULT:     -11.9      3.666     11.282
REMARK  Name = 9826451
REMARK  9 active torsions:
REMARK  status: ('A' for Active; 'I' for Inactive)
REMARK    1  A    between atoms: C_1  and  N_2
REMARK    2  A    between atoms: C_1  and  C_19
REMARK    3  A    between atoms: C_8  and  O_10
REMARK    4  A    between atoms: O_10  and  C_11
REMARK    5  A    between atoms: C_14  and  O_17
REMARK    6  A    between atoms: C_19  and  O_20
REMARK    7  A    between atoms: O_20  and  C_24
REMARK    8  A    between atoms: C_21  and  C_27
REMARK    9  A    between atoms: C_27  and  C_32
REMARK                            x       y       z     vdW  Elec       q    Type
REMARK                         _______ _______ _______ _____ _____    ______ ____
ROOT
ATOM      1  C   UNL     1      35.912 -17.466 -22.831  0.00  0.00    +0.139 C 
ENDROOT
BRANCH   1   2
ATOM      2  N   UNL     1      34.978 -16.442 -23.234  0.00  0.00    -0.291 N 
ATOM      3  C   UNL     1      34.727 -16.247 -24.663  0.00  0.00    +0.113 C 
ATOM      4  N   UNL     1      34.576 -15.834 -20.981  0.00  0.00    -0.233 NA
ATOM      5  N   UNL     1      33.042 -14.044 -20.483  0.00  0.00    -0.214 NA
ATOM      6  C   UNL     1      34.327 -15.635 -22.292  0.00  0.00    +0.115 C 
ATOM      7  C   UNL     1      33.461 -14.672 -22.769  0.00  0.00    +0.146 C 
ATOM      8  C   UNL     1      32.840 -13.898 -21.809  0.00  0.00    +0.210 C 
ATOM      9  C   UNL     1      33.910 -15.016 -20.145  0.00  0.00    +0.254 C 
BRANCH   8  10
ATOM     10  O   UNL     1      31.965 -12.921 -22.202  0.00  0.00    -0.440 OA
BRANCH  10  11
ATOM     11  C   UNL     1      31.966 -11.742 -21.484  0.00  0.00    +0.147 C 
ATOM     12  C   UNL     1      31.596 -11.742 -20.140  0.00  0.00    +0.041 C 
ATOM     13  C   UNL     1      32.338 -10.548 -22.105  0.00  0.00    +0.041 C 
ATOM     14  C   UNL     1      31.970  -9.358 -20.035  0.00  0.00    +0.139 C 
ATOM     15  C   UNL     1      31.598 -10.551 -19.415  0.00  0.00    +0.040 C 
ATOM     16  C   UNL     1      32.341  -9.357 -21.380  0.00  0.00    +0.040 C 
BRANCH  14  17
ATOM     17  O   UNL     1      31.973  -8.195 -19.328  0.00  0.00    -0.471 OA
ATOM     18  C   UNL     1      32.543  -7.051 -19.961  0.00  0.00    +0.252 C 
ENDBRANCH  14  17
ENDBRANCH  10  11
ENDBRANCH   8  10
ENDBRANCH   1   2
BRANCH   1  19
ATOM     19  C   UNL     1      35.163 -18.659 -22.261  0.00  0.00    +0.227 C 
BRANCH  19  20
ATOM     20  O   UNL     1      35.952 -19.274 -21.245  0.00  0.00    -0.474 OA
BRANCH  20  24
ATOM     21  C   UNL     1      34.098 -22.138 -18.882  0.00  0.00    -0.021 C 
ATOM     22  C   UNL     1      33.329 -21.236 -19.617  0.00  0.00    -0.001 C 
ATOM     23  C   UNL     1      35.491 -22.077 -18.941  0.00  0.00    -0.001 C 
ATOM     24  C   UNL     1      35.344 -20.212 -20.470  0.00  0.00    +0.139 C 
ATOM     25  C   UNL     1      33.951 -20.273 -20.411  0.00  0.00    +0.037 C 
ATOM     26  C   UNL     1      36.113 -21.114 -19.734  0.00  0.00    +0.037 C 
BRANCH  21  27
ATOM     27  C   UNL     1      33.425 -23.178 -18.025  0.00  0.00    +0.047 C 
BRANCH  27  32
ATOM     28  S   UNL     1      34.210 -23.475 -15.401  0.00  0.00    -0.048 S 
ATOM     29  O   UNL     1      30.731 -22.611 -16.830  0.00  0.00    -0.274 OA
ATOM     30  O   UNL     1      33.017 -24.701 -13.406  0.00  0.00    -0.263 OA
ATOM     31  N   UNL     1      31.693 -23.695 -15.028  0.00  0.00    -0.246 N 
ATOM     32  C   UNL     1      33.138 -22.661 -16.626  0.00  0.00    +0.137 C 
ATOM     33  C   UNL     1      31.720 -22.971 -16.201  0.00  0.00    +0.239 C 
ATOM     34  C   UNL     1      32.873 -24.062 -14.436  0.00  0.00    +0.279 C 
ATOM     35  H   UNL     1      30.833 -23.947 -14.620  0.00  0.00    +0.158 HD
ENDBRANCH  27  32
ENDBRANCH  21  27
ENDBRANCH  20  24
ENDBRANCH  19  20
ENDBRANCH   1  19
TORSDOF 9
ENDMDL
MODEL 5
REMARK VINA RESULT:     -11.8      3.853     12.470
REMARK  Name = 9826451
REMARK  9 active torsions:
REMARK  status: ('A' for Active; 'I' for Inactive)
REMARK    1  A    between atoms: C_1  and  N_2
REMARK    2  A    between atoms: C_1  and  C_19
REMARK    3  A    between atoms: C_8  and  O_10
REMARK    4  A    between atoms: O_10  and  C_11
REMARK    5  A    between atoms: C_14  and  O_17
REMARK    6  A    between atoms: C_19  and  O_20
REMARK    7  A    between atoms: O_20  and  C_24
REMARK    8  A    between atoms: C_21  and  C_27
REMARK    9  A    between atoms: C_27  and  C_32
REMARK                            x       y       z     vdW  Elec       q    Type
REMARK                         _______ _______ _______ _____ _____    ______ ____
ROOT
ATOM      1  C   UNL     1      35.094 -17.164 -21.241  0.00  0.00    +0.139 C 
ENDROOT
BRANCH   1   2
ATOM      2  N   UNL     1      34.873 -16.212 -22.304  0.00  0.00    -0.291 N 
ATOM      3  C   UNL     1      35.428 -16.501 -23.627  0.00  0.00    +0.113 C 
ATOM      4  N   UNL     1      33.654 -14.786 -20.858  0.00  0.00    -0.233 NA
ATOM      5  N   UNL     1      32.764 -12.712 -21.700  0.00  0.00    -0.214 NA
ATOM      6  C   UNL     1      34.156 -15.028 -22.087  0.00  0.00    +0.115 C 
ATOM      7  C   UNL     1      34.005 -14.171 -23.159  0.00  0.00    +0.146 C 
ATOM      8  C   UNL     1      33.293 -13.016 -22.904  0.00  0.00    +0.210 C 
ATOM      9  C   UNL     1      32.979 -13.627 -20.737  0.00  0.00    +0.254 C 
BRANCH   8  10
ATOM     10  O   UNL     1      33.099 -12.114 -23.916  0.00  0.00    -0.440 OA
BRANCH  10  11
ATOM     11  C   UNL     1      33.644 -10.855 -23.757  0.00  0.00    +0.147 C 
ATOM     12  C   UNL     1      34.909 -10.572 -24.271  0.00  0.00    +0.041 C 
ATOM     13  C   UNL     1      32.928  -9.866 -23.082  0.00  0.00    +0.041 C 
ATOM     14  C   UNL     1      34.743  -8.312 -23.436  0.00  0.00    +0.139 C 
ATOM     15  C   UNL     1      35.459  -9.301 -24.111  0.00  0.00    +0.040 C 
ATOM     16  C   UNL     1      33.477  -8.595 -22.922  0.00  0.00    +0.040 C 
BRANCH  14  17
ATOM     17  O   UNL     1      35.278  -7.070 -23.280  0.00  0.00    -0.471 OA
ATOM     18  C   UNL     1      35.232  -6.196 -24.406  0.00  0.00    +0.252 C 
ENDBRANCH  14  17
ENDBRANCH  10  11
ENDBRANCH   8  10
ENDBRANCH   1   2
BRANCH   1  19
ATOM     19  C   UNL     1      35.028 -18.580 -21.787  0.00  0.00    +0.227 C 
BRANCH  19  20
ATOM     20  O   UNL     1      35.896 -19.421 -21.031  0.00  0.00    -0.474 OA
BRANCH  20  24
ATOM     21  C   UNL     1      34.122 -22.297 -18.621  0.00  0.00    -0.021 C 
ATOM     22  C   UNL     1      33.329 -21.447 -19.391  0.00  0.00    -0.001 C 
ATOM     23  C   UNL     1      35.512 -22.181 -18.661  0.00  0.00    -0.001 C 
ATOM     24  C   UNL     1      35.314 -20.364 -20.241  0.00  0.00    +0.139 C 
ATOM     25  C   UNL     1      33.924 -20.480 -20.201  0.00  0.00    +0.037 C 
ATOM     26  C   UNL     1      36.107 -21.214 -19.470  0.00  0.00    +0.037 C 
BRANCH  21  27
ATOM     27  C   UNL     1      33.478 -23.341 -17.746  0.00  0.00    +0.047 C 
BRANCH  27  32
ATOM     28  S   UNL     1      34.102 -23.653 -15.082  0.00  0.00    -0.048 S 
ATOM     29  O   UNL     1      30.754 -22.630 -16.706  0.00  0.00    -0.274 OA
ATOM     30  O   UNL     1      32.741 -24.801 -13.148  0.00  0.00    -0.263 OA
ATOM     31  N   UNL     1      31.561 -23.744 -14.847  0.00  0.00    -0.246 N 
ATOM     32  C   UNL     1      33.141 -22.798 -16.369  0.00  0.00    +0.137 C 
ATOM     33  C   UNL     1      31.688 -23.033 -16.021  0.00  0.00    +0.239 C 
ATOM     34  C   UNL     1      32.686 -24.164 -14.189  0.00  0.00    +0.279 C 
ATOM     35  H   UNL     1      30.668 -23.949 -14.485  0.00  0.00    +0.158 HD
ENDBRANCH  27  32
ENDBRANCH  21  27
ENDBRANCH  20  24
ENDBRANCH  19  20
ENDBRANCH   1  19
TORSDOF 9
ENDMDL
MODEL 6
REMARK VINA RESULT:     -11.7      5.658     10.193
REMARK  Name = 9826451
REMARK  9 active torsions:
REMARK  status: ('A' for Active; 'I' for Inactive)
REMARK    1  A    between atoms: C_1  and  N_2
REMARK    2  A    between atoms: C_1  and  C_19
REMARK    3  A    between atoms: C_8  and  O_10
REMARK    4  A    between atoms: O_10  and  C_11
REMARK    5  A    between atoms: C_14  and  O_17
REMARK    6  A    between atoms: C_19  and  O_20
REMARK    7  A    between atoms: O_20  and  C_24
REMARK    8  A    between atoms: C_21  and  C_27
REMARK    9  A    between atoms: C_27  and  C_32
REMARK                            x       y       z     vdW  Elec       q    Type
REMARK                         _______ _______ _______ _____ _____    ______ ____
ROOT
ATOM      1  C   UNL     1      33.353 -13.786 -24.099  0.00  0.00    +0.139 C 
ENDROOT
BRANCH   1   2
ATOM      2  N   UNL     1      33.998 -15.077 -24.063  0.00  0.00    -0.291 N 
ATOM      3  C   UNL     1      34.301 -15.744 -25.330  0.00  0.00    +0.113 C 
ATOM      4  N   UNL     1      34.034 -15.061 -21.695  0.00  0.00    -0.233 NA
ATOM      5  N   UNL     1      34.970 -16.933 -20.503  0.00  0.00    -0.214 NA
ATOM      6  C   UNL     1      34.323 -15.697 -22.849  0.00  0.00    +0.115 C 
ATOM      7  C   UNL     1      34.927 -16.936 -22.910  0.00  0.00    +0.146 C 
ATOM      8  C   UNL     1      35.231 -17.513 -21.693  0.00  0.00    +0.210 C 
ATOM      9  C   UNL     1      34.379 -15.726 -20.576  0.00  0.00    +0.254 C 
BRANCH   8  10
ATOM     10  O   UNL     1      35.832 -18.744 -21.669  0.00  0.00    -0.440 OA
BRANCH  10  11
ATOM     11  C   UNL     1      35.242 -19.723 -20.894  0.00  0.00    +0.147 C 
ATOM     12  C   UNL     1      33.853 -19.800 -20.804  0.00  0.00    +0.041 C 
ATOM     13  C   UNL     1      36.038 -20.637 -20.201  0.00  0.00    +0.041 C 
ATOM     14  C   UNL     1      34.053 -21.702 -19.330  0.00  0.00    +0.139 C 
ATOM     15  C   UNL     1      33.258 -20.789 -20.022  0.00  0.00    +0.040 C 
ATOM     16  C   UNL     1      35.443 -21.626 -19.420  0.00  0.00    +0.040 C 
BRANCH  14  17
ATOM     17  O   UNL     1      33.472 -22.669 -18.567  0.00  0.00    -0.471 OA
ATOM     18  C   UNL     1      33.997 -22.864 -17.254  0.00  0.00    +0.252 C 
ENDBRANCH  14  17
ENDBRANCH  10  11
ENDBRANCH   8  10
ENDBRANCH   1   2
BRANCH   1  19
ATOM     19  C   UNL     1      34.192 -12.763 -23.353  0.00  0.00    +0.227 C 
BRANCH  19  20
ATOM     20  O   UNL     1      34.587 -11.727 -24.251  0.00  0.00    -0.474 OA
BRANCH  20  24
ATOM     21  C   UNL     1      33.762  -7.821 -23.116  0.00  0.00    -0.021 C 
ATOM     22  C   UNL     1      34.969  -8.124 -23.744  0.00  0.00    -0.001 C 
ATOM     23  C   UNL     1      32.831  -8.831 -22.869  0.00  0.00    -0.001 C 
ATOM     24  C   UNL     1      34.317 -10.446 -23.879  0.00  0.00    +0.139 C 
ATOM     25  C   UNL     1      35.248  -9.436 -24.126  0.00  0.00    +0.037 C 
ATOM     26  C   UNL     1      33.110 -10.143 -23.249  0.00  0.00    +0.037 C 
BRANCH  21  27
ATOM     27  C   UNL     1      33.463  -6.403 -22.704  0.00  0.00    +0.047 C 
BRANCH  27  32
ATOM     28  S   UNL     1      31.932  -4.516 -24.002  0.00  0.00    -0.048 S 
ATOM     29  O   UNL     1      31.167  -6.485 -20.773  0.00  0.00    -0.274 OA
ATOM     30  O   UNL     1      30.540  -2.508 -23.034  0.00  0.00    -0.263 OA
ATOM     31  N   UNL     1      30.731  -4.435 -21.750  0.00  0.00    -0.246 N 
ATOM     32  C   UNL     1      32.020  -6.023 -22.986  0.00  0.00    +0.137 C 
ATOM     33  C   UNL     1      31.272  -5.703 -21.711  0.00  0.00    +0.239 C 
ATOM     34  C   UNL     1      30.946  -3.645 -22.849  0.00  0.00    +0.279 C 
ATOM     35  H   UNL     1      30.195  -4.100 -20.995  0.00  0.00    +0.158 HD
ENDBRANCH  27  32
ENDBRANCH  21  27
ENDBRANCH  20  24
ENDBRANCH  19  20
ENDBRANCH   1  19
TORSDOF 9
ENDMDL
MODEL 7
REMARK VINA RESULT:     -11.6      5.923     11.304
REMARK  Name = 9826451
REMARK  9 active torsions:
REMARK  status: ('A' for Active; 'I' for Inactive)
REMARK    1  A    between atoms: C_1  and  N_2
REMARK    2  A    between atoms: C_1  and  C_19
REMARK    3  A    between atoms: C_8  and  O_10
REMARK    4  A    between atoms: O_10  and  C_11
REMARK    5  A    between atoms: C_14  and  O_17
REMARK    6  A    between atoms: C_19  and  O_20
REMARK    7  A    between atoms: O_20  and  C_24
REMARK    8  A    between atoms: C_21  and  C_27
REMARK    9  A    between atoms: C_27  and  C_32
REMARK                            x       y       z     vdW  Elec       q    Type
REMARK                         _______ _______ _______ _____ _____    ______ ____
ROOT
ATOM      1  C   UNL     1      32.611 -13.061 -21.840  0.00  0.00    +0.139 C 
ENDROOT
BRANCH   1   2
ATOM      2  N   UNL     1      33.412 -14.261 -21.830  0.00  0.00    -0.291 N 
ATOM      3  C   UNL     1      33.860 -14.794 -20.542  0.00  0.00    +0.113 C 
ATOM      4  N   UNL     1      33.348 -14.396 -24.194  0.00  0.00    -0.233 NA
ATOM      5  N   UNL     1      34.496 -16.192 -25.318  0.00  0.00    -0.214 NA
ATOM      6  C   UNL     1      33.774 -14.907 -23.020  0.00  0.00    +0.115 C 
ATOM      7  C   UNL     1      34.553 -16.042 -22.916  0.00  0.00    +0.146 C 
ATOM      8  C   UNL     1      34.887 -16.648 -24.110  0.00  0.00    +0.210 C 
ATOM      9  C   UNL     1      33.740 -15.078 -25.287  0.00  0.00    +0.254 C 
BRANCH   8  10
ATOM     10  O   UNL     1      35.658 -17.780 -24.092  0.00  0.00    -0.440 OA
BRANCH  10  11
ATOM     11  C   UNL     1      35.684 -18.511 -22.920  0.00  0.00    +0.147 C 
ATOM     12  C   UNL     1      34.599 -19.317 -22.576  0.00  0.00    +0.041 C 
ATOM     13  C   UNL     1      36.798 -18.444 -22.081  0.00  0.00    +0.041 C 
ATOM     14  C   UNL     1      35.739 -19.987 -20.555  0.00  0.00    +0.139 C 
ATOM     15  C   UNL     1      34.626 -20.055 -21.393  0.00  0.00    +0.040 C 
ATOM     16  C   UNL     1      36.825 -19.182 -20.900  0.00  0.00    +0.040 C 
BRANCH  14  17
ATOM     17  O   UNL     1      35.766 -20.709 -19.400  0.00  0.00    -0.471 OA
ATOM     18  C   UNL     1      34.727 -21.667 -19.207  0.00  0.00    +0.252 C 
ENDBRANCH  14  17
ENDBRANCH  10  11
ENDBRANCH   8  10
ENDBRANCH   1   2
BRANCH   1  19
ATOM     19  C   UNL     1      32.326 -12.614 -20.416  0.00  0.00    +0.227 C 
BRANCH  19  20
ATOM     20  O   UNL     1      31.243 -11.685 -20.417  0.00  0.00    -0.474 OA
BRANCH  20  24
ATOM     21  C   UNL     1      32.136  -7.742 -21.357  0.00  0.00    -0.021 C 
ATOM     22  C   UNL     1      32.254  -8.189 -20.041  0.00  0.00    -0.001 C 
ATOM     23  C   UNL     1      31.718  -8.621 -22.357  0.00  0.00    -0.001 C 
ATOM     24  C   UNL     1      31.536 -10.392 -20.725  0.00  0.00    +0.139 C 
ATOM     25  C   UNL     1      31.954  -9.514 -19.725  0.00  0.00    +0.037 C 
ATOM     26  C   UNL     1      31.417  -9.944 -22.041  0.00  0.00    +0.037 C 
BRANCH  21  27
ATOM     27  C   UNL     1      32.461  -6.311 -21.698  0.00  0.00    +0.047 C 
BRANCH  27  32
ATOM     28  S   UNL     1      32.586  -5.011 -24.123  0.00  0.00    -0.048 S 
ATOM     29  O   UNL     1      29.854  -4.854 -21.402  0.00  0.00    -0.274 OA
ATOM     30  O   UNL     1      32.030  -2.516 -24.737  0.00  0.00    -0.263 OA
ATOM     31  N   UNL     1      30.814  -3.527 -23.035  0.00  0.00    -0.246 N 
ATOM     32  C   UNL     1      31.581  -5.780 -22.816  0.00  0.00    +0.137 C 
ATOM     33  C   UNL     1      30.650  -4.696 -22.321  0.00  0.00    +0.239 C 
ATOM     34  C   UNL     1      31.763  -3.470 -24.022  0.00  0.00    +0.279 C 
ATOM     35  H   UNL     1      30.255  -2.742 -22.837  0.00  0.00    +0.158 HD
ENDBRANCH  27  32
ENDBRANCH  21  27
ENDBRANCH  20  24
ENDBRANCH  19  20
ENDBRANCH   1  19
TORSDOF 9
ENDMDL
MODEL 8
REMARK VINA RESULT:     -11.4      3.953     11.646
REMARK  Name = 9826451
REMARK  9 active torsions:
REMARK  status: ('A' for Active; 'I' for Inactive)
REMARK    1  A    between atoms: C_1  and  N_2
REMARK    2  A    between atoms: C_1  and  C_19
REMARK    3  A    between atoms: C_8  and  O_10
REMARK    4  A    between atoms: O_10  and  C_11
REMARK    5  A    between atoms: C_14  and  O_17
REMARK    6  A    between atoms: C_19  and  O_20
REMARK    7  A    between atoms: O_20  and  C_24
REMARK    8  A    between atoms: C_21  and  C_27
REMARK    9  A    between atoms: C_27  and  C_32
REMARK                            x       y       z     vdW  Elec       q    Type
REMARK                         _______ _______ _______ _____ _____    ______ ____
ROOT
ATOM      1  C   UNL     1      35.284 -16.026 -23.877  0.00  0.00    +0.139 C 
ENDROOT
BRANCH   1   2
ATOM      2  N   UNL     1      34.187 -15.089 -23.816  0.00  0.00    -0.291 N 
ATOM      3  C   UNL     1      33.492 -14.746 -25.058  0.00  0.00    +0.113 C 
ATOM      4  N   UNL     1      34.450 -14.838 -21.476  0.00  0.00    -0.233 NA
ATOM      5  N   UNL     1      32.997 -13.344 -20.266  0.00  0.00    -0.214 NA
ATOM      6  C   UNL     1      33.793 -14.504 -22.607  0.00  0.00    +0.115 C 
ATOM      7  C   UNL     1      32.742 -13.609 -22.646  0.00  0.00    +0.146 C 
ATOM      8  C   UNL     1      32.385 -13.055 -21.433  0.00  0.00    +0.210 C 
ATOM      9  C   UNL     1      34.007 -14.230 -20.360  0.00  0.00    +0.254 C 
BRANCH   8  10
ATOM     10  O   UNL     1      31.350 -12.157 -21.388  0.00  0.00    -0.440 OA
BRANCH  10  11
ATOM     11  C   UNL     1      31.663 -10.842 -21.109  0.00  0.00    +0.147 C 
ATOM     12  C   UNL     1      32.110 -10.000 -22.127  0.00  0.00    +0.041 C 
ATOM     13  C   UNL     1      31.531 -10.355 -19.808  0.00  0.00    +0.041 C 
ATOM     14  C   UNL     1      32.294  -8.184 -20.544  0.00  0.00    +0.139 C 
ATOM     15  C   UNL     1      32.426  -8.671 -21.845  0.00  0.00    +0.040 C 
ATOM     16  C   UNL     1      31.846  -9.026 -19.526  0.00  0.00    +0.040 C 
BRANCH  14  17
ATOM     17  O   UNL     1      32.601  -6.887 -20.268  0.00  0.00    -0.471 OA
ATOM     18  C   UNL     1      31.899  -5.883 -21.000  0.00  0.00    +0.252 C 
ENDBRANCH  14  17
ENDBRANCH  10  11
ENDBRANCH   8  10
ENDBRANCH   1   2
BRANCH   1  19
ATOM     19  C   UNL     1      34.937 -17.285 -23.100  0.00  0.00    +0.227 C 
BRANCH  19  20
ATOM     20  O   UNL     1      35.983 -17.575 -22.174  0.00  0.00    -0.474 OA
BRANCH  20  24
ATOM     21  C   UNL     1      35.578 -21.009 -19.878  0.00  0.00    -0.021 C 
ATOM     22  C   UNL     1      34.457 -20.433 -20.475  0.00  0.00    -0.001 C 
ATOM     23  C   UNL     1      36.836 -20.430 -20.052  0.00  0.00    -0.001 C 
ATOM     24  C   UNL     1      35.850 -18.701 -21.421  0.00  0.00    +0.139 C 
ATOM     25  C   UNL     1      34.592 -19.279 -21.246  0.00  0.00    +0.037 C 
ATOM     26  C   UNL     1      36.971 -19.276 -20.823  0.00  0.00    +0.037 C 
BRANCH  21  27
ATOM     27  C   UNL     1      35.431 -22.256 -19.044  0.00  0.00    +0.047 C 
BRANCH  27  32
ATOM     28  S   UNL     1      37.118 -21.964 -16.886  0.00  0.00    -0.048 S 
ATOM     29  O   UNL     1      33.493 -23.283 -16.997  0.00  0.00    -0.274 OA
ATOM     30  O   UNL     1      37.580 -23.583 -14.868  0.00  0.00    -0.263 OA
ATOM     31  N   UNL     1      35.452 -23.565 -15.799  0.00  0.00    -0.246 N 
ATOM     32  C   UNL     1      35.427 -21.947 -17.558  0.00  0.00    +0.137 C 
ATOM     33  C   UNL     1      34.664 -22.994 -16.777  0.00  0.00    +0.239 C 
ATOM     34  C   UNL     1      36.759 -23.175 -15.675  0.00  0.00    +0.279 C 
ATOM     35  H   UNL     1      35.077 -24.248 -15.197  0.00  0.00    +0.158 HD
ENDBRANCH  27  32
ENDBRANCH  21  27
ENDBRANCH  20  24
ENDBRANCH  19  20
ENDBRANCH   1  19
TORSDOF 9
ENDMDL
MODEL 9
REMARK VINA RESULT:     -11.4      3.903     11.782
REMARK  Name = 9826451
REMARK  9 active torsions:
REMARK  status: ('A' for Active; 'I' for Inactive)
REMARK    1  A    between atoms: C_1  and  N_2
REMARK    2  A    between atoms: C_1  and  C_19
REMARK    3  A    between atoms: C_8  and  O_10
REMARK    4  A    between atoms: O_10  and  C_11
REMARK    5  A    between atoms: C_14  and  O_17
REMARK    6  A    between atoms: C_19  and  O_20
REMARK    7  A    between atoms: O_20  and  C_24
REMARK    8  A    between atoms: C_21  and  C_27
REMARK    9  A    between atoms: C_27  and  C_32
REMARK                            x       y       z     vdW  Elec       q    Type
REMARK                         _______ _______ _______ _____ _____    ______ ____
ROOT
ATOM      1  C   UNL     1      35.579 -16.758 -22.109  0.00  0.00    +0.139 C 
ENDROOT
BRANCH   1   2
ATOM      2  N   UNL     1      34.508 -15.997 -21.509  0.00  0.00    -0.291 N 
ATOM      3  C   UNL     1      33.900 -16.498 -20.275  0.00  0.00    +0.113 C 
ATOM      4  N   UNL     1      34.618 -14.371 -23.227  0.00  0.00    -0.233 NA
ATOM      5  N   UNL     1      33.105 -12.496 -23.194  0.00  0.00    -0.214 NA
ATOM      6  C   UNL     1      34.040 -14.811 -22.090  0.00  0.00    +0.115 C 
ATOM      7  C   UNL     1      33.004 -14.157 -21.454  0.00  0.00    +0.146 C 
ATOM      8  C   UNL     1      32.573 -12.993 -22.058  0.00  0.00    +0.210 C 
ATOM      9  C   UNL     1      34.108 -13.225 -23.718  0.00  0.00    +0.254 C 
BRANCH   8  10
ATOM     10  O   UNL     1      31.548 -12.285 -21.488  0.00  0.00    -0.440 OA
BRANCH  10  11
ATOM     11  C   UNL     1      31.810 -10.983 -21.111  0.00  0.00    +0.147 C 
ATOM     12  C   UNL     1      31.814 -10.635 -19.760  0.00  0.00    +0.041 C 
ATOM     13  C   UNL     1      32.070 -10.014 -22.081  0.00  0.00    +0.041 C 
ATOM     14  C   UNL     1      32.338  -8.352 -20.350  0.00  0.00    +0.139 C 
ATOM     15  C   UNL     1      32.079  -9.320 -19.379  0.00  0.00    +0.040 C 
ATOM     16  C   UNL     1      32.335  -8.700 -21.701  0.00  0.00    +0.040 C 
BRANCH  14  17
ATOM     17  O   UNL     1      32.598  -7.068 -19.978  0.00  0.00    -0.471 OA
ATOM     18  C   UNL     1      32.068  -6.033 -20.805  0.00  0.00    +0.252 C 
ENDBRANCH  14  17
ENDBRANCH  10  11
ENDBRANCH   8  10
ENDBRANCH   1   2
BRANCH   1  19
ATOM     19  C   UNL     1      35.176 -18.218 -22.229  0.00  0.00    +0.227 C 
BRANCH  19  20
ATOM     20  O   UNL     1      36.023 -19.014 -21.402  0.00  0.00    -0.474 OA
BRANCH  20  24
ATOM     21  C   UNL     1      34.204 -21.949 -19.100  0.00  0.00    -0.021 C 
ATOM     22  C   UNL     1      33.424 -21.058 -19.836  0.00  0.00    -0.001 C 
ATOM     23  C   UNL     1      35.596 -21.854 -19.137  0.00  0.00    -0.001 C 
ATOM     24  C   UNL     1      35.426 -19.976 -20.647  0.00  0.00    +0.139 C 
ATOM     25  C   UNL     1      34.035 -20.071 -20.609  0.00  0.00    +0.037 C 
ATOM     26  C   UNL     1      36.206 -20.867 -19.910  0.00  0.00    +0.037 C 
BRANCH  21  27
ATOM     27  C   UNL     1      33.543 -23.015 -18.264  0.00  0.00    +0.047 C 
BRANCH  27  32
ATOM     28  S   UNL     1      34.542 -23.370 -15.721  0.00  0.00    -0.048 S 
ATOM     29  O   UNL     1      30.926 -22.630 -16.848  0.00  0.00    -0.274 OA
ATOM     30  O   UNL     1      33.566 -24.728 -13.694  0.00  0.00    -0.263 OA
ATOM     31  N   UNL     1      32.075 -23.730 -15.170  0.00  0.00    -0.246 N 
ATOM     32  C   UNL     1      33.342 -22.566 -16.828  0.00  0.00    +0.137 C 
ATOM     33  C   UNL     1      31.977 -22.962 -16.311  0.00  0.00    +0.239 C 
ATOM     34  C   UNL     1      33.313 -24.059 -14.684  0.00  0.00    +0.279 C 
ATOM     35  H   UNL     1      31.262 -24.040 -14.709  0.00  0.00    +0.158 HD
ENDBRANCH  27  32
ENDBRANCH  21  27
ENDBRANCH  20  24
ENDBRANCH  19  20
ENDBRANCH   1  19
TORSDOF 9
ENDMDL
