MODEL 1
REMARK VINA RESULT:     -12.9      0.000      0.000
REMARK  Name = 44141871
REMARK  6 active torsions:
REMARK  status: ('A' for Active; 'I' for Inactive)
REMARK    1  A    between atoms: C_1  and  C_10
REMARK    2  A    between atoms: C_4  and  O_20
REMARK    3  A    between atoms: C_9  and  C_13
REMARK    4  A    between atoms: C_13  and  C_15
REMARK    5  A    between atoms: O_20  and  C_21
REMARK    6  A    between atoms: C_21  and  C_23
REMARK                            x       y       z     vdW  Elec       q    Type
REMARK                         _______ _______ _______ _____ _____    ______ ____
ROOT
ATOM      1  C   UNL     1      34.578 -22.810 -17.161  0.00  0.00    +0.015 C 
ATOM      2  C   UNL     1      35.787 -22.259 -17.584  0.00  0.00    +0.004 C 
ATOM      3  C   UNL     1      33.418 -22.602 -17.909  0.00  0.00    +0.004 C 
ATOM      4  C   UNL     1      34.678 -21.294 -19.502  0.00  0.00    +0.139 C 
ATOM      5  C   UNL     1      35.838 -21.502 -18.754  0.00  0.00    +0.037 C 
ATOM      6  C   UNL     1      33.469 -21.845 -19.079  0.00  0.00    +0.037 C 
ENDROOT
BRANCH   1  10
ATOM      7  N   UNL     1      35.438 -24.565 -15.666  0.00  0.00    -0.236 N 
ATOM      8  N   UNL     1      35.222 -25.185 -14.492  0.00  0.00    -0.180 NA
ATOM      9  C   UNL     1      33.651 -23.575 -14.892  0.00  0.00    +0.018 C 
ATOM     10  C   UNL     1      34.526 -23.593 -15.951  0.00  0.00    +0.063 C 
ATOM     11  C   UNL     1      34.129 -24.576 -14.024  0.00  0.00    +0.115 C 
ATOM     12  H   UNL     1      36.187 -24.792 -16.263  0.00  0.00    +0.174 HD
BRANCH   9  13
ATOM     13  C   UNL     1      32.475 -22.710 -14.696  0.00  0.00    +0.056 C 
BRANCH  13  15
ATOM     14  N   UNL     1      28.702 -24.566 -15.679  0.00  0.00    -0.242 NA
ATOM     15  C   UNL     1      31.144 -23.364 -15.043  0.00  0.00    -0.015 C 
ATOM     16  C   UNL     1      30.766 -24.549 -14.420  0.00  0.00    +0.017 C 
ATOM     17  C   UNL     1      30.303 -22.780 -15.982  0.00  0.00    +0.017 C 
ATOM     18  C   UNL     1      29.546 -25.104 -14.771  0.00  0.00    +0.099 C 
ATOM     19  C   UNL     1      29.103 -23.414 -16.263  0.00  0.00    +0.099 C 
ENDBRANCH  13  15
ENDBRANCH   9  13
ENDBRANCH   1  10
BRANCH   4  20
ATOM     20  O   UNL     1      34.728 -20.554 -20.653  0.00  0.00    -0.468 OA
BRANCH  20  21
ATOM     21  C   UNL     1      35.858 -19.708 -20.823  0.00  0.00    +0.264 C 
BRANCH  21  23
ATOM     22  N   UNL     1      35.145 -17.395 -20.869  0.00  0.00    -0.406 NA
ATOM     23  C   UNL     1      35.458 -18.494 -21.593  0.00  0.00    +0.152 C 
ATOM     24  C   UNL     1      34.716 -16.237 -22.937  0.00  0.00    +0.026 C 
ATOM     25  C   UNL     1      34.778 -16.281 -21.529  0.00  0.00    +0.113 C 
ATOM     26  C   UNL     1      35.426 -18.547 -22.971  0.00  0.00    +0.031 C 
ATOM     27  C   UNL     1      35.048 -17.397 -23.649  0.00  0.00    +0.005 C 
ATOM     28  C   UNL     1      34.330 -15.055 -23.593  0.00  0.00    +0.002 C 
ATOM     29  C   UNL     1      34.448 -15.127 -20.822  0.00  0.00    +0.085 C 
ATOM     30  C   UNL     1      34.004 -13.917 -22.862  0.00  0.00    -0.004 C 
ATOM     31  C   UNL     1      34.064 -13.953 -21.474  0.00  0.00    -0.019 C 
ENDBRANCH  21  23
ENDBRANCH  20  21
ENDBRANCH   4  20
TORSDOF 6
ENDMDL
MODEL 2
REMARK VINA RESULT:     -12.5      1.924      3.843
REMARK  Name = 44141871
REMARK  6 active torsions:
REMARK  status: ('A' for Active; 'I' for Inactive)
REMARK    1  A    between atoms: C_1  and  C_10
REMARK    2  A    between atoms: C_4  and  O_20
REMARK    3  A    between atoms: C_9  and  C_13
REMARK    4  A    between atoms: C_13  and  C_15
REMARK    5  A    between atoms: O_20  and  C_21
REMARK    6  A    between atoms: C_21  and  C_23
REMARK                            x       y       z     vdW  Elec       q    Type
REMARK                         _______ _______ _______ _____ _____    ______ ____
ROOT
ATOM      1  C   UNL     1      33.932 -21.889 -18.467  0.00  0.00    +0.015 C 
ATOM      2  C   UNL     1      35.294 -21.908 -18.768  0.00  0.00    +0.004 C 
ATOM      3  C   UNL     1      33.054 -21.144 -19.255  0.00  0.00    +0.004 C 
ATOM      4  C   UNL     1      34.900 -20.437 -20.644  0.00  0.00    +0.139 C 
ATOM      5  C   UNL     1      35.778 -21.182 -19.856  0.00  0.00    +0.037 C 
ATOM      6  C   UNL     1      33.538 -20.419 -20.344  0.00  0.00    +0.037 C 
ENDROOT
BRANCH   1  10
ATOM      7  N   UNL     1      32.133 -23.044 -17.247  0.00  0.00    -0.236 N 
ATOM      8  N   UNL     1      31.858 -23.730 -16.124  0.00  0.00    -0.180 NA
ATOM      9  C   UNL     1      34.051 -23.093 -16.203  0.00  0.00    +0.018 C 
ATOM     10  C   UNL     1      33.432 -22.640 -17.342  0.00  0.00    +0.063 C 
ATOM     11  C   UNL     1      33.034 -23.757 -15.490  0.00  0.00    +0.115 C 
ATOM     12  H   UNL     1      31.458 -22.851 -17.937  0.00  0.00    +0.174 HD
BRANCH   9  13
ATOM     13  C   UNL     1      35.459 -22.928 -15.803  0.00  0.00    +0.056 C 
BRANCH  13  15
ATOM     14  N   UNL     1      36.753 -25.580 -12.651  0.00  0.00    -0.242 NA
ATOM     15  C   UNL     1      35.915 -23.863 -14.692  0.00  0.00    -0.015 C 
ATOM     16  C   UNL     1      35.922 -23.426 -13.371  0.00  0.00    +0.017 C 
ATOM     17  C   UNL     1      36.327 -25.157 -14.992  0.00  0.00    +0.017 C 
ATOM     18  C   UNL     1      36.346 -24.316 -12.397  0.00  0.00    +0.099 C 
ATOM     19  C   UNL     1      36.733 -25.969 -13.945  0.00  0.00    +0.099 C 
ENDBRANCH  13  15
ENDBRANCH   9  13
ENDBRANCH   1  10
BRANCH   4  20
ATOM     20  O   UNL     1      35.375 -19.727 -21.715  0.00  0.00    -0.468 OA
BRANCH  20  21
ATOM     21  C   UNL     1      36.117 -18.550 -21.425  0.00  0.00    +0.264 C 
BRANCH  21  23
ATOM     22  N   UNL     1      35.263 -17.288 -23.306  0.00  0.00    -0.406 NA
ATOM     23  C   UNL     1      35.392 -17.361 -21.962  0.00  0.00    +0.152 C 
ATOM     24  C   UNL     1      34.076 -15.213 -23.013  0.00  0.00    +0.026 C 
ATOM     25  C   UNL     1      34.615 -16.230 -23.827  0.00  0.00    +0.113 C 
ATOM     26  C   UNL     1      34.900 -16.417 -21.085  0.00  0.00    +0.031 C 
ATOM     27  C   UNL     1      34.232 -15.327 -21.625  0.00  0.00    +0.005 C 
ATOM     28  C   UNL     1      33.404 -14.122 -23.591  0.00  0.00    +0.002 C 
ATOM     29  C   UNL     1      34.460 -16.116 -25.207  0.00  0.00    +0.085 C 
ATOM     30  C   UNL     1      33.264 -14.033 -24.973  0.00  0.00    -0.004 C 
ATOM     31  C   UNL     1      33.792 -15.032 -25.782  0.00  0.00    -0.019 C 
ENDBRANCH  21  23
ENDBRANCH  20  21
ENDBRANCH   4  20
TORSDOF 6
ENDMDL
MODEL 3
REMARK VINA RESULT:     -12.4      1.860      3.565
REMARK  Name = 44141871
REMARK  6 active torsions:
REMARK  status: ('A' for Active; 'I' for Inactive)
REMARK    1  A    between atoms: C_1  and  C_10
REMARK    2  A    between atoms: C_4  and  O_20
REMARK    3  A    between atoms: C_9  and  C_13
REMARK    4  A    between atoms: C_13  and  C_15
REMARK    5  A    between atoms: O_20  and  C_21
REMARK    6  A    between atoms: C_21  and  C_23
REMARK                            x       y       z     vdW  Elec       q    Type
REMARK                         _______ _______ _______ _____ _____    ______ ____
ROOT
ATOM      1  C   UNL     1      33.931 -21.853 -18.495  0.00  0.00    +0.015 C 
ATOM      2  C   UNL     1      35.295 -21.881 -18.787  0.00  0.00    +0.004 C 
ATOM      3  C   UNL     1      33.064 -21.102 -19.289  0.00  0.00    +0.004 C 
ATOM      4  C   UNL     1      34.924 -20.410 -20.668  0.00  0.00    +0.139 C 
ATOM      5  C   UNL     1      35.791 -21.161 -19.873  0.00  0.00    +0.037 C 
ATOM      6  C   UNL     1      33.560 -20.381 -20.375  0.00  0.00    +0.037 C 
ENDROOT
BRANCH   1  10
ATOM      7  N   UNL     1      32.119 -23.005 -17.292  0.00  0.00    -0.236 N 
ATOM      8  N   UNL     1      31.832 -23.686 -16.169  0.00  0.00    -0.180 NA
ATOM      9  C   UNL     1      34.024 -23.044 -16.223  0.00  0.00    +0.018 C 
ATOM     10  C   UNL     1      33.419 -22.598 -17.372  0.00  0.00    +0.063 C 
ATOM     11  C   UNL     1      33.000 -23.707 -15.520  0.00  0.00    +0.115 C 
ATOM     12  H   UNL     1      31.453 -22.817 -17.991  0.00  0.00    +0.174 HD
BRANCH   9  13
ATOM     13  C   UNL     1      35.427 -22.873 -15.807  0.00  0.00    +0.056 C 
BRANCH  13  15
ATOM     14  N   UNL     1      36.741 -25.635 -12.758  0.00  0.00    -0.242 NA
ATOM     15  C   UNL     1      35.890 -23.847 -14.731  0.00  0.00    -0.015 C 
ATOM     16  C   UNL     1      36.245 -25.148 -15.074  0.00  0.00    +0.017 C 
ATOM     17  C   UNL     1      35.961 -23.440 -13.404  0.00  0.00    +0.017 C 
ATOM     18  C   UNL     1      36.659 -25.995 -14.059  0.00  0.00    +0.099 C 
ATOM     19  C   UNL     1      36.388 -24.364 -12.464  0.00  0.00    +0.099 C 
ENDBRANCH  13  15
ENDBRANCH   9  13
ENDBRANCH   1  10
BRANCH   4  20
ATOM     20  O   UNL     1      35.410 -19.705 -21.736  0.00  0.00    -0.468 OA
BRANCH  20  21
ATOM     21  C   UNL     1      36.159 -18.532 -21.443  0.00  0.00    +0.264 C 
BRANCH  21  23
ATOM     22  N   UNL     1      34.790 -16.603 -20.927  0.00  0.00    -0.406 NA
ATOM     23  C   UNL     1      35.396 -17.331 -21.893  0.00  0.00    +0.152 C 
ATOM     24  C   UNL     1      33.982 -15.120 -22.645  0.00  0.00    +0.026 C 
ATOM     25  C   UNL     1      34.092 -15.512 -21.295  0.00  0.00    +0.113 C 
ATOM     26  C   UNL     1      35.344 -17.027 -23.238  0.00  0.00    +0.031 C 
ATOM     27  C   UNL     1      34.623 -15.903 -23.615  0.00  0.00    +0.005 C 
ATOM     28  C   UNL     1      33.245 -13.975 -22.993  0.00  0.00    +0.002 C 
ATOM     29  C   UNL     1      33.454 -14.734 -20.333  0.00  0.00    +0.085 C 
ATOM     30  C   UNL     1      32.616 -13.216 -22.011  0.00  0.00    -0.004 C 
ATOM     31  C   UNL     1      32.721 -13.596 -20.679  0.00  0.00    -0.019 C 
ENDBRANCH  21  23
ENDBRANCH  20  21
ENDBRANCH   4  20
TORSDOF 6
ENDMDL
MODEL 4
REMARK VINA RESULT:     -12.2      1.315      2.262
REMARK  Name = 44141871
REMARK  6 active torsions:
REMARK  status: ('A' for Active; 'I' for Inactive)
REMARK    1  A    between atoms: C_1  and  C_10
REMARK    2  A    between atoms: C_4  and  O_20
REMARK    3  A    between atoms: C_9  and  C_13
REMARK    4  A    between atoms: C_13  and  C_15
REMARK    5  A    between atoms: O_20  and  C_21
REMARK    6  A    between atoms: C_21  and  C_23
REMARK                            x       y       z     vdW  Elec       q    Type
REMARK                         _______ _______ _______ _____ _____    ______ ____
ROOT
ATOM      1  C   UNL     1      34.999 -22.093 -18.067  0.00  0.00    +0.015 C 
ATOM      2  C   UNL     1      33.807 -21.771 -18.717  0.00  0.00    +0.004 C 
ATOM      3  C   UNL     1      36.216 -21.644 -18.582  0.00  0.00    +0.004 C 
ATOM      4  C   UNL     1      35.048 -20.552 -20.393  0.00  0.00    +0.139 C 
ATOM      5  C   UNL     1      33.832 -21.000 -19.879  0.00  0.00    +0.037 C 
ATOM      6  C   UNL     1      36.240 -20.873 -19.744  0.00  0.00    +0.037 C 
ENDROOT
BRANCH   1  10
ATOM      7  N   UNL     1      36.109 -23.319 -16.245  0.00  0.00    -0.236 N 
ATOM      8  N   UNL     1      35.880 -24.050 -15.139  0.00  0.00    -0.180 NA
ATOM      9  C   UNL     1      33.928 -23.371 -16.116  0.00  0.00    +0.018 C 
ATOM     10  C   UNL     1      34.974 -22.889 -16.865  0.00  0.00    +0.063 C 
ATOM     11  C   UNL     1      34.546 -24.078 -15.065  0.00  0.00    +0.115 C 
ATOM     12  H   UNL     1      37.013 -23.113 -16.575  0.00  0.00    +0.174 HD
BRANCH   9  13
ATOM     13  C   UNL     1      32.484 -23.197 -16.346  0.00  0.00    +0.056 C 
BRANCH  13  15
ATOM     14  N   UNL     1      29.971 -24.612 -13.132  0.00  0.00    -0.242 NA
ATOM     15  C   UNL     1      31.598 -23.696 -15.213  0.00  0.00    -0.015 C 
ATOM     16  C   UNL     1      31.704 -23.133 -13.945  0.00  0.00    +0.017 C 
ATOM     17  C   UNL     1      30.681 -24.715 -15.441  0.00  0.00    +0.017 C 
ATOM     18  C   UNL     1      30.875 -23.622 -12.948  0.00  0.00    +0.099 C 
ATOM     19  C   UNL     1      29.898 -25.133 -14.377  0.00  0.00    +0.099 C 
ENDBRANCH  13  15
ENDBRANCH   9  13
ENDBRANCH   1  10
BRANCH   4  20
ATOM     20  O   UNL     1      35.072 -19.792 -21.533  0.00  0.00    -0.468 OA
BRANCH  20  21
ATOM     21  C   UNL     1      36.016 -18.730 -21.575  0.00  0.00    +0.264 C 
BRANCH  21  23
ATOM     22  N   UNL     1      35.186 -17.347 -23.380  0.00  0.00    -0.406 NA
ATOM     23  C   UNL     1      35.340 -17.484 -22.043  0.00  0.00    +0.152 C 
ATOM     24  C   UNL     1      34.113 -15.229 -22.970  0.00  0.00    +0.026 C 
ATOM     25  C   UNL     1      34.581 -16.236 -23.840  0.00  0.00    +0.113 C 
ATOM     26  C   UNL     1      34.917 -16.555 -21.116  0.00  0.00    +0.031 C 
ATOM     27  C   UNL     1      34.294 -15.411 -21.593  0.00  0.00    +0.005 C 
ATOM     28  C   UNL     1      33.485 -14.082 -23.485  0.00  0.00    +0.002 C 
ATOM     29  C   UNL     1      34.401 -16.054 -25.209  0.00  0.00    +0.085 C 
ATOM     30  C   UNL     1      33.319 -13.926 -24.859  0.00  0.00    -0.004 C 
ATOM     31  C   UNL     1      33.777 -14.914 -25.721  0.00  0.00    -0.019 C 
ENDBRANCH  21  23
ENDBRANCH  20  21
ENDBRANCH   4  20
TORSDOF 6
ENDMDL
MODEL 5
REMARK VINA RESULT:     -12.2      1.943      9.889
REMARK  Name = 44141871
REMARK  6 active torsions:
REMARK  status: ('A' for Active; 'I' for Inactive)
REMARK    1  A    between atoms: C_1  and  C_10
REMARK    2  A    between atoms: C_4  and  O_20
REMARK    3  A    between atoms: C_9  and  C_13
REMARK    4  A    between atoms: C_13  and  C_15
REMARK    5  A    between atoms: O_20  and  C_21
REMARK    6  A    between atoms: C_21  and  C_23
REMARK                            x       y       z     vdW  Elec       q    Type
REMARK                         _______ _______ _______ _____ _____    ______ ____
ROOT
ATOM      1  C   UNL     1      35.105 -18.997 -21.782  0.00  0.00    +0.015 C 
ATOM      2  C   UNL     1      33.954 -19.611 -21.288  0.00  0.00    +0.004 C 
ATOM      3  C   UNL     1      36.355 -19.340 -21.265  0.00  0.00    +0.004 C 
ATOM      4  C   UNL     1      35.302 -20.913 -19.763  0.00  0.00    +0.139 C 
ATOM      5  C   UNL     1      34.053 -20.569 -20.279  0.00  0.00    +0.037 C 
ATOM      6  C   UNL     1      36.453 -20.298 -20.256  0.00  0.00    +0.037 C 
ENDROOT
BRANCH   1  10
ATOM      7  N   UNL     1      34.952 -18.336 -24.148  0.00  0.00    -0.236 N 
ATOM      8  N   UNL     1      34.859 -17.275 -24.968  0.00  0.00    -0.180 NA
ATOM      9  C   UNL     1      34.940 -16.635 -22.776  0.00  0.00    +0.018 C 
ATOM     10  C   UNL     1      35.003 -18.007 -22.826  0.00  0.00    +0.063 C 
ATOM     11  C   UNL     1      34.852 -16.239 -24.125  0.00  0.00    +0.115 C 
ATOM     12  H   UNL     1      34.979 -19.265 -24.472  0.00  0.00    +0.174 HD
BRANCH   9  13
ATOM     13  C   UNL     1      34.960 -15.764 -21.589  0.00  0.00    +0.056 C 
BRANCH  13  15
ATOM     14  N   UNL     1      32.286 -12.380 -21.803  0.00  0.00    -0.242 NA
ATOM     15  C   UNL     1      34.017 -14.571 -21.664  0.00  0.00    -0.015 C 
ATOM     16  C   UNL     1      34.204 -13.594 -22.637  0.00  0.00    +0.017 C 
ATOM     17  C   UNL     1      32.966 -14.453 -20.762  0.00  0.00    +0.017 C 
ATOM     18  C   UNL     1      33.319 -12.529 -22.663  0.00  0.00    +0.099 C 
ATOM     19  C   UNL     1      32.136 -13.349 -20.873  0.00  0.00    +0.099 C 
ENDBRANCH  13  15
ENDBRANCH   9  13
ENDBRANCH   1  10
BRANCH   4  20
ATOM     20  O   UNL     1      35.400 -21.855 -18.774  0.00  0.00    -0.468 OA
BRANCH  20  21
ATOM     21  C   UNL     1      34.428 -22.894 -18.781  0.00  0.00    +0.264 C 
BRANCH  21  23
ATOM     22  N   UNL     1      32.442 -22.956 -17.399  0.00  0.00    -0.406 NA
ATOM     23  C   UNL     1      33.794 -22.988 -17.433  0.00  0.00    +0.152 C 
ATOM     24  C   UNL     1      32.565 -23.155 -15.001  0.00  0.00    +0.026 C 
ATOM     25  C   UNL     1      31.834 -23.038 -16.201  0.00  0.00    +0.113 C 
ATOM     26  C   UNL     1      34.594 -23.099 -16.315  0.00  0.00    +0.031 C 
ATOM     27  C   UNL     1      33.964 -23.183 -15.081  0.00  0.00    +0.005 C 
ATOM     28  C   UNL     1      31.897 -23.239 -13.768  0.00  0.00    +0.002 C 
ATOM     29  C   UNL     1      30.444 -23.010 -16.120  0.00  0.00    +0.085 C 
ATOM     30  C   UNL     1      30.506 -23.208 -13.716  0.00  0.00    -0.004 C 
ATOM     31  C   UNL     1      29.779 -23.094 -14.894  0.00  0.00    -0.019 C 
ENDBRANCH  21  23
ENDBRANCH  20  21
ENDBRANCH   4  20
TORSDOF 6
ENDMDL
MODEL 6
REMARK VINA RESULT:     -12.0      2.714     10.077
REMARK  Name = 44141871
REMARK  6 active torsions:
REMARK  status: ('A' for Active; 'I' for Inactive)
REMARK    1  A    between atoms: C_1  and  C_10
REMARK    2  A    between atoms: C_4  and  O_20
REMARK    3  A    between atoms: C_9  and  C_13
REMARK    4  A    between atoms: C_13  and  C_15
REMARK    5  A    between atoms: O_20  and  C_21
REMARK    6  A    between atoms: C_21  and  C_23
REMARK                            x       y       z     vdW  Elec       q    Type
REMARK                         _______ _______ _______ _____ _____    ______ ____
ROOT
ATOM      1  C   UNL     1      34.952 -19.814 -21.102  0.00  0.00    +0.015 C 
ATOM      2  C   UNL     1      36.172 -20.224 -20.565  0.00  0.00    +0.004 C 
ATOM      3  C   UNL     1      33.757 -20.290 -20.560  0.00  0.00    +0.004 C 
ATOM      4  C   UNL     1      35.004 -21.584 -18.945  0.00  0.00    +0.139 C 
ATOM      5  C   UNL     1      36.198 -21.108 -19.487  0.00  0.00    +0.037 C 
ATOM      6  C   UNL     1      33.784 -21.174 -19.482  0.00  0.00    +0.037 C 
ENDROOT
BRANCH   1  10
ATOM      7  N   UNL     1      34.863 -19.321 -23.512  0.00  0.00    -0.236 N 
ATOM      8  N   UNL     1      34.849 -18.320 -24.409  0.00  0.00    -0.180 NA
ATOM      9  C   UNL     1      34.953 -17.527 -22.269  0.00  0.00    +0.018 C 
ATOM     10  C   UNL     1      34.925 -18.900 -22.217  0.00  0.00    +0.063 C 
ATOM     11  C   UNL     1      34.904 -17.226 -23.644  0.00  0.00    +0.115 C 
ATOM     12  H   UNL     1      34.832 -20.272 -23.767  0.00  0.00    +0.174 HD
BRANCH   9  13
ATOM     13  C   UNL     1      35.020 -16.574 -21.148  0.00  0.00    +0.056 C 
BRANCH  13  15
ATOM     14  N   UNL     1      32.638 -13.011 -21.680  0.00  0.00    -0.242 NA
ATOM     15  C   UNL     1      34.180 -15.317 -21.335  0.00  0.00    -0.015 C 
ATOM     16  C   UNL     1      33.145 -15.032 -20.452  0.00  0.00    +0.017 C 
ATOM     17  C   UNL     1      34.445 -14.451 -22.390  0.00  0.00    +0.017 C 
ATOM     18  C   UNL     1      32.410 -13.877 -20.666  0.00  0.00    +0.099 C 
ATOM     19  C   UNL     1      33.652 -13.322 -22.517  0.00  0.00    +0.099 C 
ENDBRANCH  13  15
ENDBRANCH   9  13
ENDBRANCH   1  10
BRANCH   4  20
ATOM     20  O   UNL     1      35.030 -22.449 -17.884  0.00  0.00    -0.468 OA
BRANCH  20  21
ATOM     21  C   UNL     1      36.126 -22.331 -16.986  0.00  0.00    +0.264 C 
BRANCH  21  23
ATOM     22  N   UNL     1      36.680 -22.841 -14.686  0.00  0.00    -0.406 NA
ATOM     23  C   UNL     1      35.752 -22.920 -15.667  0.00  0.00    +0.152 C 
ATOM     24  C   UNL     1      35.136 -23.978 -13.227  0.00  0.00    +0.026 C 
ATOM     25  C   UNL     1      36.379 -23.362 -13.482  0.00  0.00    +0.113 C 
ATOM     26  C   UNL     1      34.511 -23.503 -15.513  0.00  0.00    +0.031 C 
ATOM     27  C   UNL     1      34.204 -24.040 -14.271  0.00  0.00    +0.005 C 
ATOM     28  C   UNL     1      34.856 -24.511 -11.957  0.00  0.00    +0.002 C 
ATOM     29  C   UNL     1      37.305 -23.302 -12.444  0.00  0.00    +0.085 C 
ATOM     30  C   UNL     1      35.801 -24.438 -10.938  0.00  0.00    -0.004 C 
ATOM     31  C   UNL     1      37.027 -23.832 -11.181  0.00  0.00    -0.019 C 
ENDBRANCH  21  23
ENDBRANCH  20  21
ENDBRANCH   4  20
TORSDOF 6
ENDMDL
MODEL 7
REMARK VINA RESULT:     -11.9      3.039     10.967
REMARK  Name = 44141871
REMARK  6 active torsions:
REMARK  status: ('A' for Active; 'I' for Inactive)
REMARK    1  A    between atoms: C_1  and  C_10
REMARK    2  A    between atoms: C_4  and  O_20
REMARK    3  A    between atoms: C_9  and  C_13
REMARK    4  A    between atoms: C_13  and  C_15
REMARK    5  A    between atoms: O_20  and  C_21
REMARK    6  A    between atoms: C_21  and  C_23
REMARK                            x       y       z     vdW  Elec       q    Type
REMARK                         _______ _______ _______ _____ _____    ______ ____
ROOT
ATOM      1  C   UNL     1      34.264 -15.476 -23.627  0.00  0.00    +0.015 C 
ATOM      2  C   UNL     1      34.903 -16.644 -24.043  0.00  0.00    +0.004 C 
ATOM      3  C   UNL     1      34.139 -15.196 -22.266  0.00  0.00    +0.004 C 
ATOM      4  C   UNL     1      35.292 -17.253 -21.737  0.00  0.00    +0.139 C 
ATOM      5  C   UNL     1      35.417 -17.532 -23.098  0.00  0.00    +0.037 C 
ATOM      6  C   UNL     1      34.653 -16.084 -21.321  0.00  0.00    +0.037 C 
ENDROOT
BRANCH   1  10
ATOM      7  N   UNL     1      33.093 -14.976 -25.733  0.00  0.00    -0.236 N 
ATOM      8  N   UNL     1      32.671 -13.972 -26.522  0.00  0.00    -0.180 NA
ATOM      9  C   UNL     1      33.733 -13.185 -24.658  0.00  0.00    +0.018 C 
ATOM     10  C   UNL     1      33.734 -14.558 -24.605  0.00  0.00    +0.063 C 
ATOM     11  C   UNL     1      33.065 -12.880 -25.860  0.00  0.00    +0.115 C 
ATOM     12  H   UNL     1      32.951 -15.926 -25.951  0.00  0.00    +0.174 HD
BRANCH   9  13
ATOM     13  C   UNL     1      34.299 -12.235 -23.685  0.00  0.00    +0.056 C 
BRANCH  13  15
ATOM     14  N   UNL     1      31.363  -9.916 -21.528  0.00  0.00    -0.242 NA
ATOM     15  C   UNL     1      33.263 -11.417 -22.924  0.00  0.00    -0.015 C 
ATOM     16  C   UNL     1      32.431 -12.035 -21.996  0.00  0.00    +0.017 C 
ATOM     17  C   UNL     1      33.146 -10.051 -23.155  0.00  0.00    +0.017 C 
ATOM     18  C   UNL     1      31.506 -11.247 -21.331  0.00  0.00    +0.099 C 
ATOM     19  C   UNL     1      32.189  -9.352 -22.437  0.00  0.00    +0.099 C 
ENDBRANCH  13  15
ENDBRANCH   9  13
ENDBRANCH   1  10
BRANCH   4  20
ATOM     20  O   UNL     1      35.799 -18.122 -20.809  0.00  0.00    -0.468 OA
BRANCH  20  21
ATOM     21  C   UNL     1      35.927 -19.481 -21.207  0.00  0.00    +0.264 C 
BRANCH  21  23
ATOM     22  N   UNL     1      35.841 -20.934 -19.273  0.00  0.00    -0.406 NA
ATOM     23  C   UNL     1      35.147 -20.347 -20.274  0.00  0.00    +0.152 C 
ATOM     24  C   UNL     1      33.784 -21.945 -18.531  0.00  0.00    +0.026 C 
ATOM     25  C   UNL     1      35.171 -21.723 -18.411  0.00  0.00    +0.113 C 
ATOM     26  C   UNL     1      33.791 -20.505 -20.472  0.00  0.00    +0.031 C 
ATOM     27  C   UNL     1      33.103 -21.318 -19.583  0.00  0.00    +0.005 C 
ATOM     28  C   UNL     1      33.117 -22.775 -17.613  0.00  0.00    +0.002 C 
ATOM     29  C   UNL     1      35.847 -22.347 -17.366  0.00  0.00    +0.085 C 
ATOM     30  C   UNL     1      33.817 -23.386 -16.577  0.00  0.00    -0.004 C 
ATOM     31  C   UNL     1      35.184 -23.171 -16.453  0.00  0.00    -0.019 C 
ENDBRANCH  21  23
ENDBRANCH  20  21
ENDBRANCH   4  20
TORSDOF 6
ENDMDL
MODEL 8
REMARK VINA RESULT:     -11.8      4.323     11.691
REMARK  Name = 44141871
REMARK  6 active torsions:
REMARK  status: ('A' for Active; 'I' for Inactive)
REMARK    1  A    between atoms: C_1  and  C_10
REMARK    2  A    between atoms: C_4  and  O_20
REMARK    3  A    between atoms: C_9  and  C_13
REMARK    4  A    between atoms: C_13  and  C_15
REMARK    5  A    between atoms: O_20  and  C_21
REMARK    6  A    between atoms: C_21  and  C_23
REMARK                            x       y       z     vdW  Elec       q    Type
REMARK                         _______ _______ _______ _____ _____    ______ ____
ROOT
ATOM      1  C   UNL     1      33.088 -13.268 -21.529  0.00  0.00    +0.015 C 
ATOM      2  C   UNL     1      33.240 -13.392 -22.910  0.00  0.00    +0.004 C 
ATOM      3  C   UNL     1      33.745 -14.153 -20.674  0.00  0.00    +0.004 C 
ATOM      4  C   UNL     1      34.707 -15.284 -22.580  0.00  0.00    +0.139 C 
ATOM      5  C   UNL     1      34.050 -14.399 -23.435  0.00  0.00    +0.037 C 
ATOM      6  C   UNL     1      34.555 -15.160 -21.199  0.00  0.00    +0.037 C 
ENDROOT
BRANCH   1  10
ATOM      7  N   UNL     1      31.542 -12.380 -19.832  0.00  0.00    -0.236 N 
ATOM      8  N   UNL     1      30.820 -11.299 -19.490  0.00  0.00    -0.180 NA
ATOM      9  C   UNL     1      31.976 -10.956 -21.431  0.00  0.00    +0.018 C 
ATOM     10  C   UNL     1      32.252 -12.226 -20.986  0.00  0.00    +0.063 C 
ATOM     11  C   UNL     1      31.090 -10.432 -20.470  0.00  0.00    +0.115 C 
ATOM     12  H   UNL     1      31.556 -13.207 -19.298  0.00  0.00    +0.174 HD
BRANCH   9  13
ATOM     13  C   UNL     1      32.485 -10.283 -22.638  0.00  0.00    +0.056 C 
BRANCH  13  15
ATOM     14  N   UNL     1      32.082  -5.983 -22.597  0.00  0.00    -0.242 NA
ATOM     15  C   UNL     1      32.343  -8.766 -22.623  0.00  0.00    -0.015 C 
ATOM     16  C   UNL     1      31.183  -8.170 -23.107  0.00  0.00    +0.017 C 
ATOM     17  C   UNL     1      33.372  -7.974 -22.127  0.00  0.00    +0.017 C 
ATOM     18  C   UNL     1      31.104  -6.787 -23.072  0.00  0.00    +0.099 C 
ATOM     19  C   UNL     1      33.194  -6.599 -22.136  0.00  0.00    +0.099 C 
ENDBRANCH  13  15
ENDBRANCH   9  13
ENDBRANCH   1  10
BRANCH   4  20
ATOM     20  O   UNL     1      35.504 -16.270 -23.095  0.00  0.00    -0.468 OA
BRANCH  20  21
ATOM     21  C   UNL     1      34.897 -17.537 -23.313  0.00  0.00    +0.264 C 
BRANCH  21  23
ATOM     22  N   UNL     1      34.369 -19.225 -21.659  0.00  0.00    -0.406 NA
ATOM     23  C   UNL     1      35.337 -18.488 -22.250  0.00  0.00    +0.152 C 
ATOM     24  C   UNL     1      36.071 -20.248 -20.296  0.00  0.00    +0.026 C 
ATOM     25  C   UNL     1      34.728 -20.093 -20.696  0.00  0.00    +0.113 C 
ATOM     26  C   UNL     1      36.676 -18.569 -21.927  0.00  0.00    +0.031 C 
ATOM     27  C   UNL     1      37.044 -19.465 -20.933  0.00  0.00    +0.005 C 
ATOM     28  C   UNL     1      36.411 -21.165 -19.287  0.00  0.00    +0.002 C 
ATOM     29  C   UNL     1      33.763 -20.871 -20.062  0.00  0.00    +0.085 C 
ATOM     30  C   UNL     1      35.425 -21.930 -18.670  0.00  0.00    -0.004 C 
ATOM     31  C   UNL     1      34.099 -21.783 -19.059  0.00  0.00    -0.019 C 
ENDBRANCH  21  23
ENDBRANCH  20  21
ENDBRANCH   4  20
TORSDOF 6
ENDMDL
MODEL 9
REMARK VINA RESULT:     -11.8      7.911     12.061
REMARK  Name = 44141871
REMARK  6 active torsions:
REMARK  status: ('A' for Active; 'I' for Inactive)
REMARK    1  A    between atoms: C_1  and  C_10
REMARK    2  A    between atoms: C_4  and  O_20
REMARK    3  A    between atoms: C_9  and  C_13
REMARK    4  A    between atoms: C_13  and  C_15
REMARK    5  A    between atoms: O_20  and  C_21
REMARK    6  A    between atoms: C_21  and  C_23
REMARK                            x       y       z     vdW  Elec       q    Type
REMARK                         _______ _______ _______ _____ _____    ______ ____
ROOT
ATOM      1  C   UNL     1      32.303 -11.924 -20.803  0.00  0.00    +0.015 C 
ATOM      2  C   UNL     1      32.002 -11.124 -19.700  0.00  0.00    +0.004 C 
ATOM      3  C   UNL     1      32.333 -11.365 -22.081  0.00  0.00    +0.004 C 
ATOM      4  C   UNL     1      31.761  -9.209 -21.153  0.00  0.00    +0.139 C 
ATOM      5  C   UNL     1      31.732  -9.767 -19.875  0.00  0.00    +0.037 C 
ATOM      6  C   UNL     1      32.062 -10.008 -22.256  0.00  0.00    +0.037 C 
ENDROOT
BRANCH   1  10
ATOM      7  N   UNL     1      31.890 -14.107 -19.745  0.00  0.00    -0.236 N 
ATOM      8  N   UNL     1      32.299 -15.388 -19.717  0.00  0.00    -0.180 NA
ATOM      9  C   UNL     1      33.511 -14.153 -21.209  0.00  0.00    +0.018 C 
ATOM     10  C   UNL     1      32.583 -13.327 -20.622  0.00  0.00    +0.063 C 
ATOM     11  C   UNL     1      33.289 -15.410 -20.613  0.00  0.00    +0.115 C 
ATOM     12  H   UNL     1      31.157 -13.765 -19.184  0.00  0.00    +0.174 HD
BRANCH   9  13
ATOM     13  C   UNL     1      34.516 -13.814 -22.230  0.00  0.00    +0.056 C 
BRANCH  13  15
ATOM     14  N   UNL     1      34.042 -15.909 -25.977  0.00  0.00    -0.242 NA
ATOM     15  C   UNL     1      34.349 -14.553 -23.552  0.00  0.00    -0.015 C 
ATOM     16  C   UNL     1      35.039 -15.738 -23.780  0.00  0.00    +0.017 C 
ATOM     17  C   UNL     1      33.506 -14.045 -24.534  0.00  0.00    +0.017 C 
ATOM     18  C   UNL     1      34.852 -16.372 -24.998  0.00  0.00    +0.099 C 
ATOM     19  C   UNL     1      33.388 -14.754 -25.718  0.00  0.00    +0.099 C 
ENDBRANCH  13  15
ENDBRANCH   9  13
ENDBRANCH   1  10
BRANCH   4  20
ATOM     20  O   UNL     1      31.499  -7.876 -21.325  0.00  0.00    -0.468 OA
BRANCH  20  21
ATOM     21  C   UNL     1      32.554  -6.971 -21.025  0.00  0.00    +0.264 C 
BRANCH  21  23
ATOM     22  N   UNL     1      32.672  -5.717 -23.092  0.00  0.00    -0.406 NA
ATOM     23  C   UNL     1      33.275  -6.617 -22.283  0.00  0.00    +0.152 C 
ATOM     24  C   UNL     1      34.538  -5.923 -24.601  0.00  0.00    +0.026 C 
ATOM     25  C   UNL     1      33.293  -5.372 -24.236  0.00  0.00    +0.113 C 
ATOM     26  C   UNL     1      34.491  -7.209 -22.555  0.00  0.00    +0.031 C 
ATOM     27  C   UNL     1      35.129  -6.853 -23.735  0.00  0.00    +0.005 C 
ATOM     28  C   UNL     1      35.158  -5.540 -25.803  0.00  0.00    +0.002 C 
ATOM     29  C   UNL     1      32.707  -4.448 -25.097  0.00  0.00    +0.085 C 
ATOM     30  C   UNL     1      34.550  -4.614 -26.646  0.00  0.00    -0.004 C 
ATOM     31  C   UNL     1      33.323  -4.067 -26.292  0.00  0.00    -0.019 C 
ENDBRANCH  21  23
ENDBRANCH  20  21
ENDBRANCH   4  20
TORSDOF 6
ENDMDL
