MODEL 1
REMARK VINA RESULT:     -11.2      0.000      0.000
REMARK  Name = 56832738
REMARK  10 active torsions:
REMARK  status: ('A' for Active; 'I' for Inactive)
REMARK    1  A    between atoms: C_2  and  C_11
REMARK    2  A    between atoms: C_5  and  C_25
REMARK    3  A    between atoms: C_10  and  C_22
REMARK    4  A    between atoms: C_12  and  O_16
REMARK    5  A    between atoms: C_13  and  O_18
REMARK    6  A    between atoms: C_14  and  O_20
REMARK    7  A    between atoms: C_22  and  O_23
REMARK    8  A    between atoms: C_25  and  C_27
REMARK    9  A    between atoms: C_32  and  O_33
REMARK   10  A    between atoms: O_33  and  C_34
REMARK                            x       y       z     vdW  Elec       q    Type
REMARK                         _______ _______ _______ _____ _____    ______ ____
ROOT
ATOM      1 CL   UNL     1      30.900 -22.498 -16.962  0.00  0.00    -0.083 Cl
ATOM      2  C   UNL     1      34.534 -23.745 -14.591  0.00  0.00    +0.031 C 
ATOM      3  C   UNL     1      34.544 -23.871 -15.980  0.00  0.00    -0.003 C 
ATOM      4  C   UNL     1      33.408 -23.235 -13.945  0.00  0.00    +0.001 C 
ATOM      5  C   UNL     1      33.427 -23.488 -16.722  0.00  0.00    -0.007 C 
ATOM      6  C   UNL     1      32.291 -22.852 -14.687  0.00  0.00    +0.011 C 
ATOM      7  C   UNL     1      32.300 -22.979 -16.077  0.00  0.00    +0.054 C 
ENDROOT
BRANCH   2  11
ATOM      8  O   UNL     1      35.394 -24.584 -12.453  0.00  0.00    -0.326 OA
ATOM      9  O   UNL     1      36.649 -23.037 -13.648  0.00  0.00    -0.326 OA
ATOM     10  C   UNL     1      36.610 -24.369 -11.724  0.00  0.00    +0.176 C 
ATOM     11  C   UNL     1      35.748 -24.160 -13.784  0.00  0.00    +0.235 C 
ATOM     12  C   UNL     1      37.592 -25.507 -12.106  0.00  0.00    +0.169 C 
ATOM     13  C   UNL     1      36.535 -25.322 -14.431  0.00  0.00    +0.196 C 
ATOM     14  C   UNL     1      37.810 -25.648 -13.627  0.00  0.00    +0.172 C 
ATOM     15  C   UNL     1      37.014 -23.004 -12.261  0.00  0.00    +0.177 C 
BRANCH  12  16
ATOM     16  O   UNL     1      37.059 -26.741 -11.616  0.00  0.00    -0.379 OA
ATOM     17  H   UNL     1      36.358 -27.050 -12.212  0.00  0.00    +0.211 HD
ENDBRANCH  12  16
BRANCH  13  18
ATOM     18  O   UNL     1      35.714 -26.489 -14.483  0.00  0.00    -0.377 OA
ATOM     19  H   UNL     1      36.155 -27.171 -15.012  0.00  0.00    +0.211 HD
ENDBRANCH  13  18
BRANCH  14  20
ATOM     20  O   UNL     1      38.842 -24.751 -14.040  0.00  0.00    -0.379 OA
ATOM     21  H   UNL     1      38.704 -23.886 -13.624  0.00  0.00    +0.211 HD
ENDBRANCH  14  20
BRANCH  10  22
ATOM     22  C   UNL     1      36.309 -24.335 -10.231  0.00  0.00    +0.169 C 
BRANCH  22  23
ATOM     23  O   UNL     1      35.281 -25.270  -9.956  0.00  0.00    -0.379 OA
ATOM     24  H   UNL     1      34.932 -25.114  -9.064  0.00  0.00    +0.211 HD
ENDBRANCH  22  23
ENDBRANCH  10  22
ENDBRANCH   2  11
BRANCH   5  25
ATOM     25  C   UNL     1      33.476 -23.641 -18.209  0.00  0.00    +0.054 C 
BRANCH  25  27
ATOM     26  F   UNL     1      37.124 -20.814 -19.810  0.00  0.00    -0.201 F 
ATOM     27  C   UNL     1      33.976 -22.409 -18.933  0.00  0.00    -0.015 C 
ATOM     28  C   UNL     1      35.347 -22.171 -19.042  0.00  0.00    +0.029 C 
ATOM     29  C   UNL     1      33.066 -21.511 -19.492  0.00  0.00    -0.001 C 
ATOM     30  C   UNL     1      35.806 -21.037 -19.710  0.00  0.00    +0.174 C 
ATOM     31  C   UNL     1      33.526 -20.377 -20.159  0.00  0.00    +0.039 C 
ATOM     32  C   UNL     1      34.896 -20.139 -20.268  0.00  0.00    +0.166 C 
BRANCH  32  33
ATOM     33  O   UNL     1      35.344 -19.031 -20.919  0.00  0.00    -0.473 OA
BRANCH  33  34
ATOM     34  C   UNL     1      35.315 -19.061 -22.346  0.00  0.00    +0.206 C 
ATOM     35  C   UNL     1      35.268 -17.641 -22.867  0.00  0.00    +0.051 C 
ENDBRANCH  33  34
ENDBRANCH  32  33
ENDBRANCH  25  27
ENDBRANCH   5  25
TORSDOF 10
ENDMDL
MODEL 2
REMARK VINA RESULT:     -10.4      0.948      2.349
REMARK  Name = 56832738
REMARK  10 active torsions:
REMARK  status: ('A' for Active; 'I' for Inactive)
REMARK    1  A    between atoms: C_2  and  C_11
REMARK    2  A    between atoms: C_5  and  C_25
REMARK    3  A    between atoms: C_10  and  C_22
REMARK    4  A    between atoms: C_12  and  O_16
REMARK    5  A    between atoms: C_13  and  O_18
REMARK    6  A    between atoms: C_14  and  O_20
REMARK    7  A    between atoms: C_22  and  O_23
REMARK    8  A    between atoms: C_25  and  C_27
REMARK    9  A    between atoms: C_32  and  O_33
REMARK   10  A    between atoms: O_33  and  C_34
REMARK                            x       y       z     vdW  Elec       q    Type
REMARK                         _______ _______ _______ _____ _____    ______ ____
ROOT
ATOM      1 CL   UNL     1      31.230 -22.434 -16.826  0.00  0.00    -0.083 Cl
ATOM      2  C   UNL     1      34.821 -24.153 -14.697  0.00  0.00    +0.031 C 
ATOM      3  C   UNL     1      34.758 -24.205 -16.089  0.00  0.00    -0.003 C 
ATOM      4  C   UNL     1      33.781 -23.571 -13.973  0.00  0.00    +0.001 C 
ATOM      5  C   UNL     1      33.653 -23.677 -16.757  0.00  0.00    -0.007 C 
ATOM      6  C   UNL     1      32.676 -23.042 -14.641  0.00  0.00    +0.011 C 
ATOM      7  C   UNL     1      32.612 -23.095 -16.034  0.00  0.00    +0.054 C 
ENDROOT
BRANCH   2  11
ATOM      8  O   UNL     1      37.239 -24.033 -14.307  0.00  0.00    -0.326 OA
ATOM      9  O   UNL     1      36.201 -26.110 -14.346  0.00  0.00    -0.326 OA
ATOM     10  C   UNL     1      38.244 -25.016 -14.024  0.00  0.00    +0.176 C 
ATOM     11  C   UNL     1      36.021 -24.726 -13.971  0.00  0.00    +0.235 C 
ATOM     12  C   UNL     1      38.406 -25.092 -12.484  0.00  0.00    +0.169 C 
ATOM     13  C   UNL     1      35.881 -24.668 -12.432  0.00  0.00    +0.196 C 
ATOM     14  C   UNL     1      37.078 -25.345 -11.737  0.00  0.00    +0.172 C 
ATOM     15  C   UNL     1      37.599 -26.251 -14.634  0.00  0.00    +0.177 C 
BRANCH  12  16
ATOM     16  O   UNL     1      38.942 -23.846 -12.028  0.00  0.00    -0.379 OA
ATOM     17  H   UNL     1      39.161 -23.289 -12.791  0.00  0.00    +0.211 HD
ENDBRANCH  12  16
BRANCH  13  18
ATOM     18  O   UNL     1      35.811 -23.307 -12.007  0.00  0.00    -0.377 OA
ATOM     19  H   UNL     1      35.326 -23.254 -11.169  0.00  0.00    +0.211 HD
ENDBRANCH  13  18
BRANCH  14  20
ATOM     20  O   UNL     1      36.830 -26.750 -11.683  0.00  0.00    -0.379 OA
ATOM     21  H   UNL     1      37.287 -27.130 -10.916  0.00  0.00    +0.211 HD
ENDBRANCH  14  20
BRANCH  10  22
ATOM     22  C   UNL     1      39.541 -24.635 -14.728  0.00  0.00    +0.169 C 
BRANCH  22  23
ATOM     23  O   UNL     1      40.629 -25.024 -13.909  0.00  0.00    -0.379 OA
ATOM     24  H   UNL     1      41.382 -24.433 -14.070  0.00  0.00    +0.211 HD
ENDBRANCH  22  23
ENDBRANCH  10  22
ENDBRANCH   2  11
BRANCH   5  25
ATOM     25  C   UNL     1      33.622 -23.755 -18.250  0.00  0.00    +0.054 C 
BRANCH  25  27
ATOM     26  F   UNL     1      37.202 -20.776 -19.724  0.00  0.00    -0.201 F 
ATOM     27  C   UNL     1      34.094 -22.491 -18.938  0.00  0.00    -0.015 C 
ATOM     28  C   UNL     1      35.457 -22.207 -19.017  0.00  0.00    +0.029 C 
ATOM     29  C   UNL     1      33.165 -21.610 -19.491  0.00  0.00    -0.001 C 
ATOM     30  C   UNL     1      35.891 -21.043 -19.651  0.00  0.00    +0.174 C 
ATOM     31  C   UNL     1      33.598 -20.447 -20.124  0.00  0.00    +0.039 C 
ATOM     32  C   UNL     1      34.962 -20.162 -20.204  0.00  0.00    +0.166 C 
BRANCH  32  33
ATOM     33  O   UNL     1      35.384 -19.025 -20.822  0.00  0.00    -0.473 OA
BRANCH  33  34
ATOM     34  C   UNL     1      35.299 -18.992 -22.247  0.00  0.00    +0.206 C 
ATOM     35  C   UNL     1      35.245 -17.549 -22.703  0.00  0.00    +0.051 C 
ENDBRANCH  33  34
ENDBRANCH  32  33
ENDBRANCH  25  27
ENDBRANCH   5  25
TORSDOF 10
ENDMDL
MODEL 3
REMARK VINA RESULT:     -10.2      3.167      4.941
REMARK  Name = 56832738
REMARK  10 active torsions:
REMARK  status: ('A' for Active; 'I' for Inactive)
REMARK    1  A    between atoms: C_2  and  C_11
REMARK    2  A    between atoms: C_5  and  C_25
REMARK    3  A    between atoms: C_10  and  C_22
REMARK    4  A    between atoms: C_12  and  O_16
REMARK    5  A    between atoms: C_13  and  O_18
REMARK    6  A    between atoms: C_14  and  O_20
REMARK    7  A    between atoms: C_22  and  O_23
REMARK    8  A    between atoms: C_25  and  C_27
REMARK    9  A    between atoms: C_32  and  O_33
REMARK   10  A    between atoms: O_33  and  C_34
REMARK                            x       y       z     vdW  Elec       q    Type
REMARK                         _______ _______ _______ _____ _____    ______ ____
ROOT
ATOM      1 CL   UNL     1      37.193 -22.043 -17.316  0.00  0.00    -0.083 Cl
ATOM      2  C   UNL     1      33.270 -23.234 -15.425  0.00  0.00    +0.031 C 
ATOM      3  C   UNL     1      33.416 -23.310 -16.810  0.00  0.00    -0.003 C 
ATOM      4  C   UNL     1      34.332 -22.796 -14.635  0.00  0.00    +0.001 C 
ATOM      5  C   UNL     1      34.624 -22.944 -17.405  0.00  0.00    -0.007 C 
ATOM      6  C   UNL     1      35.540 -22.431 -15.229  0.00  0.00    +0.011 C 
ATOM      7  C   UNL     1      35.686 -22.505 -16.615  0.00  0.00    +0.054 C 
ENDROOT
BRANCH   2  11
ATOM      8  O   UNL     1      31.084 -24.311 -15.701  0.00  0.00    -0.326 OA
ATOM      9  O   UNL     1      31.262 -22.448 -14.326  0.00  0.00    -0.326 OA
ATOM     10  C   UNL     1      29.789 -24.079 -15.132  0.00  0.00    +0.176 C 
ATOM     11  C   UNL     1      31.958 -23.631 -14.779  0.00  0.00    +0.235 C 
ATOM     12  C   UNL     1      29.643 -25.011 -13.902  0.00  0.00    +0.169 C 
ATOM     13  C   UNL     1      32.143 -24.567 -13.562  0.00  0.00    +0.196 C 
ATOM     14  C   UNL     1      30.793 -24.869 -12.881  0.00  0.00    +0.172 C 
ATOM     15  C   UNL     1      29.908 -22.605 -14.773  0.00  0.00    +0.177 C 
BRANCH  12  16
ATOM     16  O   UNL     1      29.626 -26.365 -14.366  0.00  0.00    -0.379 OA
ATOM     17  H   UNL     1      30.400 -26.524 -14.928  0.00  0.00    +0.211 HD
ENDBRANCH  12  16
BRANCH  13  18
ATOM     18  O   UNL     1      32.729 -25.798 -13.987  0.00  0.00    -0.377 OA
ATOM     19  H   UNL     1      33.603 -25.624 -14.370  0.00  0.00    +0.211 HD
ENDBRANCH  13  18
BRANCH  14  20
ATOM     20  O   UNL     1      30.495 -23.799 -11.983  0.00  0.00    -0.379 OA
ATOM     21  H   UNL     1      30.086 -23.069 -12.474  0.00  0.00    +0.211 HD
ENDBRANCH  14  20
BRANCH  10  22
ATOM     22  C   UNL     1      28.717 -24.331 -16.184  0.00  0.00    +0.169 C 
BRANCH  22  23
ATOM     23  O   UNL     1      28.544 -23.147 -16.945  0.00  0.00    -0.379 OA
ATOM     24  H   UNL     1      27.651 -22.798 -16.800  0.00  0.00    +0.211 HD
ENDBRANCH  22  23
ENDBRANCH  10  22
ENDBRANCH   2  11
BRANCH   5  25
ATOM     25  C   UNL     1      34.740 -23.038 -18.892  0.00  0.00    +0.054 C 
BRANCH  25  27
ATOM     26  F   UNL     1      37.269 -19.378 -20.911  0.00  0.00    -0.201 F 
ATOM     27  C   UNL     1      34.798 -21.693 -19.587  0.00  0.00    -0.015 C 
ATOM     28  C   UNL     1      36.030 -21.141 -19.937  0.00  0.00    +0.029 C 
ATOM     29  C   UNL     1      33.618 -21.006 -19.874  0.00  0.00    -0.001 C 
ATOM     30  C   UNL     1      36.082 -19.903 -20.576  0.00  0.00    +0.174 C 
ATOM     31  C   UNL     1      33.671 -19.768 -20.513  0.00  0.00    +0.039 C 
ATOM     32  C   UNL     1      34.903 -19.216 -20.864  0.00  0.00    +0.166 C 
BRANCH  32  33
ATOM     33  O   UNL     1      34.953 -18.007 -21.487  0.00  0.00    -0.473 OA
BRANCH  33  34
ATOM     34  C   UNL     1      35.072 -18.015 -22.910  0.00  0.00    +0.206 C 
ATOM     35  C   UNL     1      34.961 -16.594 -23.421  0.00  0.00    +0.051 C 
ENDBRANCH  33  34
ENDBRANCH  32  33
ENDBRANCH  25  27
ENDBRANCH   5  25
TORSDOF 10
ENDMDL
MODEL 4
REMARK VINA RESULT:      -9.8      1.080      1.961
REMARK  Name = 56832738
REMARK  10 active torsions:
REMARK  status: ('A' for Active; 'I' for Inactive)
REMARK    1  A    between atoms: C_2  and  C_11
REMARK    2  A    between atoms: C_5  and  C_25
REMARK    3  A    between atoms: C_10  and  C_22
REMARK    4  A    between atoms: C_12  and  O_16
REMARK    5  A    between atoms: C_13  and  O_18
REMARK    6  A    between atoms: C_14  and  O_20
REMARK    7  A    between atoms: C_22  and  O_23
REMARK    8  A    between atoms: C_25  and  C_27
REMARK    9  A    between atoms: C_32  and  O_33
REMARK   10  A    between atoms: O_33  and  C_34
REMARK                            x       y       z     vdW  Elec       q    Type
REMARK                         _______ _______ _______ _____ _____    ______ ____
ROOT
ATOM      1 CL   UNL     1      30.593 -22.770 -16.621  0.00  0.00    -0.083 Cl
ATOM      2  C   UNL     1      34.286 -23.519 -14.133  0.00  0.00    +0.031 C 
ATOM      3  C   UNL     1      34.332 -23.725 -15.512  0.00  0.00    -0.003 C 
ATOM      4  C   UNL     1      33.105 -23.082 -13.533  0.00  0.00    +0.001 C 
ATOM      5  C   UNL     1      33.198 -23.496 -16.290  0.00  0.00    -0.007 C 
ATOM      6  C   UNL     1      31.970 -22.853 -14.311  0.00  0.00    +0.011 C 
ATOM      7  C   UNL     1      32.016 -23.060 -15.690  0.00  0.00    +0.054 C 
ENDROOT
BRANCH   2  11
ATOM      8  O   UNL     1      36.156 -25.018 -13.613  0.00  0.00    -0.326 OA
ATOM      9  O   UNL     1      35.147 -23.828 -11.892  0.00  0.00    -0.326 OA
ATOM     10  C   UNL     1      36.869 -25.326 -12.409  0.00  0.00    +0.176 C 
ATOM     11  C   UNL     1      35.519 -23.767 -13.287  0.00  0.00    +0.235 C 
ATOM     12  C   UNL     1      38.117 -24.407 -12.354  0.00  0.00    +0.169 C 
ATOM     13  C   UNL     1      36.590 -22.663 -13.444  0.00  0.00    +0.196 C 
ATOM     14  C   UNL     1      37.783 -22.907 -12.498  0.00  0.00    +0.172 C 
ATOM     15  C   UNL     1      35.811 -24.987 -11.369  0.00  0.00    +0.177 C 
BRANCH  12  16
ATOM     16  O   UNL     1      38.990 -24.773 -13.427  0.00  0.00    -0.379 OA
ATOM     17  H   UNL     1      38.559 -25.443 -13.980  0.00  0.00    +0.211 HD
ENDBRANCH  12  16
BRANCH  13  18
ATOM     18  O   UNL     1      37.067 -22.643 -14.789  0.00  0.00    -0.377 OA
ATOM     19  H   UNL     1      36.502 -22.062 -15.323  0.00  0.00    +0.211 HD
ENDBRANCH  13  18
BRANCH  14  20
ATOM     20  O   UNL     1      37.454 -22.373 -11.215  0.00  0.00    -0.379 OA
ATOM     21  H   UNL     1      36.527 -22.570 -11.011  0.00  0.00    +0.211 HD
ENDBRANCH  14  20
BRANCH  10  22
ATOM     22  C   UNL     1      37.234 -26.805 -12.397  0.00  0.00    +0.169 C 
BRANCH  22  23
ATOM     23  O   UNL     1      37.100 -27.313 -13.713  0.00  0.00    -0.379 OA
ATOM     24  H   UNL     1      36.225 -27.080 -14.062  0.00  0.00    +0.211 HD
ENDBRANCH  22  23
ENDBRANCH  10  22
ENDBRANCH   2  11
BRANCH   5  25
ATOM     25  C   UNL     1      33.288 -23.731 -17.763  0.00  0.00    +0.054 C 
BRANCH  25  27
ATOM     26  F   UNL     1      37.234 -21.245 -19.218  0.00  0.00    -0.201 F 
ATOM     27  C   UNL     1      33.927 -22.590 -18.526  0.00  0.00    -0.015 C 
ATOM     28  C   UNL     1      35.314 -22.437 -18.523  0.00  0.00    +0.029 C 
ATOM     29  C   UNL     1      33.129 -21.689 -19.232  0.00  0.00    -0.001 C 
ATOM     30  C   UNL     1      35.901 -21.386 -19.225  0.00  0.00    +0.174 C 
ATOM     31  C   UNL     1      33.716 -20.638 -19.934  0.00  0.00    +0.039 C 
ATOM     32  C   UNL     1      35.103 -20.486 -19.930  0.00  0.00    +0.166 C 
BRANCH  32  33
ATOM     33  O   UNL     1      35.675 -19.459 -20.616  0.00  0.00    -0.473 OA
BRANCH  33  34
ATOM     34  C   UNL     1      34.867 -18.800 -21.592  0.00  0.00    +0.206 C 
ATOM     35  C   UNL     1      35.203 -19.351 -22.961  0.00  0.00    +0.051 C 
ENDBRANCH  33  34
ENDBRANCH  32  33
ENDBRANCH  25  27
ENDBRANCH   5  25
TORSDOF 10
ENDMDL
MODEL 5
REMARK VINA RESULT:      -8.5      1.459      2.066
REMARK  Name = 56832738
REMARK  10 active torsions:
REMARK  status: ('A' for Active; 'I' for Inactive)
REMARK    1  A    between atoms: C_2  and  C_11
REMARK    2  A    between atoms: C_5  and  C_25
REMARK    3  A    between atoms: C_10  and  C_22
REMARK    4  A    between atoms: C_12  and  O_16
REMARK    5  A    between atoms: C_13  and  O_18
REMARK    6  A    between atoms: C_14  and  O_20
REMARK    7  A    between atoms: C_22  and  O_23
REMARK    8  A    between atoms: C_25  and  C_27
REMARK    9  A    between atoms: C_32  and  O_33
REMARK   10  A    between atoms: O_33  and  C_34
REMARK                            x       y       z     vdW  Elec       q    Type
REMARK                         _______ _______ _______ _____ _____    ______ ____
ROOT
ATOM      1 CL   UNL     1      30.860 -22.521 -16.602  0.00  0.00    -0.083 Cl
ATOM      2  C   UNL     1      34.571 -23.870 -14.410  0.00  0.00    +0.031 C 
ATOM      3  C   UNL     1      34.517 -23.976 -15.800  0.00  0.00    -0.003 C 
ATOM      4  C   UNL     1      33.484 -23.348 -13.708  0.00  0.00    +0.001 C 
ATOM      5  C   UNL     1      33.376 -23.562 -16.487  0.00  0.00    -0.007 C 
ATOM      6  C   UNL     1      32.343 -22.935 -14.395  0.00  0.00    +0.011 C 
ATOM      7  C   UNL     1      32.289 -23.041 -15.786  0.00  0.00    +0.054 C 
ENDROOT
BRANCH   2  11
ATOM      8  O   UNL     1      36.293 -23.307 -12.758  0.00  0.00    -0.326 OA
ATOM      9  O   UNL     1      36.873 -24.592 -14.604  0.00  0.00    -0.326 OA
ATOM     10  C   UNL     1      37.678 -23.650 -12.619  0.00  0.00    +0.176 C 
ATOM     11  C   UNL     1      35.810 -24.319 -13.663  0.00  0.00    +0.235 C 
ATOM     12  C   UNL     1      37.764 -24.890 -11.692  0.00  0.00    +0.169 C 
ATOM     13  C   UNL     1      35.580 -25.599 -12.826  0.00  0.00    +0.196 C 
ATOM     14  C   UNL     1      36.888 -26.071 -12.160  0.00  0.00    +0.172 C 
ATOM     15  C   UNL     1      38.035 -23.943 -14.069  0.00  0.00    +0.177 C 
BRANCH  12  16
ATOM     16  O   UNL     1      37.327 -24.502 -10.385  0.00  0.00    -0.379 OA
ATOM     17  H   UNL     1      36.948 -25.270  -9.930  0.00  0.00    +0.211 HD
ENDBRANCH  12  16
BRANCH  13  18
ATOM     18  O   UNL     1      34.613 -25.340 -11.808  0.00  0.00    -0.377 OA
ATOM     19  H   UNL     1      34.981 -24.713 -11.165  0.00  0.00    +0.211 HD
ENDBRANCH  13  18
BRANCH  14  20
ATOM     20  O   UNL     1      37.618 -26.851 -13.108  0.00  0.00    -0.379 OA
ATOM     21  H   UNL     1      37.029 -27.511 -13.506  0.00  0.00    +0.211 HD
ENDBRANCH  14  20
BRANCH  10  22
ATOM     22  C   UNL     1      38.446 -22.455 -12.067  0.00  0.00    +0.169 C 
BRANCH  22  23
ATOM     23  O   UNL     1      37.617 -21.776 -11.140  0.00  0.00    -0.379 OA
ATOM     24  H   UNL     1      36.934 -22.383 -10.813  0.00  0.00    +0.211 HD
ENDBRANCH  22  23
ENDBRANCH  10  22
ENDBRANCH   2  11
BRANCH   5  25
ATOM     25  C   UNL     1      33.357 -23.694 -17.976  0.00  0.00    +0.054 C 
BRANCH  25  27
ATOM     26  F   UNL     1      32.980 -19.671 -20.721  0.00  0.00    -0.201 F 
ATOM     27  C   UNL     1      33.985 -22.523 -18.702  0.00  0.00    -0.015 C 
ATOM     28  C   UNL     1      33.180 -21.616 -19.392  0.00  0.00    +0.029 C 
ATOM     29  C   UNL     1      35.369 -22.351 -18.681  0.00  0.00    -0.001 C 
ATOM     30  C   UNL     1      33.759 -20.538 -20.060  0.00  0.00    +0.174 C 
ATOM     31  C   UNL     1      35.948 -21.273 -19.349  0.00  0.00    +0.039 C 
ATOM     32  C   UNL     1      35.143 -20.367 -20.039  0.00  0.00    +0.166 C 
BRANCH  32  33
ATOM     33  O   UNL     1      35.710 -19.315 -20.692  0.00  0.00    -0.473 OA
BRANCH  33  34
ATOM     34  C   UNL     1      37.131 -19.203 -20.630  0.00  0.00    +0.206 C 
ATOM     35  C   UNL     1      37.631 -18.569 -21.911  0.00  0.00    +0.051 C 
ENDBRANCH  33  34
ENDBRANCH  32  33
ENDBRANCH  25  27
ENDBRANCH   5  25
TORSDOF 10
ENDMDL
MODEL 6
REMARK VINA RESULT:      -8.4      3.996      5.982
REMARK  Name = 56832738
REMARK  10 active torsions:
REMARK  status: ('A' for Active; 'I' for Inactive)
REMARK    1  A    between atoms: C_2  and  C_11
REMARK    2  A    between atoms: C_5  and  C_25
REMARK    3  A    between atoms: C_10  and  C_22
REMARK    4  A    between atoms: C_12  and  O_16
REMARK    5  A    between atoms: C_13  and  O_18
REMARK    6  A    between atoms: C_14  and  O_20
REMARK    7  A    between atoms: C_22  and  O_23
REMARK    8  A    between atoms: C_25  and  C_27
REMARK    9  A    between atoms: C_32  and  O_33
REMARK   10  A    between atoms: O_33  and  C_34
REMARK                            x       y       z     vdW  Elec       q    Type
REMARK                         _______ _______ _______ _____ _____    ______ ____
ROOT
ATOM      1 CL   UNL     1      36.641 -22.637 -16.007  0.00  0.00    -0.083 Cl
ATOM      2  C   UNL     1      32.213 -23.370 -15.514  0.00  0.00    +0.031 C 
ATOM      3  C   UNL     1      32.792 -23.490 -16.776  0.00  0.00    -0.003 C 
ATOM      4  C   UNL     1      33.000 -23.028 -14.415  0.00  0.00    +0.001 C 
ATOM      5  C   UNL     1      34.159 -23.266 -16.940  0.00  0.00    -0.007 C 
ATOM      6  C   UNL     1      34.367 -22.804 -14.578  0.00  0.00    +0.011 C 
ATOM      7  C   UNL     1      34.947 -22.924 -15.841  0.00  0.00    +0.054 C 
ENDROOT
BRANCH   2  11
ATOM      8  O   UNL     1      29.963 -23.150 -16.466  0.00  0.00    -0.326 OA
ATOM      9  O   UNL     1      30.252 -22.892 -14.176  0.00  0.00    -0.326 OA
ATOM     10  C   UNL     1      28.667 -22.931 -15.897  0.00  0.00    +0.176 C 
ATOM     11  C   UNL     1      30.727 -23.613 -15.335  0.00  0.00    +0.235 C 
ATOM     12  C   UNL     1      28.005 -24.318 -15.688  0.00  0.00    +0.169 C 
ATOM     13  C   UNL     1      30.379 -25.107 -15.139  0.00  0.00    +0.196 C 
ATOM     14  C   UNL     1      28.874 -25.297 -14.869  0.00  0.00    +0.172 C 
ATOM     15  C   UNL     1      29.051 -22.234 -14.600  0.00  0.00    +0.177 C 
BRANCH  12  16
ATOM     16  O   UNL     1      27.771 -24.901 -16.974  0.00  0.00    -0.379 OA
ATOM     17  H   UNL     1      27.859 -24.220 -17.658  0.00  0.00    +0.211 HD
ENDBRANCH  12  16
BRANCH  13  18
ATOM     18  O   UNL     1      30.733 -25.841 -16.311  0.00  0.00    -0.377 OA
ATOM     19  H   UNL     1      31.560 -26.323 -16.153  0.00  0.00    +0.211 HD
ENDBRANCH  13  18
BRANCH  14  20
ATOM     20  O   UNL     1      28.638 -25.083 -13.476  0.00  0.00    -0.379 OA
ATOM     21  H   UNL     1      27.961 -25.703 -13.164  0.00  0.00    +0.211 HD
ENDBRANCH  14  20
BRANCH  10  22
ATOM     22  C   UNL     1      27.852 -22.030 -16.816  0.00  0.00    +0.169 C 
BRANCH  22  23
ATOM     23  O   UNL     1      26.477 -22.223 -16.534  0.00  0.00    -0.379 OA
ATOM     24  H   UNL     1      26.112 -22.885 -17.143  0.00  0.00    +0.211 HD
ENDBRANCH  22  23
ENDBRANCH  10  22
ENDBRANCH   2  11
BRANCH   5  25
ATOM     25  C   UNL     1      34.742 -23.403 -18.310  0.00  0.00    +0.054 C 
BRANCH  25  27
ATOM     26  F   UNL     1      32.250 -19.793 -20.459  0.00  0.00    -0.201 F 
ATOM     27  C   UNL     1      34.698 -22.127 -19.124  0.00  0.00    -0.015 C 
ATOM     28  C   UNL     1      33.472 -21.533 -19.424  0.00  0.00    +0.029 C 
ATOM     29  C   UNL     1      35.883 -21.546 -19.575  0.00  0.00    -0.001 C 
ATOM     30  C   UNL     1      33.431 -20.359 -20.174  0.00  0.00    +0.174 C 
ATOM     31  C   UNL     1      35.842 -20.372 -20.324  0.00  0.00    +0.039 C 
ATOM     32  C   UNL     1      34.616 -19.778 -20.624  0.00  0.00    +0.166 C 
BRANCH  32  33
ATOM     33  O   UNL     1      34.578 -18.631 -21.357  0.00  0.00    -0.473 OA
BRANCH  33  34
ATOM     34  C   UNL     1      35.432 -18.562 -22.499  0.00  0.00    +0.206 C 
ATOM     35  C   UNL     1      34.690 -19.106 -23.701  0.00  0.00    +0.051 C 
ENDBRANCH  33  34
ENDBRANCH  32  33
ENDBRANCH  25  27
ENDBRANCH   5  25
TORSDOF 10
ENDMDL
