MODEL 1
REMARK VINA RESULT:     -12.7      0.000      0.000
REMARK  Name = 119057475
REMARK  5 active torsions:
REMARK  status: ('A' for Active; 'I' for Inactive)
REMARK    1  A    between atoms: N_1  and  C_22
REMARK    2  A    between atoms: C_2  and  N_8
REMARK    3  A    between atoms: N_8  and  C_11
REMARK    4  A    between atoms: C_11  and  C_16
REMARK    5  A    between atoms: C_22  and  C_26
REMARK                            x       y       z     vdW  Elec       q    Type
REMARK                         _______ _______ _______ _____ _____    ______ ____
ROOT
ATOM      1  N   UNL     1      34.380 -22.484 -19.150  0.00  0.00    +0.387 N 
ATOM      2  C   UNL     1      34.835 -19.903 -20.452  0.00  0.00    -0.066 C 
ATOM      3  C   UNL     1      35.717 -21.874 -19.147  0.00  0.00    -0.079 C 
ATOM      4  C   UNL     1      33.328 -21.458 -19.158  0.00  0.00    -0.079 C 
ATOM      5  C   UNL     1      35.919 -20.980 -20.373  0.00  0.00    -0.044 C 
ATOM      6  C   UNL     1      33.449 -20.550 -20.384  0.00  0.00    -0.044 C 
ATOM      7  H   UNL     1      34.289 -23.034 -20.004  0.00  0.00    -0.080 HD
ENDROOT
BRANCH   2   8
ATOM      8  N   UNL     1      34.987 -19.120 -21.676  0.00  0.00    +0.389 N 
ATOM      9  H   UNL     1      34.069 -18.979 -22.099  0.00  0.00    -0.084 HD
ATOM     10  H   UNL     1      35.598 -19.628 -22.316  0.00  0.00    -0.084 HD
BRANCH   8  11
ATOM     11  C   UNL     1      35.585 -17.824 -21.391  0.00  0.00    -0.032 C 
BRANCH  11  16
ATOM     12  O   UNL     1      34.335 -15.874 -25.660  0.00  0.00    -0.467 OA
ATOM     13  O   UNL     1      33.274 -13.628 -24.208  0.00  0.00    -0.453 OA
ATOM     14  N   UNL     1      34.433 -15.684 -21.543  0.00  0.00    -0.151 NA
ATOM     15  N   UNL     1      33.864 -14.663 -22.241  0.00  0.00    -0.107 NA
ATOM     16  C   UNL     1      34.964 -16.727 -22.213  0.00  0.00    +0.062 C 
ATOM     17  C   UNL     1      34.952 -16.818 -23.590  0.00  0.00    +0.056 C 
ATOM     18  C   UNL     1      34.362 -15.783 -24.297  0.00  0.00    +0.194 C 
ATOM     19  C   UNL     1      33.844 -14.712 -23.590  0.00  0.00    +0.278 C 
ATOM     20  C   UNL     1      33.438 -14.922 -26.241  0.00  0.00    +0.253 C 
ATOM     21  C   UNL     1      33.623 -13.563 -25.593  0.00  0.00    +0.254 C 
ENDBRANCH  11  16
ENDBRANCH   8  11
ENDBRANCH   2   8
BRANCH   1  22
ATOM     22  C   UNL     1      34.220 -23.373 -18.000  0.00  0.00    -0.071 C 
BRANCH  22  26
ATOM     23  F   UNL     1      31.305 -22.940 -16.552  0.00  0.00    -0.204 F 
ATOM     24  O   UNL     1      37.754 -23.477 -13.940  0.00  0.00    -0.270 OA
ATOM     25  N   UNL     1      35.587 -23.332 -14.737  0.00  0.00    -0.255 N 
ATOM     26  C   UNL     1      34.345 -22.605 -16.692  0.00  0.00    +0.025 C 
ATOM     27  C   UNL     1      35.766 -22.739 -16.069  0.00  0.00    +0.101 C 
ATOM     28  C   UNL     1      33.466 -23.158 -15.604  0.00  0.00    +0.018 C 
ATOM     29  C   UNL     1      34.233 -23.549 -14.521  0.00  0.00    +0.052 C 
ATOM     30  C   UNL     1      33.731 -24.095 -13.358  0.00  0.00    +0.014 C 
ATOM     31  C   UNL     1      32.094 -23.310 -15.536  0.00  0.00    +0.137 C 
ATOM     32  C   UNL     1      36.545 -23.648 -13.801  0.00  0.00    +0.253 C 
ATOM     33  C   UNL     1      32.350 -24.255 -13.283  0.00  0.00    +0.004 C 
ATOM     34  C   UNL     1      31.539 -23.862 -14.369  0.00  0.00    +0.029 C 
ATOM     35  C   UNL     1      34.699 -24.450 -12.324  0.00  0.00    +0.006 C 
ATOM     36  C   UNL     1      36.012 -24.244 -12.527  0.00  0.00    +0.058 C 
ENDBRANCH  22  26
ENDBRANCH   1  22
TORSDOF 5
ENDMDL
MODEL 2
REMARK VINA RESULT:     -12.4      2.456     11.390
REMARK  Name = 119057475
REMARK  5 active torsions:
REMARK  status: ('A' for Active; 'I' for Inactive)
REMARK    1  A    between atoms: N_1  and  C_22
REMARK    2  A    between atoms: C_2  and  N_8
REMARK    3  A    between atoms: N_8  and  C_11
REMARK    4  A    between atoms: C_11  and  C_16
REMARK    5  A    between atoms: C_22  and  C_26
REMARK                            x       y       z     vdW  Elec       q    Type
REMARK                         _______ _______ _______ _____ _____    ______ ____
ROOT
ATOM      1  N   UNL     1      35.908 -18.549 -21.000  0.00  0.00    +0.387 N 
ATOM      2  C   UNL     1      35.933 -21.248 -19.870  0.00  0.00    -0.066 C 
ATOM      3  C   UNL     1      37.174 -19.279 -20.844  0.00  0.00    -0.079 C 
ATOM      4  C   UNL     1      34.790 -19.469 -21.248  0.00  0.00    -0.079 C 
ATOM      5  C   UNL     1      37.098 -20.274 -19.683  0.00  0.00    -0.044 C 
ATOM      6  C   UNL     1      34.633 -20.471 -20.100  0.00  0.00    -0.044 C 
ATOM      7  H   UNL     1      35.721 -18.056 -20.127  0.00  0.00    -0.080 HD
ENDROOT
BRANCH   2   8
ATOM      8  N   UNL     1      35.817 -22.128 -18.710  0.00  0.00    +0.389 N 
ATOM      9  H   UNL     1      35.999 -23.089 -19.001  0.00  0.00    -0.084 HD
ATOM     10  H   UNL     1      34.874 -22.046 -18.329  0.00  0.00    -0.084 HD
BRANCH   8  11
ATOM     11  C   UNL     1      36.771 -21.753 -17.678  0.00  0.00    -0.032 C 
BRANCH  11  16
ATOM     12  O   UNL     1      38.415 -23.993 -13.694  0.00  0.00    -0.467 OA
ATOM     13  O   UNL     1      35.681 -24.591 -13.025  0.00  0.00    -0.453 OA
ATOM     14  N   UNL     1      35.265 -22.772 -16.057  0.00  0.00    -0.151 NA
ATOM     15  N   UNL     1      35.008 -23.464 -14.913  0.00  0.00    -0.107 NA
ATOM     16  C   UNL     1      36.545 -22.515 -16.400  0.00  0.00    +0.062 C 
ATOM     17  C   UNL     1      37.621 -22.914 -15.633  0.00  0.00    +0.056 C 
ATOM     18  C   UNL     1      37.355 -23.607 -14.464  0.00  0.00    +0.194 C 
ATOM     19  C   UNL     1      36.037 -23.880 -14.144  0.00  0.00    +0.278 C 
ATOM     20  C   UNL     1      38.003 -24.408 -12.388  0.00  0.00    +0.253 C 
ATOM     21  C   UNL     1      36.790 -25.312 -12.482  0.00  0.00    +0.254 C 
ENDBRANCH  11  16
ENDBRANCH   8  11
ENDBRANCH   2   8
BRANCH   1  22
ATOM     22  C   UNL     1      36.013 -17.567 -22.079  0.00  0.00    -0.071 C 
BRANCH  22  26
ATOM     23  F   UNL     1      34.319 -16.079 -19.692  0.00  0.00    -0.204 F 
ATOM     24  O   UNL     1      34.163 -15.369 -26.632  0.00  0.00    -0.270 OA
ATOM     25  N   UNL     1      34.193 -15.526 -24.324  0.00  0.00    -0.255 N 
ATOM     26  C   UNL     1      34.635 -17.125 -22.551  0.00  0.00    +0.025 C 
ATOM     27  C   UNL     1      34.584 -16.923 -24.095  0.00  0.00    +0.101 C 
ATOM     28  C   UNL     1      34.252 -15.763 -22.039  0.00  0.00    +0.018 C 
ATOM     29  C   UNL     1      34.010 -14.904 -23.097  0.00  0.00    +0.052 C 
ATOM     30  C   UNL     1      33.636 -13.582 -22.966  0.00  0.00    +0.014 C 
ATOM     31  C   UNL     1      34.107 -15.288 -20.750  0.00  0.00    +0.137 C 
ATOM     32  C   UNL     1      34.015 -14.868 -25.520  0.00  0.00    +0.253 C 
ATOM     33  C   UNL     1      33.492 -13.094 -21.671  0.00  0.00    +0.004 C 
ATOM     34  C   UNL     1      33.727 -13.946 -20.571  0.00  0.00    +0.029 C 
ATOM     35  C   UNL     1      33.430 -12.831 -24.201  0.00  0.00    +0.006 C 
ATOM     36  C   UNL     1      33.606 -13.426 -25.393  0.00  0.00    +0.058 C 
ENDBRANCH  22  26
ENDBRANCH   1  22
TORSDOF 5
ENDMDL
MODEL 3
REMARK VINA RESULT:     -12.4      2.473     11.013
REMARK  Name = 119057475
REMARK  5 active torsions:
REMARK  status: ('A' for Active; 'I' for Inactive)
REMARK    1  A    between atoms: N_1  and  C_22
REMARK    2  A    between atoms: C_2  and  N_8
REMARK    3  A    between atoms: N_8  and  C_11
REMARK    4  A    between atoms: C_11  and  C_16
REMARK    5  A    between atoms: C_22  and  C_26
REMARK                            x       y       z     vdW  Elec       q    Type
REMARK                         _______ _______ _______ _____ _____    ______ ____
ROOT
ATOM      1  N   UNL     1      35.806 -18.365 -21.103  0.00  0.00    +0.387 N 
ATOM      2  C   UNL     1      35.767 -21.070 -19.988  0.00  0.00    -0.066 C 
ATOM      3  C   UNL     1      37.055 -19.123 -20.946  0.00  0.00    -0.079 C 
ATOM      4  C   UNL     1      34.669 -19.261 -21.361  0.00  0.00    -0.079 C 
ATOM      5  C   UNL     1      36.952 -20.123 -19.790  0.00  0.00    -0.044 C 
ATOM      6  C   UNL     1      34.486 -20.265 -20.220  0.00  0.00    -0.044 C 
ATOM      7  H   UNL     1      35.625 -17.873 -20.228  0.00  0.00    -0.080 HD
ENDROOT
BRANCH   2   8
ATOM      8  N   UNL     1      35.627 -21.954 -18.833  0.00  0.00    +0.389 N 
ATOM      9  H   UNL     1      35.451 -21.390 -18.000  0.00  0.00    -0.084 HD
ATOM     10  H   UNL     1      36.489 -22.488 -18.723  0.00  0.00    -0.084 HD
BRANCH   8  11
ATOM     11  C   UNL     1      34.523 -22.883 -19.022  0.00  0.00    -0.032 C 
BRANCH  11  16
ATOM     12  O   UNL     1      33.763 -24.114 -14.385  0.00  0.00    -0.467 OA
ATOM     13  O   UNL     1      31.078 -23.119 -14.668  0.00  0.00    -0.453 OA
ATOM     14  N   UNL     1      32.395 -22.473 -17.912  0.00  0.00    -0.151 NA
ATOM     15  N   UNL     1      31.560 -22.531 -16.838  0.00  0.00    -0.107 NA
ATOM     16  C   UNL     1      33.645 -22.967 -17.803  0.00  0.00    +0.062 C 
ATOM     17  C   UNL     1      34.131 -23.527 -16.638  0.00  0.00    +0.056 C 
ATOM     18  C   UNL     1      33.283 -23.573 -15.544  0.00  0.00    +0.194 C 
ATOM     19  C   UNL     1      31.997 -23.082 -15.686  0.00  0.00    +0.278 C 
ATOM     20  C   UNL     1      32.918 -23.819 -13.269  0.00  0.00    +0.253 C 
ATOM     21  C   UNL     1      31.463 -24.034 -13.639  0.00  0.00    +0.254 C 
ENDBRANCH  11  16
ENDBRANCH   8  11
ENDBRANCH   2   8
BRANCH   1  22
ATOM     22  C   UNL     1      35.936 -17.381 -22.177  0.00  0.00    -0.071 C 
BRANCH  22  26
ATOM     23  F   UNL     1      34.155 -15.909 -19.843  0.00  0.00    -0.204 F 
ATOM     24  O   UNL     1      34.213 -15.193 -26.784  0.00  0.00    -0.270 OA
ATOM     25  N   UNL     1      34.172 -15.352 -24.476  0.00  0.00    -0.255 N 
ATOM     26  C   UNL     1      34.570 -16.949 -22.692  0.00  0.00    +0.025 C 
ATOM     27  C   UNL     1      34.566 -16.746 -24.236  0.00  0.00    +0.101 C 
ATOM     28  C   UNL     1      34.160 -15.592 -22.191  0.00  0.00    +0.018 C 
ATOM     29  C   UNL     1      33.944 -14.733 -23.255  0.00  0.00    +0.052 C 
ATOM     30  C   UNL     1      33.556 -13.414 -23.136  0.00  0.00    +0.014 C 
ATOM     31  C   UNL     1      33.970 -15.119 -20.907  0.00  0.00    +0.137 C 
ATOM     32  C   UNL     1      34.026 -14.694 -25.677  0.00  0.00    +0.253 C 
ATOM     33  C   UNL     1      33.367 -12.930 -21.845  0.00  0.00    +0.004 C 
ATOM     34  C   UNL     1      33.573 -13.781 -20.739  0.00  0.00    +0.029 C 
ATOM     35  C   UNL     1      33.383 -12.664 -24.376  0.00  0.00    +0.006 C 
ATOM     36  C   UNL     1      33.601 -13.256 -25.562  0.00  0.00    +0.058 C 
ENDBRANCH  22  26
ENDBRANCH   1  22
TORSDOF 5
ENDMDL
MODEL 4
REMARK VINA RESULT:     -12.4      1.095      1.588
REMARK  Name = 119057475
REMARK  5 active torsions:
REMARK  status: ('A' for Active; 'I' for Inactive)
REMARK    1  A    between atoms: N_1  and  C_22
REMARK    2  A    between atoms: C_2  and  N_8
REMARK    3  A    between atoms: N_8  and  C_11
REMARK    4  A    between atoms: C_11  and  C_16
REMARK    5  A    between atoms: C_22  and  C_26
REMARK                            x       y       z     vdW  Elec       q    Type
REMARK                         _______ _______ _______ _____ _____    ______ ____
ROOT
ATOM      1  N   UNL     1      34.908 -21.654 -18.506  0.00  0.00    +0.387 N 
ATOM      2  C   UNL     1      34.844 -20.369 -21.134  0.00  0.00    -0.066 C 
ATOM      3  C   UNL     1      33.671 -21.645 -19.300  0.00  0.00    -0.079 C 
ATOM      4  C   UNL     1      36.096 -21.670 -19.371  0.00  0.00    -0.079 C 
ATOM      5  C   UNL     1      33.616 -20.424 -20.222  0.00  0.00    -0.044 C 
ATOM      6  C   UNL     1      36.123 -20.450 -20.295  0.00  0.00    -0.044 C 
ATOM      7  H   UNL     1      34.932 -20.797 -17.954  0.00  0.00    -0.080 HD
ENDROOT
BRANCH   2   8
ATOM      8  N   UNL     1      34.822 -19.150 -21.939  0.00  0.00    +0.389 N 
ATOM      9  H   UNL     1      33.855 -18.916 -22.164  0.00  0.00    -0.084 HD
ATOM     10  H   UNL     1      35.355 -19.313 -22.793  0.00  0.00    -0.084 HD
BRANCH   8  11
ATOM     11  C   UNL     1      35.426 -18.041 -21.216  0.00  0.00    -0.032 C 
BRANCH  11  16
ATOM     12  O   UNL     1      34.126 -15.071 -24.833  0.00  0.00    -0.467 OA
ATOM     13  O   UNL     1      33.676 -13.028 -22.857  0.00  0.00    -0.453 OA
ATOM     14  N   UNL     1      34.696 -15.754 -20.807  0.00  0.00    -0.151 NA
ATOM     15  N   UNL     1      34.262 -14.531 -21.218  0.00  0.00    -0.107 NA
ATOM     16  C   UNL     1      34.943 -16.710 -21.726  0.00  0.00    +0.062 C 
ATOM     17  C   UNL     1      34.767 -16.511 -23.080  0.00  0.00    +0.056 C 
ATOM     18  C   UNL     1      34.315 -15.270 -23.495  0.00  0.00    +0.194 C 
ATOM     19  C   UNL     1      34.090 -14.297 -22.536  0.00  0.00    +0.278 C 
ATOM     20  C   UNL     1      33.372 -13.883 -25.095  0.00  0.00    +0.253 C 
ATOM     21  C   UNL     1      33.881 -12.738 -24.242  0.00  0.00    +0.254 C 
ENDBRANCH  11  16
ENDBRANCH   8  11
ENDBRANCH   2   8
BRANCH   1  22
ATOM     22  C   UNL     1      34.923 -22.798 -17.594  0.00  0.00    -0.071 C 
BRANCH  22  26
ATOM     23  F   UNL     1      32.535 -22.538 -15.356  0.00  0.00    -0.204 F 
ATOM     24  O   UNL     1      39.287 -24.198 -14.771  0.00  0.00    -0.270 OA
ATOM     25  N   UNL     1      37.032 -23.696 -14.900  0.00  0.00    -0.255 N 
ATOM     26  C   UNL     1      35.465 -22.402 -16.228  0.00  0.00    +0.025 C 
ATOM     27  C   UNL     1      36.963 -22.796 -16.059  0.00  0.00    +0.101 C 
ATOM     28  C   UNL     1      34.810 -23.150 -15.101  0.00  0.00    +0.018 C 
ATOM     29  C   UNL     1      35.756 -23.861 -14.383  0.00  0.00    +0.052 C 
ATOM     30  C   UNL     1      35.480 -24.650 -13.284  0.00  0.00    +0.014 C 
ATOM     31  C   UNL     1      33.488 -23.214 -14.703  0.00  0.00    +0.137 C 
ATOM     32  C   UNL     1      38.137 -24.310 -14.354  0.00  0.00    +0.253 C 
ATOM     33  C   UNL     1      34.150 -24.721 -12.879  0.00  0.00    +0.004 C 
ATOM     34  C   UNL     1      33.162 -24.005 -13.588  0.00  0.00    +0.029 C 
ATOM     35  C   UNL     1      36.612 -25.327 -12.659  0.00  0.00    +0.006 C 
ATOM     36  C   UNL     1      37.852 -25.173 -13.155  0.00  0.00    +0.058 C 
ENDBRANCH  22  26
ENDBRANCH   1  22
TORSDOF 5
ENDMDL
MODEL 5
REMARK VINA RESULT:     -12.2      2.701     11.143
REMARK  Name = 119057475
REMARK  5 active torsions:
REMARK  status: ('A' for Active; 'I' for Inactive)
REMARK    1  A    between atoms: N_1  and  C_22
REMARK    2  A    between atoms: C_2  and  N_8
REMARK    3  A    between atoms: N_8  and  C_11
REMARK    4  A    between atoms: C_11  and  C_16
REMARK    5  A    between atoms: C_22  and  C_26
REMARK                            x       y       z     vdW  Elec       q    Type
REMARK                         _______ _______ _______ _____ _____    ______ ____
ROOT
ATOM      1  N   UNL     1      34.934 -19.226 -21.172  0.00  0.00    +0.387 N 
ATOM      2  C   UNL     1      35.285 -21.607 -19.507  0.00  0.00    -0.066 C 
ATOM      3  C   UNL     1      36.243 -19.889 -21.087  0.00  0.00    -0.079 C 
ATOM      4  C   UNL     1      33.837 -20.192 -21.013  0.00  0.00    -0.079 C 
ATOM      5  C   UNL     1      36.414 -20.603 -19.743  0.00  0.00    -0.044 C 
ATOM      6  C   UNL     1      33.928 -20.916 -19.667  0.00  0.00    -0.044 C 
ATOM      7  H   UNL     1      34.873 -18.554 -20.407  0.00  0.00    -0.080 HD
ENDROOT
BRANCH   2   8
ATOM      8  N   UNL     1      35.412 -22.209 -18.182  0.00  0.00    +0.389 N 
ATOM      9  H   UNL     1      35.732 -21.500 -17.522  0.00  0.00    -0.084 HD
ATOM     10  H   UNL     1      36.083 -22.975 -18.233  0.00  0.00    -0.084 HD
BRANCH   8  11
ATOM     11  C   UNL     1      34.134 -22.739 -17.729  0.00  0.00    -0.032 C 
BRANCH  11  16
ATOM     12  O   UNL     1      36.513 -23.374 -13.543  0.00  0.00    -0.467 OA
ATOM     13  O   UNL     1      34.056 -24.355 -12.412  0.00  0.00    -0.453 OA
ATOM     14  N   UNL     1      33.025 -23.580 -15.730  0.00  0.00    -0.151 NA
ATOM     15  N   UNL     1      33.015 -23.969 -14.426  0.00  0.00    -0.107 NA
ATOM     16  C   UNL     1      34.178 -23.151 -16.282  0.00  0.00    +0.062 C 
ATOM     17  C   UNL     1      35.363 -23.075 -15.578  0.00  0.00    +0.056 C 
ATOM     18  C   UNL     1      35.347 -23.460 -14.248  0.00  0.00    +0.194 C 
ATOM     19  C   UNL     1      34.158 -23.919 -13.710  0.00  0.00    +0.278 C 
ATOM     20  C   UNL     1      36.295 -23.495 -12.133  0.00  0.00    +0.253 C 
ATOM     21  C   UNL     1      35.338 -24.635 -11.845  0.00  0.00    +0.254 C 
ENDBRANCH  11  16
ENDBRANCH   8  11
ENDBRANCH   2   8
BRANCH   1  22
ATOM     22  C   UNL     1      34.804 -18.507 -22.439  0.00  0.00    -0.071 C 
BRANCH  22  26
ATOM     23  F   UNL     1      35.519 -17.133 -25.334  0.00  0.00    -0.204 F 
ATOM     24  O   UNL     1      33.078 -14.424 -19.385  0.00  0.00    -0.270 OA
ATOM     25  N   UNL     1      33.847 -15.264 -21.399  0.00  0.00    -0.255 N 
ATOM     26  C   UNL     1      35.227 -17.053 -22.288  0.00  0.00    +0.025 C 
ATOM     27  C   UNL     1      34.663 -16.413 -20.984  0.00  0.00    +0.101 C 
ATOM     28  C   UNL     1      34.649 -16.164 -23.355  0.00  0.00    +0.018 C 
ATOM     29  C   UNL     1      33.880 -15.166 -22.782  0.00  0.00    +0.052 C 
ATOM     30  C   UNL     1      33.212 -14.185 -23.487  0.00  0.00    +0.014 C 
ATOM     31  C   UNL     1      34.779 -16.196 -24.730  0.00  0.00    +0.137 C 
ATOM     32  C   UNL     1      33.140 -14.383 -20.611  0.00  0.00    +0.253 C 
ATOM     33  C   UNL     1      33.336 -14.213 -24.873  0.00  0.00    +0.004 C 
ATOM     34  C   UNL     1      34.117 -15.215 -25.488  0.00  0.00    +0.029 C 
ATOM     35  C   UNL     1      32.446 -13.219 -22.707  0.00  0.00    +0.006 C 
ATOM     36  C   UNL     1      32.409 -13.307 -21.366  0.00  0.00    +0.058 C 
ENDBRANCH  22  26
ENDBRANCH   1  22
TORSDOF 5
ENDMDL
MODEL 6
REMARK VINA RESULT:     -12.2      2.962     11.164
REMARK  Name = 119057475
REMARK  5 active torsions:
REMARK  status: ('A' for Active; 'I' for Inactive)
REMARK    1  A    between atoms: N_1  and  C_22
REMARK    2  A    between atoms: C_2  and  N_8
REMARK    3  A    between atoms: N_8  and  C_11
REMARK    4  A    between atoms: C_11  and  C_16
REMARK    5  A    between atoms: C_22  and  C_26
REMARK                            x       y       z     vdW  Elec       q    Type
REMARK                         _______ _______ _______ _____ _____    ______ ____
ROOT
ATOM      1  N   UNL     1      35.018 -19.162 -21.212  0.00  0.00    +0.387 N 
ATOM      2  C   UNL     1      35.341 -21.551 -19.554  0.00  0.00    -0.066 C 
ATOM      3  C   UNL     1      36.323 -19.831 -21.117  0.00  0.00    -0.079 C 
ATOM      4  C   UNL     1      33.916 -20.124 -21.069  0.00  0.00    -0.079 C 
ATOM      5  C   UNL     1      36.478 -20.551 -19.774  0.00  0.00    -0.044 C 
ATOM      6  C   UNL     1      33.989 -20.853 -19.726  0.00  0.00    -0.044 C 
ATOM      7  H   UNL     1      34.952 -18.493 -20.445  0.00  0.00    -0.080 HD
ENDROOT
BRANCH   2   8
ATOM      8  N   UNL     1      35.451 -22.160 -18.230  0.00  0.00    +0.389 N 
ATOM      9  H   UNL     1      35.415 -23.175 -18.325  0.00  0.00    -0.084 HD
ATOM     10  H   UNL     1      34.678 -21.830 -17.652  0.00  0.00    -0.084 HD
BRANCH   8  11
ATOM     11  C   UNL     1      36.704 -21.785 -17.591  0.00  0.00    -0.032 C 
BRANCH  11  16
ATOM     12  O   UNL     1      34.949 -23.535 -13.413  0.00  0.00    -0.467 OA
ATOM     13  O   UNL     1      37.632 -24.316 -12.730  0.00  0.00    -0.453 OA
ATOM     14  N   UNL     1      38.133 -22.877 -15.948  0.00  0.00    -0.151 NA
ATOM     15  N   UNL     1      38.350 -23.500 -14.757  0.00  0.00    -0.107 NA
ATOM     16  C   UNL     1      36.885 -22.475 -16.265  0.00  0.00    +0.062 C 
ATOM     17  C   UNL     1      35.800 -22.676 -15.437  0.00  0.00    +0.056 C 
ATOM     18  C   UNL     1      36.021 -23.321 -14.231  0.00  0.00    +0.194 C 
ATOM     19  C   UNL     1      37.313 -23.703 -13.916  0.00  0.00    +0.278 C 
ATOM     20  C   UNL     1      35.249 -24.470 -12.372  0.00  0.00    +0.253 C 
ATOM     21  C   UNL     1      36.598 -24.155 -11.756  0.00  0.00    +0.254 C 
ENDBRANCH  11  16
ENDBRANCH   8  11
ENDBRANCH   2   8
BRANCH   1  22
ATOM     22  C   UNL     1      34.905 -18.438 -22.477  0.00  0.00    -0.071 C 
BRANCH  22  26
ATOM     23  F   UNL     1      35.563 -16.995 -25.353  0.00  0.00    -0.204 F 
ATOM     24  O   UNL     1      33.063 -14.462 -19.351  0.00  0.00    -0.270 OA
ATOM     25  N   UNL     1      33.849 -15.245 -21.381  0.00  0.00    -0.255 N 
ATOM     26  C   UNL     1      35.282 -16.973 -22.305  0.00  0.00    +0.025 C 
ATOM     27  C   UNL     1      34.703 -16.373 -20.989  0.00  0.00    +0.101 C 
ATOM     28  C   UNL     1      34.671 -16.086 -23.354  0.00  0.00    +0.018 C 
ATOM     29  C   UNL     1      33.873 -15.123 -22.763  0.00  0.00    +0.052 C 
ATOM     30  C   UNL     1      33.171 -14.153 -23.449  0.00  0.00    +0.014 C 
ATOM     31  C   UNL     1      34.796 -16.091 -24.730  0.00  0.00    +0.137 C 
ATOM     32  C   UNL     1      33.118 -14.400 -20.576  0.00  0.00    +0.253 C 
ATOM     33  C   UNL     1      33.289 -14.154 -24.836  0.00  0.00    +0.004 C 
ATOM     34  C   UNL     1      34.099 -15.120 -25.470  0.00  0.00    +0.029 C 
ATOM     35  C   UNL     1      32.377 -13.224 -22.650  0.00  0.00    +0.006 C 
ATOM     36  C   UNL     1      32.349 -13.336 -21.311  0.00  0.00    +0.058 C 
ENDBRANCH  22  26
ENDBRANCH   1  22
TORSDOF 5
ENDMDL
MODEL 7
REMARK VINA RESULT:     -12.2      4.158     11.647
REMARK  Name = 119057475
REMARK  5 active torsions:
REMARK  status: ('A' for Active; 'I' for Inactive)
REMARK    1  A    between atoms: N_1  and  C_22
REMARK    2  A    between atoms: C_2  and  N_8
REMARK    3  A    between atoms: N_8  and  C_11
REMARK    4  A    between atoms: C_11  and  C_16
REMARK    5  A    between atoms: C_22  and  C_26
REMARK                            x       y       z     vdW  Elec       q    Type
REMARK                         _______ _______ _______ _____ _____    ______ ____
ROOT
ATOM      1  N   UNL     1      34.278 -14.439 -22.668  0.00  0.00    +0.387 N 
ATOM      2  C   UNL     1      35.089 -17.250 -22.627  0.00  0.00    -0.066 C 
ATOM      3  C   UNL     1      34.802 -15.045 -21.435  0.00  0.00    -0.079 C 
ATOM      4  C   UNL     1      34.874 -15.059 -23.860  0.00  0.00    -0.079 C 
ATOM      5  C   UNL     1      34.515 -16.549 -21.395  0.00  0.00    -0.044 C 
ATOM      6  C   UNL     1      34.589 -16.563 -23.901  0.00  0.00    -0.044 C 
ATOM      7  H   UNL     1      33.272 -14.606 -22.696  0.00  0.00    -0.080 HD
ENDROOT
BRANCH   2   8
ATOM      8  N   UNL     1      34.726 -18.666 -22.619  0.00  0.00    +0.389 N 
ATOM      9  H   UNL     1      34.787 -19.031 -23.570  0.00  0.00    -0.084 HD
ATOM     10  H   UNL     1      33.775 -18.758 -22.264  0.00  0.00    -0.084 HD
BRANCH   8  11
ATOM     11  C   UNL     1      35.621 -19.425 -21.758  0.00  0.00    -0.032 C 
BRANCH  11  16
ATOM     12  O   UNL     1      35.482 -22.441 -17.954  0.00  0.00    -0.467 OA
ATOM     13  O   UNL     1      32.611 -22.329 -18.099  0.00  0.00    -0.453 OA
ATOM     14  N   UNL     1      33.519 -20.155 -20.768  0.00  0.00    -0.151 NA
ATOM     15  N   UNL     1      32.790 -20.866 -19.864  0.00  0.00    -0.107 NA
ATOM     16  C   UNL     1      34.865 -20.226 -20.732  0.00  0.00    +0.062 C 
ATOM     17  C   UNL     1      35.552 -20.985 -19.806  0.00  0.00    +0.056 C 
ATOM     18  C   UNL     1      34.808 -21.698 -18.881  0.00  0.00    +0.194 C 
ATOM     19  C   UNL     1      33.428 -21.629 -18.951  0.00  0.00    +0.278 C 
ATOM     20  C   UNL     1      34.629 -22.863 -16.885  0.00  0.00    +0.253 C 
ATOM     21  C   UNL     1      33.314 -23.381 -17.435  0.00  0.00    +0.254 C 
ENDBRANCH  11  16
ENDBRANCH   8  11
ENDBRANCH   2   8
BRANCH   1  22
ATOM     22  C   UNL     1      34.515 -12.996 -22.669  0.00  0.00    -0.071 C 
BRANCH  22  26
ATOM     23  F   UNL     1      32.093 -13.907 -20.648  0.00  0.00    -0.204 F 
ATOM     24  O   UNL     1      33.415  -7.868 -23.884  0.00  0.00    -0.270 OA
ATOM     25  N   UNL     1      32.941  -9.828 -22.750  0.00  0.00    -0.255 N 
ATOM     26  C   UNL     1      33.228 -12.231 -22.944  0.00  0.00    +0.025 C 
ATOM     27  C   UNL     1      33.499 -10.861 -23.634  0.00  0.00    +0.101 C 
ATOM     28  C   UNL     1      32.514 -11.819 -21.686  0.00  0.00    +0.018 C 
ATOM     29  C   UNL     1      32.379 -10.443 -21.640  0.00  0.00    +0.052 C 
ATOM     30  C   UNL     1      31.768  -9.745 -20.618  0.00  0.00    +0.014 C 
ATOM     31  C   UNL     1      31.999 -12.572 -20.648  0.00  0.00    +0.137 C 
ATOM     32  C   UNL     1      32.934  -8.462 -22.923  0.00  0.00    +0.253 C 
ATOM     33  C   UNL     1      31.250 -10.497 -19.567  0.00  0.00    +0.004 C 
ATOM     34  C   UNL     1      31.367 -11.903 -19.586  0.00  0.00    +0.029 C 
ATOM     35  C   UNL     1      31.727  -8.292 -20.744  0.00  0.00    +0.006 C 
ATOM     36  C   UNL     1      32.269  -7.689 -21.816  0.00  0.00    +0.058 C 
ENDBRANCH  22  26
ENDBRANCH   1  22
TORSDOF 5
ENDMDL
MODEL 8
REMARK VINA RESULT:     -12.2      2.089      2.824
REMARK  Name = 119057475
REMARK  5 active torsions:
REMARK  status: ('A' for Active; 'I' for Inactive)
REMARK    1  A    between atoms: N_1  and  C_22
REMARK    2  A    between atoms: C_2  and  N_8
REMARK    3  A    between atoms: N_8  and  C_11
REMARK    4  A    between atoms: C_11  and  C_16
REMARK    5  A    between atoms: C_22  and  C_26
REMARK                            x       y       z     vdW  Elec       q    Type
REMARK                         _______ _______ _______ _____ _____    ______ ____
ROOT
ATOM      1  N   UNL     1      35.023 -21.821 -18.898  0.00  0.00    +0.387 N 
ATOM      2  C   UNL     1      34.829 -19.811 -21.017  0.00  0.00    -0.066 C 
ATOM      3  C   UNL     1      36.204 -21.041 -19.295  0.00  0.00    -0.079 C 
ATOM      4  C   UNL     1      33.788 -21.044 -19.077  0.00  0.00    -0.079 C 
ATOM      5  C   UNL     1      36.112 -20.605 -20.760  0.00  0.00    -0.044 C 
ATOM      6  C   UNL     1      33.614 -20.609 -20.535  0.00  0.00    -0.044 C 
ATOM      7  H   UNL     1      34.970 -22.639 -19.505  0.00  0.00    -0.080 HD
ENDROOT
BRANCH   2   8
ATOM      8  N   UNL     1      34.712 -19.486 -22.437  0.00  0.00    +0.389 N 
ATOM      9  H   UNL     1      33.791 -19.081 -22.611  0.00  0.00    -0.084 HD
ATOM     10  H   UNL     1      34.832 -20.340 -22.980  0.00  0.00    -0.084 HD
BRANCH   8  11
ATOM     11  C   UNL     1      35.735 -18.532 -22.835  0.00  0.00    -0.032 C 
BRANCH  11  16
ATOM     12  O   UNL     1      33.984 -15.439 -26.147  0.00  0.00    -0.467 OA
ATOM     13  O   UNL     1      33.597 -13.540 -24.020  0.00  0.00    -0.453 OA
ATOM     14  N   UNL     1      34.925 -16.316 -22.229  0.00  0.00    -0.151 NA
ATOM     15  N   UNL     1      34.396 -15.098 -22.529  0.00  0.00    -0.107 NA
ATOM     16  C   UNL     1      35.143 -17.203 -23.222  0.00  0.00    +0.062 C 
ATOM     17  C   UNL     1      34.844 -16.938 -24.543  0.00  0.00    +0.056 C 
ATOM     18  C   UNL     1      34.295 -15.702 -24.843  0.00  0.00    +0.194 C 
ATOM     19  C   UNL     1      34.102 -14.799 -23.812  0.00  0.00    +0.278 C 
ATOM     20  C   UNL     1      33.151 -14.283 -26.274  0.00  0.00    +0.253 C 
ATOM     21  C   UNL     1      33.670 -13.161 -25.397  0.00  0.00    +0.254 C 
ENDBRANCH  11  16
ENDBRANCH   8  11
ENDBRANCH   2   8
BRANCH   1  22
ATOM     22  C   UNL     1      35.148 -22.272 -17.513  0.00  0.00    -0.071 C 
BRANCH  22  26
ATOM     23  F   UNL     1      36.396 -24.468 -15.416  0.00  0.00    -0.204 F 
ATOM     24  O   UNL     1      29.837 -22.432 -16.648  0.00  0.00    -0.270 OA
ATOM     25  N   UNL     1      31.991 -23.122 -16.162  0.00  0.00    -0.255 N 
ATOM     26  C   UNL     1      34.163 -23.392 -17.212  0.00  0.00    +0.025 C 
ATOM     27  C   UNL     1      32.687 -22.951 -17.444  0.00  0.00    +0.101 C 
ATOM     28  C   UNL     1      34.153 -23.786 -15.760  0.00  0.00    +0.018 C 
ATOM     29  C   UNL     1      32.889 -23.613 -15.225  0.00  0.00    +0.052 C 
ATOM     30  C   UNL     1      32.544 -23.885 -13.917  0.00  0.00    +0.014 C 
ATOM     31  C   UNL     1      35.158 -24.273 -14.947  0.00  0.00    +0.137 C 
ATOM     32  C   UNL     1      30.672 -22.865 -15.859  0.00  0.00    +0.253 C 
ATOM     33  C   UNL     1      33.552 -24.373 -13.090  0.00  0.00    +0.004 C 
ATOM     34  C   UNL     1      34.851 -24.565 -13.606  0.00  0.00    +0.029 C 
ATOM     35  C   UNL     1      31.158 -23.634 -13.534  0.00  0.00    +0.006 C 
ATOM     36  C   UNL     1      30.282 -23.159 -14.436  0.00  0.00    +0.058 C 
ENDBRANCH  22  26
ENDBRANCH   1  22
TORSDOF 5
ENDMDL
MODEL 9
REMARK VINA RESULT:     -12.0      3.070     10.836
REMARK  Name = 119057475
REMARK  5 active torsions:
REMARK  status: ('A' for Active; 'I' for Inactive)
REMARK    1  A    between atoms: N_1  and  C_22
REMARK    2  A    between atoms: C_2  and  N_8
REMARK    3  A    between atoms: N_8  and  C_11
REMARK    4  A    between atoms: C_11  and  C_16
REMARK    5  A    between atoms: C_22  and  C_26
REMARK                            x       y       z     vdW  Elec       q    Type
REMARK                         _______ _______ _______ _____ _____    ______ ____
ROOT
ATOM      1  N   UNL     1      35.103 -18.864 -21.522  0.00  0.00    +0.387 N 
ATOM      2  C   UNL     1      35.367 -21.218 -19.803  0.00  0.00    -0.066 C 
ATOM      3  C   UNL     1      36.416 -19.489 -21.312  0.00  0.00    -0.079 C 
ATOM      4  C   UNL     1      34.023 -19.859 -21.451  0.00  0.00    -0.079 C 
ATOM      5  C   UNL     1      36.485 -20.185 -19.949  0.00  0.00    -0.044 C 
ATOM      6  C   UNL     1      34.011 -20.567 -20.093  0.00  0.00    -0.044 C 
ATOM      7  H   UNL     1      34.955 -18.187 -20.774  0.00  0.00    -0.080 HD
ENDROOT
BRANCH   2   8
ATOM      8  N   UNL     1      35.390 -21.804 -18.464  0.00  0.00    +0.389 N 
ATOM      9  H   UNL     1      34.973 -21.145 -17.805  0.00  0.00    -0.084 HD
ATOM     10  H   UNL     1      36.358 -21.997 -18.209  0.00  0.00    -0.084 HD
BRANCH   8  11
ATOM     11  C   UNL     1      34.641 -23.050 -18.432  0.00  0.00    -0.032 C 
BRANCH  11  16
ATOM     12  O   UNL     1      33.079 -23.795 -13.893  0.00  0.00    -0.467 OA
ATOM     13  O   UNL     1      30.477 -22.917 -14.753  0.00  0.00    -0.453 OA
ATOM     14  N   UNL     1      32.344 -22.586 -17.766  0.00  0.00    -0.151 NA
ATOM     15  N   UNL     1      31.332 -22.552 -16.856  0.00  0.00    -0.107 NA
ATOM     16  C   UNL     1      33.560 -23.028 -17.384  0.00  0.00    +0.062 C 
ATOM     17  C   UNL     1      33.837 -23.444 -16.098  0.00  0.00    +0.056 C 
ATOM     18  C   UNL     1      32.808 -23.398 -15.172  0.00  0.00    +0.194 C 
ATOM     19  C   UNL     1      31.563 -22.963 -15.591  0.00  0.00    +0.278 C 
ATOM     20  C   UNL     1      32.046 -23.407 -12.983  0.00  0.00    +0.253 C 
ATOM     21  C   UNL     1      30.682 -23.703 -13.577  0.00  0.00    +0.254 C 
ENDBRANCH  11  16
ENDBRANCH   8  11
ENDBRANCH   2   8
BRANCH   1  22
ATOM     22  C   UNL     1      35.068 -18.162 -22.804  0.00  0.00    -0.071 C 
BRANCH  22  26
ATOM     23  F   UNL     1      35.466 -16.636 -25.684  0.00  0.00    -0.204 F 
ATOM     24  O   UNL     1      33.195 -14.354 -19.493  0.00  0.00    -0.270 OA
ATOM     25  N   UNL     1      33.900 -15.055 -21.582  0.00  0.00    -0.255 N 
ATOM     26  C   UNL     1      35.370 -16.681 -22.625  0.00  0.00    +0.025 C 
ATOM     27  C   UNL     1      34.840 -16.138 -21.265  0.00  0.00    +0.101 C 
ATOM     28  C   UNL     1      34.646 -15.814 -23.618  0.00  0.00    +0.018 C 
ATOM     29  C   UNL     1      33.832 -14.909 -22.960  0.00  0.00    +0.052 C 
ATOM     30  C   UNL     1      33.035 -13.970 -23.583  0.00  0.00    +0.014 C 
ATOM     31  C   UNL     1      34.688 -15.789 -24.999  0.00  0.00    +0.137 C 
ATOM     32  C   UNL     1      33.172 -14.268 -20.718  0.00  0.00    +0.253 C 
ATOM     33  C   UNL     1      33.068 -13.942 -24.974  0.00  0.00    +0.004 C 
ATOM     34  C   UNL     1      33.892 -14.848 -25.675  0.00  0.00    +0.029 C 
ATOM     35  C   UNL     1      32.239 -13.103 -22.719  0.00  0.00    +0.006 C 
ATOM     36  C   UNL     1      32.300 -13.238 -21.384  0.00  0.00    +0.058 C 
ENDBRANCH  22  26
ENDBRANCH   1  22
TORSDOF 5
ENDMDL
