MODEL 1
REMARK VINA RESULT:     -12.8      0.000      0.000
REMARK  Name = 10297043
REMARK  6 active torsions:
REMARK  status: ('A' for Active; 'I' for Inactive)
REMARK    1  A    between atoms: N_2  and  C_30
REMARK    2  A    between atoms: C_5  and  C_16
REMARK    3  A    between atoms: C_13  and  C_19
REMARK    4  A    between atoms: C_19  and  N_20
REMARK    5  A    between atoms: N_21  and  C_28
REMARK    6  A    between atoms: C_30  and  C_32
REMARK                            x       y       z     vdW  Elec       q    Type
REMARK                         _______ _______ _______ _____ _____    ______ ____
ROOT
ATOM      1  N   UNL     1      34.920 -17.380 -23.952  0.00  0.00    -0.301 N 
ATOM      2  N   UNL     1      33.475 -13.098 -22.792  0.00  0.00    -0.319 N 
ATOM      3  N   UNL     1      34.278 -15.966 -25.796  0.00  0.00    -0.233 NA
ATOM      4  N   UNL     1      33.541 -13.756 -25.086  0.00  0.00    -0.233 NA
ATOM      5  C   UNL     1      34.982 -17.270 -22.586  0.00  0.00    +0.046 C 
ATOM      6  C   UNL     1      34.223 -15.323 -23.439  0.00  0.00    +0.131 C 
ATOM      7  C   UNL     1      34.556 -16.005 -22.240  0.00  0.00    +0.003 C 
ATOM      8  C   UNL     1      34.460 -16.205 -24.486  0.00  0.00    +0.117 C 
ATOM      9  C   UNL     1      33.745 -14.059 -23.782  0.00  0.00    +0.113 C 
ATOM     10  C   UNL     1      33.815 -14.715 -25.999  0.00  0.00    +0.252 C 
ATOM     11  H   UNL     1      35.168 -18.180 -24.469  0.00  0.00    +0.153 HD
ATOM     12  H   UNL     1      33.631 -13.339 -21.850  0.00  0.00    +0.148 HD
ENDROOT
BRANCH   5  16
ATOM     13  C   UNL     1      36.290 -20.453 -20.141  0.00  0.00    -0.043 C 
ATOM     14  C   UNL     1      34.948 -20.361 -20.490  0.00  0.00    -0.006 C 
ATOM     15  C   UNL     1      37.207 -19.510 -20.589  0.00  0.00    -0.006 C 
ATOM     16  C   UNL     1      35.429 -18.358 -21.751  0.00  0.00    +0.013 C 
ATOM     17  C   UNL     1      34.516 -19.309 -21.298  0.00  0.00    +0.001 C 
ATOM     18  C   UNL     1      36.774 -18.458 -21.397  0.00  0.00    +0.001 C 
BRANCH  13  19
ATOM     19  C   UNL     1      36.756 -21.585 -19.271  0.00  0.00    -0.050 C 
BRANCH  19  20
ATOM     20  N   UNL     1      35.870 -21.794 -18.127  0.00  0.00    +0.387 N 
ATOM     21  N   UNL     1      34.618 -23.441 -16.108  0.00  0.00    +0.384 N 
ATOM     22  C   UNL     1      34.791 -22.731 -18.468  0.00  0.00    -0.100 C 
ATOM     23  C   UNL     1      36.624 -22.281 -16.966  0.00  0.00    -0.100 C 
ATOM     24  C   UNL     1      33.863 -22.955 -17.270  0.00  0.00    -0.101 C 
ATOM     25  C   UNL     1      35.694 -22.504 -15.767  0.00  0.00    -0.101 C 
ATOM     26  H   UNL     1      35.451 -20.896 -17.886  0.00  0.00    -0.079 HD
ATOM     27  H   UNL     1      35.038 -24.339 -16.350  0.00  0.00    -0.080 HD
BRANCH  21  28
ATOM     28  C   UNL     1      33.732 -23.652 -14.965  0.00  0.00    -0.078 C 
ATOM     29  C   UNL     1      32.307 -23.237 -15.290  0.00  0.00    -0.025 C 
ENDBRANCH  21  28
ENDBRANCH  19  20
ENDBRANCH  13  19
ENDBRANCH   5  16
BRANCH   2  30
ATOM     30  C   UNL     1      32.983 -11.787 -23.089  0.00  0.00    +0.093 C 
ATOM     31  C   UNL     1      34.104 -10.963 -23.720  0.00  0.00    +0.026 C 
BRANCH  30  32
ATOM     32  C   UNL     1      32.405 -11.149 -21.845  0.00  0.00    -0.005 C 
ATOM     33  C   UNL     1      32.346  -9.768 -21.759  0.00  0.00    -0.003 C 
ATOM     34  C   UNL     1      31.948 -11.958 -20.819  0.00  0.00    -0.003 C 
ATOM     35  C   UNL     1      31.813  -9.180 -20.612  0.00  0.00    -0.000 C 
ATOM     36  C   UNL     1      31.415 -11.370 -19.673  0.00  0.00    -0.000 C 
ATOM     37  C   UNL     1      31.348  -9.981 -19.569  0.00  0.00    -0.000 C 
ENDBRANCH  30  32
ENDBRANCH   2  30
TORSDOF 6
ENDMDL
MODEL 2
REMARK VINA RESULT:     -12.4      2.560     12.029
REMARK  Name = 10297043
REMARK  6 active torsions:
REMARK  status: ('A' for Active; 'I' for Inactive)
REMARK    1  A    between atoms: N_2  and  C_30
REMARK    2  A    between atoms: C_5  and  C_16
REMARK    3  A    between atoms: C_13  and  C_19
REMARK    4  A    between atoms: C_19  and  N_20
REMARK    5  A    between atoms: N_21  and  C_28
REMARK    6  A    between atoms: C_30  and  C_32
REMARK                            x       y       z     vdW  Elec       q    Type
REMARK                         _______ _______ _______ _____ _____    ______ ____
ROOT
ATOM      1  N   UNL     1      32.486 -22.154 -18.038  0.00  0.00    -0.301 N 
ATOM      2  N   UNL     1      35.110 -24.153 -14.738  0.00  0.00    -0.319 N 
ATOM      3  N   UNL     1      31.273 -23.326 -16.314  0.00  0.00    -0.233 NA
ATOM      4  N   UNL     1      32.731 -24.331 -14.643  0.00  0.00    -0.233 NA
ATOM      5  C   UNL     1      33.800 -21.899 -18.333  0.00  0.00    +0.046 C 
ATOM      6  C   UNL     1      33.705 -23.124 -16.440  0.00  0.00    +0.131 C 
ATOM      7  C   UNL     1      34.579 -22.489 -17.359  0.00  0.00    +0.003 C 
ATOM      8  C   UNL     1      32.410 -22.899 -16.890  0.00  0.00    +0.117 C 
ATOM      9  C   UNL     1      33.839 -23.872 -15.271  0.00  0.00    +0.113 C 
ATOM     10  C   UNL     1      31.533 -24.035 -15.196  0.00  0.00    +0.252 C 
ATOM     11  H   UNL     1      31.715 -21.849 -18.569  0.00  0.00    +0.153 HD
ATOM     12  H   UNL     1      35.903 -23.810 -15.210  0.00  0.00    +0.148 HD
ENDROOT
BRANCH   5  16
ATOM     13  C   UNL     1      34.939 -19.663 -21.728  0.00  0.00    -0.043 C 
ATOM     14  C   UNL     1      35.916 -20.251 -20.932  0.00  0.00    -0.006 C 
ATOM     15  C   UNL     1      33.592 -19.802 -21.418  0.00  0.00    -0.006 C 
ATOM     16  C   UNL     1      34.189 -21.135 -19.493  0.00  0.00    +0.013 C 
ATOM     17  C   UNL     1      35.539 -20.991 -19.811  0.00  0.00    +0.001 C 
ATOM     18  C   UNL     1      33.216 -20.542 -20.296  0.00  0.00    +0.001 C 
BRANCH  13  19
ATOM     19  C   UNL     1      35.344 -18.866 -22.935  0.00  0.00    -0.050 C 
BRANCH  19  20
ATOM     20  N   UNL     1      34.704 -17.553 -22.963  0.00  0.00    +0.387 N 
ATOM     21  N   UNL     1      34.750 -14.670 -23.177  0.00  0.00    +0.384 N 
ATOM     22  C   UNL     1      35.188 -16.714 -21.858  0.00  0.00    -0.100 C 
ATOM     23  C   UNL     1      34.934 -16.888 -24.251  0.00  0.00    -0.100 C 
ATOM     24  C   UNL     1      34.521 -15.335 -21.888  0.00  0.00    -0.101 C 
ATOM     25  C   UNL     1      34.265 -15.509 -24.279  0.00  0.00    -0.101 C 
ATOM     26  H   UNL     1      33.700 -17.690 -22.845  0.00  0.00    -0.079 HD
ATOM     27  H   UNL     1      35.755 -14.535 -23.294  0.00  0.00    -0.080 HD
BRANCH  21  28
ATOM     28  C   UNL     1      34.112 -13.356 -23.204  0.00  0.00    -0.078 C 
ATOM     29  C   UNL     1      32.838 -13.347 -22.377  0.00  0.00    -0.025 C 
ENDBRANCH  21  28
ENDBRANCH  19  20
ENDBRANCH  13  19
ENDBRANCH   5  16
BRANCH   2  30
ATOM     30  C   UNL     1      35.304 -24.916 -13.542  0.00  0.00    +0.093 C 
ATOM     31  C   UNL     1      34.788 -24.117 -12.348  0.00  0.00    +0.026 C 
BRANCH  30  32
ATOM     32  C   UNL     1      36.757 -25.316 -13.406  0.00  0.00    -0.005 C 
ATOM     33  C   UNL     1      37.299 -25.470 -12.141  0.00  0.00    -0.003 C 
ATOM     34  C   UNL     1      37.514 -25.518 -14.547  0.00  0.00    -0.003 C 
ATOM     35  C   UNL     1      38.638 -25.838 -12.014  0.00  0.00    -0.000 C 
ATOM     36  C   UNL     1      38.853 -25.886 -14.420  0.00  0.00    -0.000 C 
ATOM     37  C   UNL     1      39.415 -26.046 -13.154  0.00  0.00    -0.000 C 
ENDBRANCH  30  32
ENDBRANCH   2  30
TORSDOF 6
ENDMDL
MODEL 3
REMARK VINA RESULT:     -11.7      1.428      2.148
REMARK  Name = 10297043
REMARK  6 active torsions:
REMARK  status: ('A' for Active; 'I' for Inactive)
REMARK    1  A    between atoms: N_2  and  C_30
REMARK    2  A    between atoms: C_5  and  C_16
REMARK    3  A    between atoms: C_13  and  C_19
REMARK    4  A    between atoms: C_19  and  N_20
REMARK    5  A    between atoms: N_21  and  C_28
REMARK    6  A    between atoms: C_30  and  C_32
REMARK                            x       y       z     vdW  Elec       q    Type
REMARK                         _______ _______ _______ _____ _____    ______ ____
ROOT
ATOM      1  N   UNL     1      34.135 -16.121 -24.840  0.00  0.00    -0.301 N 
ATOM      2  N   UNL     1      34.247 -11.603 -23.684  0.00  0.00    -0.319 N 
ATOM      3  N   UNL     1      33.380 -14.593 -26.546  0.00  0.00    -0.233 NA
ATOM      4  N   UNL     1      33.477 -12.264 -25.845  0.00  0.00    -0.233 NA
ATOM      5  C   UNL     1      34.613 -16.026 -23.559  0.00  0.00    +0.046 C 
ATOM      6  C   UNL     1      34.173 -13.950 -24.326  0.00  0.00    +0.131 C 
ATOM      7  C   UNL     1      34.648 -14.691 -23.214  0.00  0.00    +0.003 C 
ATOM      8  C   UNL     1      33.862 -14.868 -25.322  0.00  0.00    +0.117 C 
ATOM      9  C   UNL     1      33.962 -12.606 -24.628  0.00  0.00    +0.113 C 
ATOM     10  C   UNL     1      33.219 -13.265 -26.716  0.00  0.00    +0.252 C 
ATOM     11  H   UNL     1      34.008 -16.961 -25.338  0.00  0.00    +0.153 HD
ATOM     12  H   UNL     1      34.599 -11.873 -22.804  0.00  0.00    +0.148 HD
ENDROOT
BRANCH   5  16
ATOM     13  C   UNL     1      35.697 -19.436 -21.317  0.00  0.00    -0.043 C 
ATOM     14  C   UNL     1      35.320 -19.579 -22.648  0.00  0.00    -0.006 C 
ATOM     15  C   UNL     1      35.720 -18.183 -20.716  0.00  0.00    -0.006 C 
ATOM     16  C   UNL     1      34.984 -17.191 -22.793  0.00  0.00    +0.013 C 
ATOM     17  C   UNL     1      34.963 -18.452 -23.388  0.00  0.00    +0.001 C 
ATOM     18  C   UNL     1      35.362 -17.056 -21.457  0.00  0.00    +0.001 C 
BRANCH  13  19
ATOM     19  C   UNL     1      36.081 -20.649 -20.520  0.00  0.00    -0.050 C 
BRANCH  19  20
ATOM     20  N   UNL     1      35.123 -20.927 -19.452  0.00  0.00    +0.387 N 
ATOM     21  N   UNL     1      33.122 -22.557 -18.148  0.00  0.00    +0.384 N 
ATOM     22  C   UNL     1      33.761 -21.039 -19.991  0.00  0.00    -0.100 C 
ATOM     23  C   UNL     1      35.490 -22.149 -18.727  0.00  0.00    -0.100 C 
ATOM     24  C   UNL     1      32.755 -21.334 -18.874  0.00  0.00    -0.101 C 
ATOM     25  C   UNL     1      34.482 -22.443 -17.609  0.00  0.00    -0.101 C 
ATOM     26  H   UNL     1      35.146 -20.145 -18.797  0.00  0.00    -0.079 HD
ATOM     27  H   UNL     1      33.101 -23.338 -18.804  0.00  0.00    -0.080 HD
BRANCH  21  28
ATOM     28  C   UNL     1      32.163 -22.836 -17.082  0.00  0.00    -0.078 C 
ATOM     29  C   UNL     1      32.870 -23.218 -15.793  0.00  0.00    -0.025 C 
ENDBRANCH  21  28
ENDBRANCH  19  20
ENDBRANCH  13  19
ENDBRANCH   5  16
BRANCH   2  30
ATOM     30  C   UNL     1      34.048 -10.208 -23.941  0.00  0.00    +0.093 C 
ATOM     31  C   UNL     1      35.400  -9.551 -24.210  0.00  0.00    +0.026 C 
BRANCH  30  32
ATOM     32  C   UNL     1      33.292  -9.567 -22.798  0.00  0.00    -0.005 C 
ATOM     33  C   UNL     1      32.360 -10.315 -22.100  0.00  0.00    -0.003 C 
ATOM     34  C   UNL     1      33.548  -8.245 -22.475  0.00  0.00    -0.003 C 
ATOM     35  C   UNL     1      31.663  -9.724 -21.047  0.00  0.00    -0.000 C 
ATOM     36  C   UNL     1      32.851  -7.654 -21.422  0.00  0.00    -0.000 C 
ATOM     37  C   UNL     1      31.908  -8.393 -20.708  0.00  0.00    -0.000 C 
ENDBRANCH  30  32
ENDBRANCH   2  30
TORSDOF 6
ENDMDL
MODEL 4
REMARK VINA RESULT:     -11.3      2.410     11.728
REMARK  Name = 10297043
REMARK  6 active torsions:
REMARK  status: ('A' for Active; 'I' for Inactive)
REMARK    1  A    between atoms: N_2  and  C_30
REMARK    2  A    between atoms: C_5  and  C_16
REMARK    3  A    between atoms: C_13  and  C_19
REMARK    4  A    between atoms: C_19  and  N_20
REMARK    5  A    between atoms: N_21  and  C_28
REMARK    6  A    between atoms: C_30  and  C_32
REMARK                            x       y       z     vdW  Elec       q    Type
REMARK                         _______ _______ _______ _____ _____    ______ ____
ROOT
ATOM      1  N   UNL     1      33.878 -22.146 -17.873  0.00  0.00    -0.301 N 
ATOM      2  N   UNL     1      37.187 -24.267 -15.359  0.00  0.00    -0.319 N 
ATOM      3  N   UNL     1      33.083 -23.535 -16.070  0.00  0.00    -0.233 NA
ATOM      4  N   UNL     1      34.885 -24.595 -14.821  0.00  0.00    -0.233 NA
ATOM      5  C   UNL     1      35.096 -21.788 -18.392  0.00  0.00    +0.046 C 
ATOM      6  C   UNL     1      35.430 -23.178 -16.646  0.00  0.00    +0.131 C 
ATOM      7  C   UNL     1      36.076 -22.413 -17.651  0.00  0.00    +0.003 C 
ATOM      8  C   UNL     1      34.063 -22.992 -16.811  0.00  0.00    +0.117 C 
ATOM      9  C   UNL     1      35.825 -24.017 -15.605  0.00  0.00    +0.113 C 
ATOM     10  C   UNL     1      33.589 -24.323 -15.099  0.00  0.00    +0.252 C 
ATOM     11  H   UNL     1      33.005 -21.843 -18.212  0.00  0.00    +0.153 HD
ATOM     12  H   UNL     1      37.856 -23.836 -15.941  0.00  0.00    +0.148 HD
ENDROOT
BRANCH   5  16
ATOM     13  C   UNL     1      35.439 -19.199 -21.709  0.00  0.00    -0.043 C 
ATOM     14  C   UNL     1      34.190 -19.690 -21.347  0.00  0.00    -0.006 C 
ATOM     15  C   UNL     1      36.576 -19.550 -20.991  0.00  0.00    -0.006 C 
ATOM     16  C   UNL     1      35.213 -20.903 -19.525  0.00  0.00    +0.013 C 
ATOM     17  C   UNL     1      34.077 -20.545 -20.250  0.00  0.00    +0.001 C 
ATOM     18  C   UNL     1      36.462 -20.405 -19.895  0.00  0.00    +0.001 C 
BRANCH  13  19
ATOM     19  C   UNL     1      35.561 -18.278 -22.889  0.00  0.00    -0.050 C 
BRANCH  19  20
ATOM     20  N   UNL     1      34.666 -17.128 -22.780  0.00  0.00    +0.387 N 
ATOM     21  N   UNL     1      34.123 -14.292 -22.649  0.00  0.00    +0.384 N 
ATOM     22  C   UNL     1      34.964 -16.350 -21.570  0.00  0.00    -0.100 C 
ATOM     23  C   UNL     1      34.761 -16.278 -23.973  0.00  0.00    -0.100 C 
ATOM     24  C   UNL     1      34.029 -15.141 -21.455  0.00  0.00    -0.101 C 
ATOM     25  C   UNL     1      33.824 -15.070 -23.857  0.00  0.00    -0.101 C 
ATOM     26  H   UNL     1      33.710 -17.479 -22.709  0.00  0.00    -0.079 HD
ATOM     27  H   UNL     1      35.079 -13.942 -22.721  0.00  0.00    -0.080 HD
BRANCH  21  28
ATOM     28  C   UNL     1      33.230 -13.140 -22.539  0.00  0.00    -0.078 C 
ATOM     29  C   UNL     1      32.320 -13.265 -21.330  0.00  0.00    -0.025 C 
ENDBRANCH  21  28
ENDBRANCH  19  20
ENDBRANCH  13  19
ENDBRANCH   5  16
BRANCH   2  30
ATOM     30  C   UNL     1      37.648 -25.119 -14.305  0.00  0.00    +0.093 C 
ATOM     31  C   UNL     1      37.156 -26.542 -14.560  0.00  0.00    +0.026 C 
BRANCH  30  32
ATOM     32  C   UNL     1      37.215 -24.572 -12.962  0.00  0.00    -0.005 C 
ATOM     33  C   UNL     1      37.591 -23.289 -12.602  0.00  0.00    -0.003 C 
ATOM     34  C   UNL     1      36.454 -25.366 -12.122  0.00  0.00    -0.003 C 
ATOM     35  C   UNL     1      37.193 -22.786 -11.364  0.00  0.00    -0.000 C 
ATOM     36  C   UNL     1      36.056 -24.862 -10.884  0.00  0.00    -0.000 C 
ATOM     37  C   UNL     1      36.426 -23.572 -10.505  0.00  0.00    -0.000 C 
ENDBRANCH  30  32
ENDBRANCH   2  30
TORSDOF 6
ENDMDL
MODEL 5
REMARK VINA RESULT:     -11.2      2.630      5.153
REMARK  Name = 10297043
REMARK  6 active torsions:
REMARK  status: ('A' for Active; 'I' for Inactive)
REMARK    1  A    between atoms: N_2  and  C_30
REMARK    2  A    between atoms: C_5  and  C_16
REMARK    3  A    between atoms: C_13  and  C_19
REMARK    4  A    between atoms: C_19  and  N_20
REMARK    5  A    between atoms: N_21  and  C_28
REMARK    6  A    between atoms: C_30  and  C_32
REMARK                            x       y       z     vdW  Elec       q    Type
REMARK                         _______ _______ _______ _____ _____    ______ ____
ROOT
ATOM      1  N   UNL     1      32.563 -13.513 -20.218  0.00  0.00    -0.301 N 
ATOM      2  N   UNL     1      32.423  -9.468 -22.538  0.00  0.00    -0.319 N 
ATOM      3  N   UNL     1      31.302 -11.751 -19.159  0.00  0.00    -0.233 NA
ATOM      4  N   UNL     1      31.290  -9.686 -20.448  0.00  0.00    -0.233 NA
ATOM      5  C   UNL     1      33.288 -13.664 -21.372  0.00  0.00    +0.046 C 
ATOM      6  C   UNL     1      32.471 -11.562 -21.296  0.00  0.00    +0.131 C 
ATOM      7  C   UNL     1      33.248 -12.470 -22.061  0.00  0.00    +0.003 C 
ATOM      8  C   UNL     1      32.060 -12.240 -20.156  0.00  0.00    +0.117 C 
ATOM      9  C   UNL     1      32.056 -10.237 -21.419  0.00  0.00    +0.113 C 
ATOM     10  C   UNL     1      30.966 -10.466 -19.392  0.00  0.00    +0.252 C 
ATOM     11  H   UNL     1      32.425 -14.212 -19.538  0.00  0.00    +0.153 HD
ATOM     12  H   UNL     1      32.980  -9.888 -23.233  0.00  0.00    +0.148 HD
ENDROOT
BRANCH   5  16
ATOM     13  C   UNL     1      35.203 -17.297 -22.352  0.00  0.00    -0.043 C 
ATOM     14  C   UNL     1      35.066 -16.930 -21.018  0.00  0.00    -0.006 C 
ATOM     15  C   UNL     1      34.717 -16.481 -23.366  0.00  0.00    -0.006 C 
ATOM     16  C   UNL     1      33.942 -14.905 -21.707  0.00  0.00    +0.013 C 
ATOM     17  C   UNL     1      34.432 -15.730 -20.695  0.00  0.00    +0.001 C 
ATOM     18  C   UNL     1      34.084 -15.281 -23.042  0.00  0.00    +0.001 C 
BRANCH  13  19
ATOM     19  C   UNL     1      35.885 -18.589 -22.700  0.00  0.00    -0.050 C 
BRANCH  19  20
ATOM     20  N   UNL     1      35.393 -19.701 -21.890  0.00  0.00    +0.387 N 
ATOM     21  N   UNL     1      34.453 -20.867 -19.417  0.00  0.00    +0.384 N 
ATOM     22  C   UNL     1      36.315 -19.985 -20.782  0.00  0.00    -0.100 C 
ATOM     23  C   UNL     1      34.047 -19.419 -21.378  0.00  0.00    -0.100 C 
ATOM     24  C   UNL     1      35.800 -21.149 -19.928  0.00  0.00    -0.101 C 
ATOM     25  C   UNL     1      33.533 -20.585 -20.525  0.00  0.00    -0.101 C 
ATOM     26  H   UNL     1      35.345 -20.528 -22.487  0.00  0.00    -0.079 HD
ATOM     27  H   UNL     1      34.501 -20.040 -18.822  0.00  0.00    -0.080 HD
BRANCH  21  28
ATOM     28  C   UNL     1      33.962 -21.978 -18.605  0.00  0.00    -0.078 C 
ATOM     29  C   UNL     1      35.022 -22.454 -17.627  0.00  0.00    -0.025 C 
ENDBRANCH  21  28
ENDBRANCH  19  20
ENDBRANCH  13  19
ENDBRANCH   5  16
BRANCH   2  30
ATOM     30  C   UNL     1      32.024  -8.104 -22.714  0.00  0.00    +0.093 C 
ATOM     31  C   UNL     1      30.694  -8.063 -23.462  0.00  0.00    +0.026 C 
BRANCH  30  32
ATOM     32  C   UNL     1      33.120  -7.323 -23.407  0.00  0.00    -0.005 C 
ATOM     33  C   UNL     1      32.775  -6.288 -24.260  0.00  0.00    -0.003 C 
ATOM     34  C   UNL     1      34.442  -7.659 -23.173  0.00  0.00    -0.003 C 
ATOM     35  C   UNL     1      33.784  -5.568 -24.899  0.00  0.00    -0.000 C 
ATOM     36  C   UNL     1      35.450  -6.939 -23.812  0.00  0.00    -0.000 C 
ATOM     37  C   UNL     1      35.122  -5.894 -24.675  0.00  0.00    -0.000 C 
ENDBRANCH  30  32
ENDBRANCH   2  30
TORSDOF 6
ENDMDL
MODEL 6
REMARK VINA RESULT:     -11.1      2.037     11.245
REMARK  Name = 10297043
REMARK  6 active torsions:
REMARK  status: ('A' for Active; 'I' for Inactive)
REMARK    1  A    between atoms: N_2  and  C_30
REMARK    2  A    between atoms: C_5  and  C_16
REMARK    3  A    between atoms: C_13  and  C_19
REMARK    4  A    between atoms: C_19  and  N_20
REMARK    5  A    between atoms: N_21  and  C_28
REMARK    6  A    between atoms: C_30  and  C_32
REMARK                            x       y       z     vdW  Elec       q    Type
REMARK                         _______ _______ _______ _____ _____    ______ ____
ROOT
ATOM      1  N   UNL     1      37.193 -21.191 -18.435  0.00  0.00    -0.301 N 
ATOM      2  N   UNL     1      34.032 -23.303 -15.731  0.00  0.00    -0.319 N 
ATOM      3  N   UNL     1      38.067 -22.266 -16.462  0.00  0.00    -0.233 NA
ATOM      4  N   UNL     1      36.340 -23.338 -15.121  0.00  0.00    -0.233 NA
ATOM      5  C   UNL     1      35.961 -21.018 -19.013  0.00  0.00    +0.046 C 
ATOM      6  C   UNL     1      35.713 -22.213 -17.115  0.00  0.00    +0.131 C 
ATOM      7  C   UNL     1      35.024 -21.642 -18.216  0.00  0.00    +0.003 C 
ATOM      8  C   UNL     1      37.060 -21.914 -17.280  0.00  0.00    +0.117 C 
ATOM      9  C   UNL     1      35.370 -22.953 -15.984  0.00  0.00    +0.113 C 
ATOM     10  C   UNL     1      37.610 -22.975 -15.409  0.00  0.00    +0.252 C 
ATOM     11  H   UNL     1      38.042 -20.847 -18.795  0.00  0.00    +0.153 HD
ATOM     12  H   UNL     1      33.342 -23.013 -16.371  0.00  0.00    +0.148 HD
ENDROOT
BRANCH   5  16
ATOM     13  C   UNL     1      35.463 -18.880 -22.619  0.00  0.00    -0.043 C 
ATOM     14  C   UNL     1      36.708 -18.906 -22.001  0.00  0.00    -0.006 C 
ATOM     15  C   UNL     1      34.380 -19.550 -22.063  0.00  0.00    -0.006 C 
ATOM     16  C   UNL     1      35.791 -20.288 -20.245  0.00  0.00    +0.013 C 
ATOM     17  C   UNL     1      36.872 -19.613 -20.810  0.00  0.00    +0.001 C 
ATOM     18  C   UNL     1      34.545 -20.257 -20.871  0.00  0.00    +0.001 C 
BRANCH  13  19
ATOM     19  C   UNL     1      35.285 -18.118 -23.901  0.00  0.00    -0.050 C 
BRANCH  19  20
ATOM     20  N   UNL     1      34.567 -16.862 -23.695  0.00  0.00    +0.387 N 
ATOM     21  N   UNL     1      34.395 -13.977 -23.627  0.00  0.00    +0.384 N 
ATOM     22  C   UNL     1      35.176 -16.087 -22.606  0.00  0.00    -0.100 C 
ATOM     23  C   UNL     1      34.535 -16.071 -24.932  0.00  0.00    -0.100 C 
ATOM     24  C   UNL     1      34.427 -14.768 -22.390  0.00  0.00    -0.101 C 
ATOM     25  C   UNL     1      33.786 -14.752 -24.715  0.00  0.00    -0.101 C 
ATOM     26  H   UNL     1      33.608 -17.087 -23.432  0.00  0.00    -0.079 HD
ATOM     27  H   UNL     1      35.355 -13.753 -23.891  0.00  0.00    -0.080 HD
BRANCH  21  28
ATOM     28  C   UNL     1      33.679 -12.720 -23.421  0.00  0.00    -0.078 C 
ATOM     29  C   UNL     1      34.178 -11.642 -24.369  0.00  0.00    -0.025 C 
ENDBRANCH  21  28
ENDBRANCH  19  20
ENDBRANCH  13  19
ENDBRANCH   5  16
BRANCH   2  30
ATOM     30  C   UNL     1      33.625 -24.060 -14.586  0.00  0.00    +0.093 C 
ATOM     31  C   UNL     1      34.405 -25.373 -14.550  0.00  0.00    +0.026 C 
BRANCH  30  32
ATOM     32  C   UNL     1      32.126 -24.260 -14.594  0.00  0.00    -0.005 C 
ATOM     33  C   UNL     1      31.554 -25.120 -13.672  0.00  0.00    -0.003 C 
ATOM     34  C   UNL     1      31.358 -23.582 -15.524  0.00  0.00    -0.003 C 
ATOM     35  C   UNL     1      30.172 -25.305 -13.679  0.00  0.00    -0.000 C 
ATOM     36  C   UNL     1      29.976 -23.767 -15.532  0.00  0.00    -0.000 C 
ATOM     37  C   UNL     1      29.382 -24.629 -14.610  0.00  0.00    -0.000 C 
ENDBRANCH  30  32
ENDBRANCH   2  30
TORSDOF 6
ENDMDL
MODEL 7
REMARK VINA RESULT:     -10.9      2.771     10.540
REMARK  Name = 10297043
REMARK  6 active torsions:
REMARK  status: ('A' for Active; 'I' for Inactive)
REMARK    1  A    between atoms: N_2  and  C_30
REMARK    2  A    between atoms: C_5  and  C_16
REMARK    3  A    between atoms: C_13  and  C_19
REMARK    4  A    between atoms: C_19  and  N_20
REMARK    5  A    between atoms: N_21  and  C_28
REMARK    6  A    between atoms: C_30  and  C_32
REMARK                            x       y       z     vdW  Elec       q    Type
REMARK                         _______ _______ _______ _____ _____    ______ ____
ROOT
ATOM      1  N   UNL     1      35.076 -22.414 -17.664  0.00  0.00    -0.301 N 
ATOM      2  N   UNL     1      30.654 -23.098 -16.343  0.00  0.00    -0.319 N 
ATOM      3  N   UNL     1      34.775 -23.826 -15.733  0.00  0.00    -0.233 NA
ATOM      4  N   UNL     1      32.436 -24.120 -15.126  0.00  0.00    -0.233 NA
ATOM      5  C   UNL     1      34.267 -21.720 -18.527  0.00  0.00    +0.046 C 
ATOM      6  C   UNL     1      32.975 -22.766 -17.000  0.00  0.00    +0.131 C 
ATOM      7  C   UNL     1      32.958 -21.921 -18.139  0.00  0.00    +0.003 C 
ATOM      8  C   UNL     1      34.307 -23.055 -16.729  0.00  0.00    +0.117 C 
ATOM      9  C   UNL     1      32.027 -23.333 -16.149  0.00  0.00    +0.113 C 
ATOM     10  C   UNL     1      33.766 -24.314 -14.983  0.00  0.00    +0.252 C 
ATOM     11  H   UNL     1      36.059 -22.446 -17.710  0.00  0.00    +0.153 HD
ATOM     12  H   UNL     1      30.378 -22.523 -17.094  0.00  0.00    +0.148 HD
ENDROOT
BRANCH   5  16
ATOM     13  C   UNL     1      35.831 -19.445 -21.720  0.00  0.00    -0.043 C 
ATOM     14  C   UNL     1      36.689 -19.946 -20.748  0.00  0.00    -0.006 C 
ATOM     15  C   UNL     1      34.464 -19.684 -21.653  0.00  0.00    -0.006 C 
ATOM     16  C   UNL     1      34.801 -20.943 -19.618  0.00  0.00    +0.013 C 
ATOM     17  C   UNL     1      36.172 -20.699 -19.693  0.00  0.00    +0.001 C 
ATOM     18  C   UNL     1      33.947 -20.437 -20.598  0.00  0.00    +0.001 C 
BRANCH  13  19
ATOM     19  C   UNL     1      36.388 -18.635 -22.856  0.00  0.00    -0.050 C 
BRANCH  19  20
ATOM     20  N   UNL     1      35.885 -17.262 -22.845  0.00  0.00    +0.387 N 
ATOM     21  N   UNL     1      33.773 -15.295 -22.679  0.00  0.00    +0.384 N 
ATOM     22  C   UNL     1      34.965 -17.035 -23.967  0.00  0.00    -0.100 C 
ATOM     23  C   UNL     1      35.224 -16.959 -21.569  0.00  0.00    -0.100 C 
ATOM     24  C   UNL     1      34.433 -15.598 -23.955  0.00  0.00    -0.101 C 
ATOM     25  C   UNL     1      34.694 -15.520 -21.559  0.00  0.00    -0.101 C 
ATOM     26  H   UNL     1      36.683 -16.634 -22.951  0.00  0.00    -0.079 HD
ATOM     27  H   UNL     1      32.977 -15.924 -22.572  0.00  0.00    -0.080 HD
BRANCH  21  28
ATOM     28  C   UNL     1      33.269 -13.923 -22.669  0.00  0.00    -0.078 C 
ATOM     29  C   UNL     1      32.554 -13.611 -21.365  0.00  0.00    -0.025 C 
ENDBRANCH  21  28
ENDBRANCH  19  20
ENDBRANCH  13  19
ENDBRANCH   5  16
BRANCH   2  30
ATOM     30  C   UNL     1      29.639 -23.654 -15.500  0.00  0.00    +0.093 C 
ATOM     31  C   UNL     1      29.616 -25.171 -15.678  0.00  0.00    +0.026 C 
BRANCH  30  32
ATOM     32  C   UNL     1      28.304 -23.002 -15.786  0.00  0.00    -0.005 C 
ATOM     33  C   UNL     1      27.906 -22.824 -17.100  0.00  0.00    -0.003 C 
ATOM     34  C   UNL     1      27.509 -22.596 -14.727  0.00  0.00    -0.003 C 
ATOM     35  C   UNL     1      26.676 -22.222 -17.363  0.00  0.00    -0.000 C 
ATOM     36  C   UNL     1      26.279 -21.995 -14.991  0.00  0.00    -0.000 C 
ATOM     37  C   UNL     1      25.863 -21.807 -16.309  0.00  0.00    -0.000 C 
ENDBRANCH  30  32
ENDBRANCH   2  30
TORSDOF 6
ENDMDL
MODEL 8
REMARK VINA RESULT:     -10.4      2.222      4.321
REMARK  Name = 10297043
REMARK  6 active torsions:
REMARK  status: ('A' for Active; 'I' for Inactive)
REMARK    1  A    between atoms: N_2  and  C_30
REMARK    2  A    between atoms: C_5  and  C_16
REMARK    3  A    between atoms: C_13  and  C_19
REMARK    4  A    between atoms: C_19  and  N_20
REMARK    5  A    between atoms: N_21  and  C_28
REMARK    6  A    between atoms: C_30  and  C_32
REMARK                            x       y       z     vdW  Elec       q    Type
REMARK                         _______ _______ _______ _____ _____    ______ ____
ROOT
ATOM      1  N   UNL     1      32.212 -13.372 -21.644  0.00  0.00    -0.301 N 
ATOM      2  N   UNL     1      33.873  -9.350 -23.328  0.00  0.00    -0.319 N 
ATOM      3  N   UNL     1      30.742 -11.472 -21.435  0.00  0.00    -0.233 NA
ATOM      4  N   UNL     1      31.699  -9.426 -22.343  0.00  0.00    -0.233 NA
ATOM      5  C   UNL     1      33.466 -13.611 -22.146  0.00  0.00    +0.046 C 
ATOM      6  C   UNL     1      32.970 -11.429 -22.438  0.00  0.00    +0.131 C 
ATOM      7  C   UNL     1      33.959 -12.424 -22.645  0.00  0.00    +0.003 C 
ATOM      8  C   UNL     1      31.895 -12.050 -21.813  0.00  0.00    +0.117 C 
ATOM      9  C   UNL     1      32.838 -10.065 -22.699  0.00  0.00    +0.113 C 
ATOM     10  C   UNL     1      30.735 -10.158 -21.740  0.00  0.00    +0.252 C 
ATOM     11  H   UNL     1      31.630 -14.046 -21.226  0.00  0.00    +0.153 HD
ATOM     12  H   UNL     1      34.693  -9.834 -23.579  0.00  0.00    +0.148 HD
ENDROOT
BRANCH   5  16
ATOM     13  C   UNL     1      35.233 -17.443 -22.021  0.00  0.00    -0.043 C 
ATOM     14  C   UNL     1      34.915 -16.793 -20.833  0.00  0.00    -0.006 C 
ATOM     15  C   UNL     1      34.975 -16.845 -23.248  0.00  0.00    -0.006 C 
ATOM     16  C   UNL     1      34.069 -14.920 -22.103  0.00  0.00    +0.013 C 
ATOM     17  C   UNL     1      34.330 -15.527 -20.875  0.00  0.00    +0.001 C 
ATOM     18  C   UNL     1      34.391 -15.579 -23.290  0.00  0.00    +0.001 C 
BRANCH  13  19
ATOM     19  C   UNL     1      35.862 -18.805 -21.976  0.00  0.00    -0.050 C 
BRANCH  19  20
ATOM     20  N   UNL     1      35.537 -19.517 -20.742  0.00  0.00    +0.387 N 
ATOM     21  N   UNL     1      34.975 -21.911 -19.222  0.00  0.00    +0.384 N 
ATOM     22  C   UNL     1      34.251 -20.215 -20.866  0.00  0.00    -0.100 C 
ATOM     23  C   UNL     1      36.602 -20.464 -20.389  0.00  0.00    -0.100 C 
ATOM     24  C   UNL     1      33.909 -20.965 -19.575  0.00  0.00    -0.101 C 
ATOM     25  C   UNL     1      36.260 -21.213 -19.096  0.00  0.00    -0.101 C 
ATOM     26  H   UNL     1      35.458 -18.828 -19.993  0.00  0.00    -0.079 HD
ATOM     27  H   UNL     1      35.056 -22.599 -19.972  0.00  0.00    -0.080 HD
BRANCH  21  28
ATOM     28  C   UNL     1      34.650 -22.625 -17.989  0.00  0.00    -0.078 C 
ATOM     29  C   UNL     1      33.146 -22.740 -17.802  0.00  0.00    -0.025 C 
ENDBRANCH  21  28
ENDBRANCH  19  20
ENDBRANCH  13  19
ENDBRANCH   5  16
BRANCH   2  30
ATOM     30  C   UNL     1      33.790  -7.950 -23.619  0.00  0.00    +0.093 C 
ATOM     31  C   UNL     1      35.200  -7.395 -23.813  0.00  0.00    +0.026 C 
BRANCH  30  32
ATOM     32  C   UNL     1      33.014  -7.234 -22.535  0.00  0.00    -0.005 C 
ATOM     33  C   UNL     1      33.449  -7.319 -21.224  0.00  0.00    -0.003 C 
ATOM     34  C   UNL     1      31.885  -6.510 -22.878  0.00  0.00    -0.003 C 
ATOM     35  C   UNL     1      32.734  -6.659 -20.225  0.00  0.00    -0.000 C 
ATOM     36  C   UNL     1      31.170  -5.851 -21.879  0.00  0.00    -0.000 C 
ATOM     37  C   UNL     1      31.593  -5.925 -20.553  0.00  0.00    -0.000 C 
ENDBRANCH  30  32
ENDBRANCH   2  30
TORSDOF 6
ENDMDL
MODEL 9
REMARK VINA RESULT:     -10.1      5.979     14.611
REMARK  Name = 10297043
REMARK  6 active torsions:
REMARK  status: ('A' for Active; 'I' for Inactive)
REMARK    1  A    between atoms: N_2  and  C_30
REMARK    2  A    between atoms: C_5  and  C_16
REMARK    3  A    between atoms: C_13  and  C_19
REMARK    4  A    between atoms: C_19  and  N_20
REMARK    5  A    between atoms: N_21  and  C_28
REMARK    6  A    between atoms: C_30  and  C_32
REMARK                            x       y       z     vdW  Elec       q    Type
REMARK                         _______ _______ _______ _____ _____    ______ ____
ROOT
ATOM      1  N   UNL     1      31.480  -8.319 -20.489  0.00  0.00    -0.301 N 
ATOM      2  N   UNL     1      32.815 -12.434 -22.235  0.00  0.00    -0.319 N 
ATOM      3  N   UNL     1      31.240 -10.204 -19.005  0.00  0.00    -0.233 NA
ATOM      4  N   UNL     1      31.963 -12.301 -20.009  0.00  0.00    -0.233 NA
ATOM      5  C   UNL     1      31.922  -8.109 -21.770  0.00  0.00    +0.046 C 
ATOM      6  C   UNL     1      32.108 -10.306 -21.287  0.00  0.00    +0.131 C 
ATOM      7  C   UNL     1      32.318  -9.324 -22.289  0.00  0.00    +0.003 C 
ATOM      8  C   UNL     1      31.585  -9.649 -20.179  0.00  0.00    +0.117 C 
ATOM      9  C   UNL     1      32.291 -11.683 -21.167  0.00  0.00    +0.113 C 
ATOM     10  C   UNL     1      31.463 -11.534 -19.013  0.00  0.00    +0.252 C 
ATOM     11  H   UNL     1      31.138  -7.620 -19.885  0.00  0.00    +0.153 HD
ATOM     12  H   UNL     1      33.047 -11.965 -23.069  0.00  0.00    +0.148 HD
ENDROOT
BRANCH   5  16
ATOM     13  C   UNL     1      31.934  -4.274 -23.535  0.00  0.00    -0.043 C 
ATOM     14  C   UNL     1      32.826  -5.241 -23.985  0.00  0.00    -0.006 C 
ATOM     15  C   UNL     1      31.039  -4.556 -22.510  0.00  0.00    -0.006 C 
ATOM     16  C   UNL     1      31.926  -6.799 -22.373  0.00  0.00    +0.013 C 
ATOM     17  C   UNL     1      32.821  -6.508 -23.402  0.00  0.00    +0.001 C 
ATOM     18  C   UNL     1      31.034  -5.823 -21.927  0.00  0.00    +0.001 C 
BRANCH  13  19
ATOM     19  C   UNL     1      31.939  -2.910 -24.162  0.00  0.00    -0.050 C 
BRANCH  19  20
ATOM     20  N   UNL     1      31.704  -2.970 -25.603  0.00  0.00    +0.387 N 
ATOM     21  N   UNL     1      31.603  -1.804 -28.246  0.00  0.00    +0.384 N 
ATOM     22  C   UNL     1      30.621  -2.057 -25.993  0.00  0.00    -0.100 C 
ATOM     23  C   UNL     1      32.931  -2.658 -26.346  0.00  0.00    -0.100 C 
ATOM     24  C   UNL     1      30.375  -2.116 -27.504  0.00  0.00    -0.101 C 
ATOM     25  C   UNL     1      32.683  -2.718 -27.857  0.00  0.00    -0.101 C 
ATOM     26  H   UNL     1      31.420  -3.922 -25.836  0.00  0.00    -0.079 HD
ATOM     27  H   UNL     1      31.887  -0.852 -28.012  0.00  0.00    -0.080 HD
BRANCH  21  28
ATOM     28  C   UNL     1      31.367  -1.862 -29.688  0.00  0.00    -0.078 C 
ATOM     29  C   UNL     1      30.041  -2.536 -30.000  0.00  0.00    -0.025 C 
ENDBRANCH  21  28
ENDBRANCH  19  20
ENDBRANCH  13  19
ENDBRANCH   5  16
BRANCH   2  30
ATOM     30  C   UNL     1      33.023 -13.849 -22.166  0.00  0.00    +0.093 C 
ATOM     31  C   UNL     1      34.060 -14.151 -21.086  0.00  0.00    +0.026 C 
BRANCH  30  32
ATOM     32  C   UNL     1      33.408 -14.389 -23.526  0.00  0.00    -0.005 C 
ATOM     33  C   UNL     1      34.157 -15.551 -23.604  0.00  0.00    -0.003 C 
ATOM     34  C   UNL     1      33.004 -13.711 -24.663  0.00  0.00    -0.003 C 
ATOM     35  C   UNL     1      34.513 -16.049 -24.857  0.00  0.00    -0.000 C 
ATOM     36  C   UNL     1      33.359 -14.209 -25.916  0.00  0.00    -0.000 C 
ATOM     37  C   UNL     1      34.114 -15.378 -26.013  0.00  0.00    -0.000 C 
ENDBRANCH  30  32
ENDBRANCH   2  30
TORSDOF 6
ENDMDL
