MODEL 1
REMARK VINA RESULT:     -12.1      0.000      0.000
REMARK  Name = 44472635
REMARK  7 active torsions:
REMARK  status: ('A' for Active; 'I' for Inactive)
REMARK    1  A    between atoms: C_1  and  C_21
REMARK    2  A    between atoms: C_4  and  N_8
REMARK    3  A    between atoms: C_9  and  C_14
REMARK    4  A    between atoms: C_21  and  C_24
REMARK    5  A    between atoms: C_23  and  C_29
REMARK    6  A    between atoms: C_29  and  C_30
REMARK    7  A    between atoms: C_29  and  O_36
REMARK                            x       y       z     vdW  Elec       q    Type
REMARK                         _______ _______ _______ _____ _____    ______ ____
ROOT
ATOM      1  C   UNL     1      32.253 -12.622 -21.526  0.00  0.00    -0.024 C 
ATOM      2  C   UNL     1      33.023 -12.661 -22.689  0.00  0.00    -0.003 C 
ATOM      3  C   UNL     1      32.255 -13.710 -20.653  0.00  0.00    -0.003 C 
ATOM      4  C   UNL     1      33.797 -14.874 -22.104  0.00  0.00    +0.050 C 
ATOM      5  C   UNL     1      33.795 -13.786 -22.978  0.00  0.00    +0.014 C 
ATOM      6  C   UNL     1      33.027 -14.835 -20.941  0.00  0.00    +0.014 C 
ENDROOT
BRANCH   4   8
ATOM      7  O   UNL     1      35.237 -16.779 -20.270  0.00  0.00    -0.273 OA
ATOM      8  N   UNL     1      34.580 -16.015 -22.396  0.00  0.00    -0.283 N 
ATOM      9  C   UNL     1      35.221 -16.854 -21.495  0.00  0.00    +0.245 C 
ATOM     10  H   UNL     1      34.681 -16.240 -23.350  0.00  0.00    +0.155 HD
BRANCH   9  14
ATOM     11  O   UNL     1      37.933 -18.347 -20.037  0.00  0.00    -0.269 OA
ATOM     12  N   UNL     1      36.087 -19.049 -21.268  0.00  0.00    -0.237 N 
ATOM     13  N   UNL     1      35.017 -21.132 -20.817  0.00  0.00    -0.233 NA
ATOM     14  C   UNL     1      35.950 -17.955 -22.205  0.00  0.00    +0.158 C 
ATOM     15  C   UNL     1      35.115 -18.549 -23.330  0.00  0.00    +0.037 C 
ATOM     16  C   UNL     1      34.274 -19.635 -22.655  0.00  0.00    +0.064 C 
ATOM     17  C   UNL     1      35.138 -20.041 -21.499  0.00  0.00    +0.115 C 
ATOM     18  C   UNL     1      37.047 -19.158 -20.282  0.00  0.00    +0.256 C 
ATOM     19  C   UNL     1      36.912 -20.409 -19.491  0.00  0.00    +0.079 C 
ATOM     20  C   UNL     1      35.937 -21.275 -19.805  0.00  0.00    +0.105 C 
ENDBRANCH   9  14
ENDBRANCH   4   8
BRANCH   1  21
ATOM     21  C   UNL     1      31.426 -11.420 -21.218  0.00  0.00    +0.005 C 
BRANCH  21  24
ATOM     22  N   UNL     1      32.168  -9.181 -21.982  0.00  0.00    +0.388 N 
ATOM     23  C   UNL     1      32.706  -7.955 -21.374  0.00  0.00    -0.030 C 
ATOM     24  C   UNL     1      32.276 -10.195 -20.923  0.00  0.00    -0.057 C 
ATOM     25  C   UNL     1      32.285  -8.012 -19.905  0.00  0.00    -0.021 C 
ATOM     26  C   UNL     1      31.828  -9.447 -19.675  0.00  0.00    -0.023 C 
ATOM     27  H   UNL     1      32.719  -9.451 -22.796  0.00  0.00    -0.084 HD
ATOM     28  H   UNL     1      31.210  -9.063 -22.310  0.00  0.00    -0.084 HD
BRANCH  23  29
ATOM     29  C   UNL     1      32.207  -6.706 -22.086  0.00  0.00    +0.113 C 
BRANCH  29  30
ATOM     30  C   UNL     1      33.096  -6.316 -23.246  0.00  0.00    +0.002 C 
ATOM     31  C   UNL     1      32.589  -5.531 -24.281  0.00  0.00    -0.002 C 
ATOM     32  C   UNL     1      34.424  -6.742 -23.280  0.00  0.00    -0.002 C 
ATOM     33  C   UNL     1      33.409  -5.173 -25.350  0.00  0.00    -0.000 C 
ATOM     34  C   UNL     1      35.245  -6.384 -24.349  0.00  0.00    -0.000 C 
ATOM     35  C   UNL     1      34.737  -5.598 -25.385  0.00  0.00    -0.000 C 
ENDBRANCH  29  30
BRANCH  29  36
ATOM     36  O   UNL     1      30.882  -6.923 -22.569  0.00  0.00    -0.382 OA
ATOM     37  H   UNL     1      30.275  -7.011 -21.817  0.00  0.00    +0.211 HD
ENDBRANCH  29  36
ENDBRANCH  23  29
ENDBRANCH  21  24
ENDBRANCH   1  21
TORSDOF 7
ENDMDL
MODEL 2
REMARK VINA RESULT:     -11.8      4.880      9.266
REMARK  Name = 44472635
REMARK  7 active torsions:
REMARK  status: ('A' for Active; 'I' for Inactive)
REMARK    1  A    between atoms: C_1  and  C_21
REMARK    2  A    between atoms: C_4  and  N_8
REMARK    3  A    between atoms: C_9  and  C_14
REMARK    4  A    between atoms: C_21  and  C_24
REMARK    5  A    between atoms: C_23  and  C_29
REMARK    6  A    between atoms: C_29  and  C_30
REMARK    7  A    between atoms: C_29  and  O_36
REMARK                            x       y       z     vdW  Elec       q    Type
REMARK                         _______ _______ _______ _____ _____    ______ ____
ROOT
ATOM      1  C   UNL     1      35.974 -20.519 -19.951  0.00  0.00    -0.024 C 
ATOM      2  C   UNL     1      34.638 -20.918 -19.904  0.00  0.00    -0.003 C 
ATOM      3  C   UNL     1      36.892 -21.052 -19.046  0.00  0.00    -0.003 C 
ATOM      4  C   UNL     1      35.140 -22.382 -18.049  0.00  0.00    +0.050 C 
ATOM      5  C   UNL     1      34.220 -21.849 -18.953  0.00  0.00    +0.014 C 
ATOM      6  C   UNL     1      36.476 -21.984 -18.095  0.00  0.00    +0.014 C 
ENDROOT
BRANCH   4   8
ATOM      7  O   UNL     1      35.384 -22.356 -15.048  0.00  0.00    -0.273 OA
ATOM      8  N   UNL     1      34.717 -23.327 -17.084  0.00  0.00    -0.283 N 
ATOM      9  C   UNL     1      34.864 -23.252 -15.706  0.00  0.00    +0.245 C 
ATOM     10  H   UNL     1      34.266 -24.131 -17.431  0.00  0.00    +0.155 HD
BRANCH   9  14
ATOM     11  O   UNL     1      36.887 -25.841 -14.748  0.00  0.00    -0.269 OA
ATOM     12  N   UNL     1      35.068 -24.705 -13.844  0.00  0.00    -0.237 N 
ATOM     13  N   UNL     1      34.899 -24.303 -11.499  0.00  0.00    -0.233 NA
ATOM     14  C   UNL     1      34.281 -24.458 -15.033  0.00  0.00    +0.158 C 
ATOM     15  C   UNL     1      32.887 -24.180 -14.488  0.00  0.00    +0.037 C 
ATOM     16  C   UNL     1      33.127 -23.601 -13.091  0.00  0.00    +0.064 C 
ATOM     17  C   UNL     1      34.432 -24.227 -12.702  0.00  0.00    +0.115 C 
ATOM     18  C   UNL     1      36.280 -25.364 -13.796  0.00  0.00    +0.256 C 
ATOM     19  C   UNL     1      36.825 -25.453 -12.416  0.00  0.00    +0.079 C 
ATOM     20  C   UNL     1      36.119 -24.931 -11.402  0.00  0.00    +0.105 C 
ENDBRANCH   9  14
ENDBRANCH   4   8
BRANCH   1  21
ATOM     21  C   UNL     1      36.420 -19.522 -20.965  0.00  0.00    +0.005 C 
BRANCH  21  24
ATOM     22  N   UNL     1      35.251 -17.534 -21.875  0.00  0.00    +0.388 N 
ATOM     23  C   UNL     1      34.361 -17.226 -23.005  0.00  0.00    -0.030 C 
ATOM     24  C   UNL     1      35.268 -19.002 -21.810  0.00  0.00    -0.057 C 
ATOM     25  C   UNL     1      34.604 -18.336 -24.027  0.00  0.00    -0.021 C 
ATOM     26  C   UNL     1      35.367 -19.417 -23.271  0.00  0.00    -0.023 C 
ATOM     27  H   UNL     1      34.885 -17.139 -21.010  0.00  0.00    -0.084 HD
ATOM     28  H   UNL     1      36.184 -17.140 -21.998  0.00  0.00    -0.084 HD
BRANCH  23  29
ATOM     29  C   UNL     1      34.622 -15.835 -23.566  0.00  0.00    +0.113 C 
BRANCH  29  30
ATOM     30  C   UNL     1      33.874 -14.763 -22.806  0.00  0.00    +0.002 C 
ATOM     31  C   UNL     1      33.381 -15.028 -21.529  0.00  0.00    -0.002 C 
ATOM     32  C   UNL     1      33.676 -13.508 -23.383  0.00  0.00    -0.002 C 
ATOM     33  C   UNL     1      32.691 -14.039 -20.829  0.00  0.00    -0.000 C 
ATOM     34  C   UNL     1      32.986 -12.519 -22.684  0.00  0.00    -0.000 C 
ATOM     35  C   UNL     1      32.493 -12.784 -21.406  0.00  0.00    -0.000 C 
ENDBRANCH  29  30
BRANCH  29  36
ATOM     36  O   UNL     1      36.020 -15.550 -23.518  0.00  0.00    -0.382 OA
ATOM     37  H   UNL     1      36.448 -15.898 -24.317  0.00  0.00    +0.211 HD
ENDBRANCH  29  36
ENDBRANCH  23  29
ENDBRANCH  21  24
ENDBRANCH   1  21
TORSDOF 7
ENDMDL
MODEL 3
REMARK VINA RESULT:     -11.6      4.744      8.713
REMARK  Name = 44472635
REMARK  7 active torsions:
REMARK  status: ('A' for Active; 'I' for Inactive)
REMARK    1  A    between atoms: C_1  and  C_21
REMARK    2  A    between atoms: C_4  and  N_8
REMARK    3  A    between atoms: C_9  and  C_14
REMARK    4  A    between atoms: C_21  and  C_24
REMARK    5  A    between atoms: C_23  and  C_29
REMARK    6  A    between atoms: C_29  and  C_30
REMARK    7  A    between atoms: C_29  and  O_36
REMARK                            x       y       z     vdW  Elec       q    Type
REMARK                         _______ _______ _______ _____ _____    ______ ____
ROOT
ATOM      1  C   UNL     1      35.989 -20.235 -20.202  0.00  0.00    -0.024 C 
ATOM      2  C   UNL     1      34.634 -20.565 -20.179  0.00  0.00    -0.003 C 
ATOM      3  C   UNL     1      36.870 -20.842 -19.307  0.00  0.00    -0.003 C 
ATOM      4  C   UNL     1      35.043 -22.112 -18.367  0.00  0.00    +0.050 C 
ATOM      5  C   UNL     1      34.161 -21.503 -19.261  0.00  0.00    +0.014 C 
ATOM      6  C   UNL     1      36.398 -21.781 -18.391  0.00  0.00    +0.014 C 
ENDROOT
BRANCH   4   8
ATOM      7  O   UNL     1      35.526 -22.367 -15.407  0.00  0.00    -0.273 OA
ATOM      8  N   UNL     1      34.563 -23.064 -17.437  0.00  0.00    -0.283 N 
ATOM      9  C   UNL     1      34.829 -23.124 -16.076  0.00  0.00    +0.245 C 
ATOM     10  H   UNL     1      33.972 -23.764 -17.798  0.00  0.00    +0.155 HD
BRANCH   9  14
ATOM     11  O   UNL     1      36.626 -25.801 -14.928  0.00  0.00    -0.269 OA
ATOM     12  N   UNL     1      34.803 -24.556 -14.188  0.00  0.00    -0.237 N 
ATOM     13  N   UNL     1      34.469 -24.110 -11.869  0.00  0.00    -0.233 NA
ATOM     14  C   UNL     1      34.129 -24.286 -15.439  0.00  0.00    +0.158 C 
ATOM     15  C   UNL     1      32.713 -23.927 -15.013  0.00  0.00    +0.037 C 
ATOM     16  C   UNL     1      32.871 -23.340 -13.607  0.00  0.00    +0.064 C 
ATOM     17  C   UNL     1      34.104 -24.027 -13.106  0.00  0.00    +0.115 C 
ATOM     18  C   UNL     1      35.971 -25.278 -14.034  0.00  0.00    +0.256 C 
ATOM     19  C   UNL     1      36.398 -25.373 -12.614  0.00  0.00    +0.079 C 
ATOM     20  C   UNL     1      35.641 -24.799 -11.666  0.00  0.00    +0.105 C 
ENDBRANCH   9  14
ENDBRANCH   4   8
BRANCH   1  21
ATOM     21  C   UNL     1      36.495 -19.230 -21.181  0.00  0.00    +0.005 C 
BRANCH  21  24
ATOM     22  N   UNL     1      35.282 -17.073 -21.323  0.00  0.00    +0.388 N 
ATOM     23  C   UNL     1      34.447 -16.365 -22.305  0.00  0.00    -0.030 C 
ATOM     24  C   UNL     1      35.371 -18.447 -21.838  0.00  0.00    -0.057 C 
ATOM     25  C   UNL     1      34.808 -16.974 -23.659  0.00  0.00    -0.021 C 
ATOM     26  C   UNL     1      35.579 -18.248 -23.333  0.00  0.00    -0.023 C 
ATOM     27  H   UNL     1      34.844 -17.061 -20.402  0.00  0.00    -0.084 HD
ATOM     28  H   UNL     1      36.198 -16.640 -21.210  0.00  0.00    -0.084 HD
BRANCH  23  29
ATOM     29  C   UNL     1      34.668 -14.859 -22.253  0.00  0.00    +0.113 C 
BRANCH  29  30
ATOM     30  C   UNL     1      34.197 -14.169 -23.513  0.00  0.00    +0.002 C 
ATOM     31  C   UNL     1      33.626 -14.914 -24.545  0.00  0.00    -0.002 C 
ATOM     32  C   UNL     1      34.335 -12.787 -23.644  0.00  0.00    -0.002 C 
ATOM     33  C   UNL     1      33.193 -14.277 -25.707  0.00  0.00    -0.000 C 
ATOM     34  C   UNL     1      33.902 -12.150 -24.806  0.00  0.00    -0.000 C 
ATOM     35  C   UNL     1      33.330 -12.895 -25.838  0.00  0.00    -0.000 C 
ENDBRANCH  29  30
BRANCH  29  36
ATOM     36  O   UNL     1      33.975 -14.309 -21.134  0.00  0.00    -0.382 OA
ATOM     37  H   UNL     1      34.217 -13.375 -21.031  0.00  0.00    +0.211 HD
ENDBRANCH  29  36
ENDBRANCH  23  29
ENDBRANCH  21  24
ENDBRANCH   1  21
TORSDOF 7
ENDMDL
MODEL 4
REMARK VINA RESULT:     -11.5      2.356     11.427
REMARK  Name = 44472635
REMARK  7 active torsions:
REMARK  status: ('A' for Active; 'I' for Inactive)
REMARK    1  A    between atoms: C_1  and  C_21
REMARK    2  A    between atoms: C_4  and  N_8
REMARK    3  A    between atoms: C_9  and  C_14
REMARK    4  A    between atoms: C_21  and  C_24
REMARK    5  A    between atoms: C_23  and  C_29
REMARK    6  A    between atoms: C_29  and  C_30
REMARK    7  A    between atoms: C_29  and  O_36
REMARK                            x       y       z     vdW  Elec       q    Type
REMARK                         _______ _______ _______ _____ _____    ______ ____
ROOT
ATOM      1  C   UNL     1      34.622 -15.657 -23.268  0.00  0.00    -0.024 C 
ATOM      2  C   UNL     1      34.572 -15.040 -22.018  0.00  0.00    -0.003 C 
ATOM      3  C   UNL     1      34.027 -15.044 -24.371  0.00  0.00    -0.003 C 
ATOM      4  C   UNL     1      33.334 -13.199 -22.975  0.00  0.00    +0.050 C 
ATOM      5  C   UNL     1      33.928 -13.812 -21.870  0.00  0.00    +0.014 C 
ATOM      6  C   UNL     1      33.384 -13.816 -24.225  0.00  0.00    +0.014 C 
ENDROOT
BRANCH   4   8
ATOM      7  O   UNL     1      34.242 -10.419 -23.690  0.00  0.00    -0.273 OA
ATOM      8  N   UNL     1      32.681 -11.952 -22.826  0.00  0.00    -0.283 N 
ATOM      9  C   UNL     1      33.162 -10.699 -23.178  0.00  0.00    +0.245 C 
ATOM     10  H   UNL     1      31.781 -11.978 -22.426  0.00  0.00    +0.155 HD
BRANCH   9  14
ATOM     11  O   UNL     1      30.514 -11.367 -21.115  0.00  0.00    -0.269 OA
ATOM     12  N   UNL     1      32.006  -9.606 -21.421  0.00  0.00    -0.237 N 
ATOM     13  N   UNL     1      32.791  -8.314 -19.576  0.00  0.00    -0.233 NA
ATOM     14  C   UNL     1      32.164  -9.627 -22.859  0.00  0.00    +0.158 C 
ATOM     15  C   UNL     1      32.704  -8.241 -23.180  0.00  0.00    +0.037 C 
ATOM     16  C   UNL     1      33.459  -7.819 -21.917  0.00  0.00    +0.064 C 
ATOM     17  C   UNL     1      32.737  -8.573 -20.841  0.00  0.00    +0.115 C 
ATOM     18  C   UNL     1      31.210 -10.457 -20.679  0.00  0.00    +0.256 C 
ATOM     19  C   UNL     1      31.269 -10.166 -19.223  0.00  0.00    +0.079 C 
ATOM     20  C   UNL     1      32.032  -9.150 -18.792  0.00  0.00    +0.105 C 
ENDBRANCH   9  14
ENDBRANCH   4   8
BRANCH   1  21
ATOM     21  C   UNL     1      35.308 -16.971 -23.425  0.00  0.00    +0.005 C 
BRANCH  21  24
ATOM     22  N   UNL     1      34.485 -18.597 -21.744  0.00  0.00    +0.388 N 
ATOM     23  C   UNL     1      35.056 -19.429 -20.674  0.00  0.00    -0.030 C 
ATOM     24  C   UNL     1      35.558 -17.655 -22.091  0.00  0.00    -0.057 C 
ATOM     25  C   UNL     1      36.536 -19.581 -21.025  0.00  0.00    -0.021 C 
ATOM     26  C   UNL     1      36.804 -18.529 -22.095  0.00  0.00    -0.023 C 
ATOM     27  H   UNL     1      33.661 -18.097 -21.411  0.00  0.00    -0.084 HD
ATOM     28  H   UNL     1      34.180 -19.151 -22.545  0.00  0.00    -0.084 HD
BRANCH  23  29
ATOM     29  C   UNL     1      34.335 -20.764 -20.551  0.00  0.00    +0.113 C 
BRANCH  29  30
ATOM     30  C   UNL     1      34.664 -21.474 -19.258  0.00  0.00    +0.002 C 
ATOM     31  C   UNL     1      35.963 -21.438 -18.752  0.00  0.00    -0.002 C 
ATOM     32  C   UNL     1      33.667 -22.166 -18.570  0.00  0.00    -0.002 C 
ATOM     33  C   UNL     1      36.266 -22.093 -17.560  0.00  0.00    -0.000 C 
ATOM     34  C   UNL     1      33.970 -22.823 -17.377  0.00  0.00    -0.000 C 
ATOM     35  C   UNL     1      35.270 -22.786 -16.871  0.00  0.00    -0.000 C 
ENDBRANCH  29  30
BRANCH  29  36
ATOM     36  O   UNL     1      32.924 -20.558 -20.624  0.00  0.00    -0.382 OA
ATOM     37  H   UNL     1      32.571 -21.012 -21.405  0.00  0.00    +0.211 HD
ENDBRANCH  29  36
ENDBRANCH  23  29
ENDBRANCH  21  24
ENDBRANCH   1  21
TORSDOF 7
ENDMDL
MODEL 5
REMARK VINA RESULT:     -11.4      5.075      9.424
REMARK  Name = 44472635
REMARK  7 active torsions:
REMARK  status: ('A' for Active; 'I' for Inactive)
REMARK    1  A    between atoms: C_1  and  C_21
REMARK    2  A    between atoms: C_4  and  N_8
REMARK    3  A    between atoms: C_9  and  C_14
REMARK    4  A    between atoms: C_21  and  C_24
REMARK    5  A    between atoms: C_23  and  C_29
REMARK    6  A    between atoms: C_29  and  C_30
REMARK    7  A    between atoms: C_29  and  O_36
REMARK                            x       y       z     vdW  Elec       q    Type
REMARK                         _______ _______ _______ _____ _____    ______ ____
ROOT
ATOM      1  C   UNL     1      36.380 -20.814 -19.530  0.00  0.00    -0.024 C 
ATOM      2  C   UNL     1      35.105 -21.371 -19.631  0.00  0.00    -0.003 C 
ATOM      3  C   UNL     1      37.191 -21.124 -18.439  0.00  0.00    -0.003 C 
ATOM      4  C   UNL     1      35.454 -22.548 -17.550  0.00  0.00    +0.050 C 
ATOM      5  C   UNL     1      34.642 -22.238 -18.641  0.00  0.00    +0.014 C 
ATOM      6  C   UNL     1      36.730 -21.991 -17.450  0.00  0.00    +0.014 C 
ENDROOT
BRANCH   4   8
ATOM      7  O   UNL     1      35.779 -22.450 -14.558  0.00  0.00    -0.273 OA
ATOM      8  N   UNL     1      34.986 -23.428 -16.546  0.00  0.00    -0.283 N 
ATOM      9  C   UNL     1      35.175 -23.323 -15.175  0.00  0.00    +0.245 C 
ATOM     10  H   UNL     1      34.465 -24.205 -16.856  0.00  0.00    +0.155 HD
BRANCH   9  14
ATOM     11  O   UNL     1      36.259 -26.533 -15.654  0.00  0.00    -0.269 OA
ATOM     12  N   UNL     1      35.571 -25.243 -13.843  0.00  0.00    -0.237 N 
ATOM     13  N   UNL     1      36.570 -25.496 -11.692  0.00  0.00    -0.233 NA
ATOM     14  C   UNL     1      34.518 -24.458 -14.449  0.00  0.00    +0.158 C 
ATOM     15  C   UNL     1      33.704 -23.971 -13.260  0.00  0.00    +0.037 C 
ATOM     16  C   UNL     1      34.708 -23.905 -12.106  0.00  0.00    +0.064 C 
ATOM     17  C   UNL     1      35.709 -24.953 -12.488  0.00  0.00    +0.115 C 
ATOM     18  C   UNL     1      36.340 -26.199 -14.477  0.00  0.00    +0.256 C 
ATOM     19  C   UNL     1      37.335 -26.825 -13.568  0.00  0.00    +0.079 C 
ATOM     20  C   UNL     1      37.377 -26.439 -12.284  0.00  0.00    +0.105 C 
ENDBRANCH   9  14
ENDBRANCH   4   8
BRANCH   1  21
ATOM     21  C   UNL     1      36.874 -19.886 -20.587  0.00  0.00    +0.005 C 
BRANCH  21  24
ATOM     22  N   UNL     1      35.534 -17.801 -20.659  0.00  0.00    +0.388 N 
ATOM     23  C   UNL     1      34.717 -17.074 -21.642  0.00  0.00    -0.030 C 
ATOM     24  C   UNL     1      35.744 -19.125 -21.262  0.00  0.00    -0.057 C 
ATOM     25  C   UNL     1      35.202 -17.558 -23.009  0.00  0.00    -0.021 C 
ATOM     26  C   UNL     1      36.032 -18.803 -22.722  0.00  0.00    -0.023 C 
ATOM     27  H   UNL     1      35.039 -17.885 -19.771  0.00  0.00    -0.084 HD
ATOM     28  H   UNL     1      36.411 -17.324 -20.455  0.00  0.00    -0.084 HD
BRANCH  23  29
ATOM     29  C   UNL     1      34.836 -15.566 -21.470  0.00  0.00    +0.113 C 
BRANCH  29  30
ATOM     30  C   UNL     1      34.381 -14.813 -22.700  0.00  0.00    +0.002 C 
ATOM     31  C   UNL     1      34.352 -13.418 -22.694  0.00  0.00    -0.002 C 
ATOM     32  C   UNL     1      33.990 -15.513 -23.841  0.00  0.00    -0.002 C 
ATOM     33  C   UNL     1      33.932 -12.725 -23.828  0.00  0.00    -0.000 C 
ATOM     34  C   UNL     1      33.569 -14.820 -24.976  0.00  0.00    -0.000 C 
ATOM     35  C   UNL     1      33.540 -13.425 -24.969  0.00  0.00    -0.000 C 
ENDBRANCH  29  30
BRANCH  29  36
ATOM     36  O   UNL     1      34.056 -15.145 -20.352  0.00  0.00    -0.382 OA
ATOM     37  H   UNL     1      33.134 -15.024 -20.628  0.00  0.00    +0.211 HD
ENDBRANCH  29  36
ENDBRANCH  23  29
ENDBRANCH  21  24
ENDBRANCH   1  21
TORSDOF 7
ENDMDL
MODEL 6
REMARK VINA RESULT:     -11.3      4.382      8.249
REMARK  Name = 44472635
REMARK  7 active torsions:
REMARK  status: ('A' for Active; 'I' for Inactive)
REMARK    1  A    between atoms: C_1  and  C_21
REMARK    2  A    between atoms: C_4  and  N_8
REMARK    3  A    between atoms: C_9  and  C_14
REMARK    4  A    between atoms: C_21  and  C_24
REMARK    5  A    between atoms: C_23  and  C_29
REMARK    6  A    between atoms: C_29  and  C_30
REMARK    7  A    between atoms: C_29  and  O_36
REMARK                            x       y       z     vdW  Elec       q    Type
REMARK                         _______ _______ _______ _____ _____    ______ ____
ROOT
ATOM      1  C   UNL     1      35.461 -19.930 -20.740  0.00  0.00    -0.024 C 
ATOM      2  C   UNL     1      34.092 -20.129 -20.565  0.00  0.00    -0.003 C 
ATOM      3  C   UNL     1      36.375 -20.680 -19.999  0.00  0.00    -0.003 C 
ATOM      4  C   UNL     1      34.551 -21.827 -18.908  0.00  0.00    +0.050 C 
ATOM      5  C   UNL     1      33.636 -21.078 -19.648  0.00  0.00    +0.014 C 
ATOM      6  C   UNL     1      35.921 -21.628 -19.084  0.00  0.00    +0.014 C 
ENDROOT
BRANCH   4   8
ATOM      7  O   UNL     1      35.447 -22.414 -16.094  0.00  0.00    -0.273 OA
ATOM      8  N   UNL     1      34.090 -22.790 -17.979  0.00  0.00    -0.283 N 
ATOM      9  C   UNL     1      34.553 -23.009 -16.689  0.00  0.00    +0.245 C 
ATOM     10  H   UNL     1      33.356 -23.372 -18.284  0.00  0.00    +0.155 HD
BRANCH   9  14
ATOM     11  O   UNL     1      36.244 -25.601 -15.229  0.00  0.00    -0.269 OA
ATOM     12  N   UNL     1      34.380 -24.307 -14.713  0.00  0.00    -0.237 N 
ATOM     13  N   UNL     1      33.878 -23.699 -12.462  0.00  0.00    -0.233 NA
ATOM     14  C   UNL     1      33.801 -24.123 -16.026  0.00  0.00    +0.158 C 
ATOM     15  C   UNL     1      32.360 -23.733 -15.732  0.00  0.00    +0.037 C 
ATOM     16  C   UNL     1      32.417 -23.050 -14.363  0.00  0.00    +0.064 C 
ATOM     17  C   UNL     1      33.606 -23.703 -13.725  0.00  0.00    +0.115 C 
ATOM     18  C   UNL     1      35.528 -25.017 -14.424  0.00  0.00    +0.256 C 
ATOM     19  C   UNL     1      35.849 -25.014 -12.973  0.00  0.00    +0.079 C 
ATOM     20  C   UNL     1      35.028 -24.375 -12.126  0.00  0.00    +0.105 C 
ENDBRANCH   9  14
ENDBRANCH   4   8
BRANCH   1  21
ATOM     21  C   UNL     1      35.948 -18.915 -21.718  0.00  0.00    +0.005 C 
BRANCH  21  24
ATOM     22  N   UNL     1      34.941 -16.734 -21.103  0.00  0.00    +0.388 N 
ATOM     23  C   UNL     1      34.162 -15.677 -21.766  0.00  0.00    -0.030 C 
ATOM     24  C   UNL     1      34.893 -17.868 -22.037  0.00  0.00    -0.057 C 
ATOM     25  C   UNL     1      34.446 -15.841 -23.259  0.00  0.00    -0.021 C 
ATOM     26  C   UNL     1      35.098 -17.212 -23.395  0.00  0.00    -0.023 C 
ATOM     27  H   UNL     1      34.518 -16.986 -20.210  0.00  0.00    -0.084 HD
ATOM     28  H   UNL     1      35.895 -16.441 -20.897  0.00  0.00    -0.084 HD
BRANCH  23  29
ATOM     29  C   UNL     1      34.525 -14.295 -21.241  0.00  0.00    +0.113 C 
BRANCH  29  30
ATOM     30  C   UNL     1      33.343 -13.352 -21.252  0.00  0.00    +0.002 C 
ATOM     31  C   UNL     1      33.090 -12.564 -22.375  0.00  0.00    -0.002 C 
ATOM     32  C   UNL     1      32.507 -13.269 -20.139  0.00  0.00    -0.002 C 
ATOM     33  C   UNL     1      32.000 -11.694 -22.384  0.00  0.00    -0.000 C 
ATOM     34  C   UNL     1      31.418 -12.398 -20.147  0.00  0.00    -0.000 C 
ATOM     35  C   UNL     1      31.164 -11.610 -21.271  0.00  0.00    -0.000 C 
ENDBRANCH  29  30
BRANCH  29  36
ATOM     36  O   UNL     1      35.023 -14.402 -19.908  0.00  0.00    -0.382 OA
ATOM     37  H   UNL     1      35.166 -15.336 -19.690  0.00  0.00    +0.211 HD
ENDBRANCH  29  36
ENDBRANCH  23  29
ENDBRANCH  21  24
ENDBRANCH   1  21
TORSDOF 7
ENDMDL
MODEL 7
REMARK VINA RESULT:     -11.2      5.341      9.874
REMARK  Name = 44472635
REMARK  7 active torsions:
REMARK  status: ('A' for Active; 'I' for Inactive)
REMARK    1  A    between atoms: C_1  and  C_21
REMARK    2  A    between atoms: C_4  and  N_8
REMARK    3  A    between atoms: C_9  and  C_14
REMARK    4  A    between atoms: C_21  and  C_24
REMARK    5  A    between atoms: C_23  and  C_29
REMARK    6  A    between atoms: C_29  and  C_30
REMARK    7  A    between atoms: C_29  and  O_36
REMARK                            x       y       z     vdW  Elec       q    Type
REMARK                         _______ _______ _______ _____ _____    ______ ____
ROOT
ATOM      1  C   UNL     1      34.680 -21.335 -19.269  0.00  0.00    -0.024 C 
ATOM      2  C   UNL     1      34.024 -22.155 -18.351  0.00  0.00    -0.003 C 
ATOM      3  C   UNL     1      36.057 -21.135 -19.164  0.00  0.00    -0.003 C 
ATOM      4  C   UNL     1      36.120 -22.575 -17.226  0.00  0.00    +0.050 C 
ATOM      5  C   UNL     1      34.743 -22.775 -17.329  0.00  0.00    +0.014 C 
ATOM      6  C   UNL     1      36.777 -21.755 -18.144  0.00  0.00    +0.014 C 
ENDROOT
BRANCH   4   8
ATOM      7  O   UNL     1      35.604 -22.691 -14.262  0.00  0.00    -0.273 OA
ATOM      8  N   UNL     1      36.851 -23.204 -16.190  0.00  0.00    -0.283 N 
ATOM      9  C   UNL     1      36.555 -23.216 -14.834  0.00  0.00    +0.245 C 
ATOM     10  H   UNL     1      37.664 -23.689 -16.464  0.00  0.00    +0.155 HD
BRANCH   9  14
ATOM     11  O   UNL     1      37.898 -21.930 -11.961  0.00  0.00    -0.269 OA
ATOM     12  N   UNL     1      37.150 -24.013 -12.682  0.00  0.00    -0.237 N 
ATOM     13  N   UNL     1      36.049 -25.517 -11.194  0.00  0.00    -0.233 NA
ATOM     14  C   UNL     1      37.578 -23.995 -14.064  0.00  0.00    +0.158 C 
ATOM     15  C   UNL     1      37.580 -25.465 -14.457  0.00  0.00    +0.037 C 
ATOM     16  C   UNL     1      36.518 -26.106 -13.560  0.00  0.00    +0.064 C 
ATOM     17  C   UNL     1      36.535 -25.218 -12.353  0.00  0.00    +0.115 C 
ATOM     18  C   UNL     1      37.341 -23.003 -11.760  0.00  0.00    +0.256 C 
ATOM     19  C   UNL     1      36.781 -23.339 -10.425  0.00  0.00    +0.079 C 
ATOM     20  C   UNL     1      36.194 -24.531 -10.246  0.00  0.00    +0.105 C 
ENDBRANCH   9  14
ENDBRANCH   4   8
BRANCH   1  21
ATOM     21  C   UNL     1      33.911 -20.670 -20.359  0.00  0.00    +0.005 C 
BRANCH  21  24
ATOM     22  N   UNL     1      34.330 -18.557 -21.586  0.00  0.00    +0.388 N 
ATOM     23  C   UNL     1      35.479 -17.870 -22.196  0.00  0.00    -0.030 C 
ATOM     24  C   UNL     1      34.811 -19.922 -21.328  0.00  0.00    -0.057 C 
ATOM     25  C   UNL     1      36.713 -18.454 -21.507  0.00  0.00    -0.021 C 
ATOM     26  C   UNL     1      36.217 -19.702 -20.786  0.00  0.00    -0.023 C 
ATOM     27  H   UNL     1      33.537 -18.569 -22.226  0.00  0.00    -0.084 HD
ATOM     28  H   UNL     1      34.007 -18.092 -20.737  0.00  0.00    -0.084 HD
BRANCH  23  29
ATOM     29  C   UNL     1      35.377 -16.359 -22.048  0.00  0.00    +0.113 C 
BRANCH  29  30
ATOM     30  C   UNL     1      34.660 -15.718 -23.215  0.00  0.00    +0.002 C 
ATOM     31  C   UNL     1      33.914 -14.555 -23.023  0.00  0.00    -0.002 C 
ATOM     32  C   UNL     1      34.744 -16.291 -24.484  0.00  0.00    -0.002 C 
ATOM     33  C   UNL     1      33.253 -13.965 -24.100  0.00  0.00    -0.000 C 
ATOM     34  C   UNL     1      34.082 -15.702 -25.561  0.00  0.00    -0.000 C 
ATOM     35  C   UNL     1      33.337 -14.538 -25.369  0.00  0.00    -0.000 C 
ENDBRANCH  29  30
BRANCH  29  36
ATOM     36  O   UNL     1      34.683 -16.038 -20.843  0.00  0.00    -0.382 OA
ATOM     37  H   UNL     1      33.733 -15.965 -21.026  0.00  0.00    +0.211 HD
ENDBRANCH  29  36
ENDBRANCH  23  29
ENDBRANCH  21  24
ENDBRANCH   1  21
TORSDOF 7
ENDMDL
MODEL 8
REMARK VINA RESULT:     -11.0      5.544     10.148
REMARK  Name = 44472635
REMARK  7 active torsions:
REMARK  status: ('A' for Active; 'I' for Inactive)
REMARK    1  A    between atoms: C_1  and  C_21
REMARK    2  A    between atoms: C_4  and  N_8
REMARK    3  A    between atoms: C_9  and  C_14
REMARK    4  A    between atoms: C_21  and  C_24
REMARK    5  A    between atoms: C_23  and  C_29
REMARK    6  A    between atoms: C_29  and  C_30
REMARK    7  A    between atoms: C_29  and  O_36
REMARK                            x       y       z     vdW  Elec       q    Type
REMARK                         _______ _______ _______ _____ _____    ______ ____
ROOT
ATOM      1  C   UNL     1      33.437 -21.691 -18.949  0.00  0.00    -0.024 C 
ATOM      2  C   UNL     1      32.473 -22.065 -18.013  0.00  0.00    -0.003 C 
ATOM      3  C   UNL     1      34.774 -22.035 -18.748  0.00  0.00    -0.003 C 
ATOM      4  C   UNL     1      34.182 -23.128 -16.677  0.00  0.00    +0.050 C 
ATOM      5  C   UNL     1      32.845 -22.784 -16.877  0.00  0.00    +0.014 C 
ATOM      6  C   UNL     1      35.147 -22.754 -17.613  0.00  0.00    +0.014 C 
ENDROOT
BRANCH   4   8
ATOM      7  O   UNL     1      35.963 -22.359 -14.374  0.00  0.00    -0.273 OA
ATOM      8  N   UNL     1      34.561 -23.858 -15.525  0.00  0.00    -0.283 N 
ATOM      9  C   UNL     1      35.392 -23.439 -14.496  0.00  0.00    +0.245 C 
ATOM     10  H   UNL     1      34.190 -24.767 -15.445  0.00  0.00    +0.155 HD
BRANCH   9  14
ATOM     11  O   UNL     1      36.691 -26.493 -15.334  0.00  0.00    -0.269 OA
ATOM     12  N   UNL     1      36.898 -25.009 -13.553  0.00  0.00    -0.237 N 
ATOM     13  N   UNL     1      38.974 -24.722 -12.415  0.00  0.00    -0.233 NA
ATOM     14  C   UNL     1      35.544 -24.508 -13.455  0.00  0.00    +0.158 C 
ATOM     15  C   UNL     1      35.475 -23.936 -12.046  0.00  0.00    +0.037 C 
ATOM     16  C   UNL     1      36.914 -23.518 -11.729  0.00  0.00    +0.064 C 
ATOM     17  C   UNL     1      37.718 -24.462 -12.570  0.00  0.00    +0.115 C 
ATOM     18  C   UNL     1      37.354 -25.943 -14.462  0.00  0.00    +0.256 C 
ATOM     19  C   UNL     1      38.799 -26.244 -14.293  0.00  0.00    +0.079 C 
ATOM     20  C   UNL     1      39.482 -25.630 -13.315  0.00  0.00    +0.105 C 
ENDBRANCH   9  14
ENDBRANCH   4   8
BRANCH   1  21
ATOM     21  C   UNL     1      33.040 -20.921 -20.163  0.00  0.00    +0.005 C 
BRANCH  21  24
ATOM     22  N   UNL     1      34.079 -18.998 -21.333  0.00  0.00    +0.388 N 
ATOM     23  C   UNL     1      35.434 -18.561 -21.703  0.00  0.00    -0.030 C 
ATOM     24  C   UNL     1      34.241 -20.405 -20.939  0.00  0.00    -0.057 C 
ATOM     25  C   UNL     1      36.373 -19.301 -20.750  0.00  0.00    -0.021 C 
ATOM     26  C   UNL     1      35.521 -20.394 -20.115  0.00  0.00    -0.023 C 
ATOM     27  H   UNL     1      33.445 -18.917 -22.127  0.00  0.00    -0.084 HD
ATOM     28  H   UNL     1      33.679 -18.429 -20.587  0.00  0.00    -0.084 HD
BRANCH  23  29
ATOM     29  C   UNL     1      35.580 -17.048 -21.626  0.00  0.00    +0.113 C 
BRANCH  29  30
ATOM     30  C   UNL     1      34.957 -16.353 -22.814  0.00  0.00    +0.002 C 
ATOM     31  C   UNL     1      35.085 -16.900 -24.090  0.00  0.00    -0.002 C 
ATOM     32  C   UNL     1      34.253 -15.161 -22.634  0.00  0.00    -0.002 C 
ATOM     33  C   UNL     1      34.510 -16.258 -25.186  0.00  0.00    -0.000 C 
ATOM     34  C   UNL     1      33.678 -14.518 -23.730  0.00  0.00    -0.000 C 
ATOM     35  C   UNL     1      33.806 -15.067 -25.006  0.00  0.00    -0.000 C 
ENDBRANCH  29  30
BRANCH  29  36
ATOM     36  O   UNL     1      34.969 -16.566 -20.429  0.00  0.00    -0.382 OA
ATOM     37  H   UNL     1      35.406 -16.963 -19.660  0.00  0.00    +0.211 HD
ENDBRANCH  29  36
ENDBRANCH  23  29
ENDBRANCH  21  24
ENDBRANCH   1  21
TORSDOF 7
ENDMDL
MODEL 9
REMARK VINA RESULT:     -11.0      1.998     11.631
REMARK  Name = 44472635
REMARK  7 active torsions:
REMARK  status: ('A' for Active; 'I' for Inactive)
REMARK    1  A    between atoms: C_1  and  C_21
REMARK    2  A    between atoms: C_4  and  N_8
REMARK    3  A    between atoms: C_9  and  C_14
REMARK    4  A    between atoms: C_21  and  C_24
REMARK    5  A    between atoms: C_23  and  C_29
REMARK    6  A    between atoms: C_29  and  C_30
REMARK    7  A    between atoms: C_29  and  O_36
REMARK                            x       y       z     vdW  Elec       q    Type
REMARK                         _______ _______ _______ _____ _____    ______ ____
ROOT
ATOM      1  C   UNL     1      33.775 -13.051 -23.892  0.00  0.00    -0.024 C 
ATOM      2  C   UNL     1      33.030 -12.627 -22.791  0.00  0.00    -0.003 C 
ATOM      3  C   UNL     1      34.472 -12.120 -24.662  0.00  0.00    -0.003 C 
ATOM      4  C   UNL     1      33.683 -10.343 -23.229  0.00  0.00    +0.050 C 
ATOM      5  C   UNL     1      32.984 -11.273 -22.459  0.00  0.00    +0.014 C 
ATOM      6  C   UNL     1      34.427 -10.766 -24.330  0.00  0.00    +0.014 C 
ENDROOT
BRANCH   4   8
ATOM      7  O   UNL     1      31.333  -8.494 -22.875  0.00  0.00    -0.273 OA
ATOM      8  N   UNL     1      33.637  -8.969 -22.892  0.00  0.00    -0.283 N 
ATOM      9  C   UNL     1      32.510  -8.172 -22.746  0.00  0.00    +0.245 C 
ATOM     10  H   UNL     1      34.505  -8.528 -22.745  0.00  0.00    +0.155 HD
BRANCH   9  14
ATOM     11  O   UNL     1      35.644  -6.986 -23.445  0.00  0.00    -0.269 OA
ATOM     12  N   UNL     1      33.470  -6.163 -23.561  0.00  0.00    -0.237 N 
ATOM     13  N   UNL     1      32.797  -4.684 -25.307  0.00  0.00    -0.233 NA
ATOM     14  C   UNL     1      32.885  -6.767 -22.383  0.00  0.00    +0.158 C 
ATOM     15  C   UNL     1      31.657  -5.908 -22.113  0.00  0.00    +0.037 C 
ATOM     16  C   UNL     1      31.252  -5.372 -23.488  0.00  0.00    +0.064 C 
ATOM     17  C   UNL     1      32.557  -5.347 -24.224  0.00  0.00    +0.115 C 
ATOM     18  C   UNL     1      34.774  -6.315 -23.988  0.00  0.00    +0.256 C 
ATOM     19  C   UNL     1      35.056  -5.557 -25.235  0.00  0.00    +0.079 C 
ATOM     20  C   UNL     1      34.078  -4.823 -25.786  0.00  0.00    +0.105 C 
ENDBRANCH   9  14
ENDBRANCH   4   8
BRANCH   1  21
ATOM     21  C   UNL     1      33.822 -14.498 -24.248  0.00  0.00    +0.005 C 
BRANCH  21  24
ATOM     22  N   UNL     1      34.574 -16.622 -23.214  0.00  0.00    +0.388 N 
ATOM     23  C   UNL     1      34.755 -17.160 -21.857  0.00  0.00    -0.030 C 
ATOM     24  C   UNL     1      33.786 -15.397 -23.023  0.00  0.00    -0.057 C 
ATOM     25  C   UNL     1      34.889 -15.936 -20.951  0.00  0.00    -0.021 C 
ATOM     26  C   UNL     1      34.423 -14.757 -21.797  0.00  0.00    -0.023 C 
ATOM     27  H   UNL     1      34.070 -17.287 -23.801  0.00  0.00    -0.084 HD
ATOM     28  H   UNL     1      35.463 -16.443 -23.681  0.00  0.00    -0.084 HD
BRANCH  23  29
ATOM     29  C   UNL     1      35.954 -18.093 -21.775  0.00  0.00    +0.113 C 
BRANCH  29  30
ATOM     30  C   UNL     1      35.669 -19.316 -20.932  0.00  0.00    +0.002 C 
ATOM     31  C   UNL     1      34.357 -19.756 -20.760  0.00  0.00    -0.002 C 
ATOM     32  C   UNL     1      36.720 -20.004 -20.324  0.00  0.00    -0.002 C 
ATOM     33  C   UNL     1      34.095 -20.883 -19.982  0.00  0.00    -0.000 C 
ATOM     34  C   UNL     1      36.458 -21.131 -19.545  0.00  0.00    -0.000 C 
ATOM     35  C   UNL     1      35.145 -21.570 -19.375  0.00  0.00    -0.000 C 
ENDBRANCH  29  30
BRANCH  29  36
ATOM     36  O   UNL     1      36.331 -18.510 -23.087  0.00  0.00    -0.382 OA
ATOM     37  H   UNL     1      37.285 -18.683 -23.109  0.00  0.00    +0.211 HD
ENDBRANCH  29  36
ENDBRANCH  23  29
ENDBRANCH  21  24
ENDBRANCH   1  21
TORSDOF 7
ENDMDL
