MODEL 1
REMARK VINA RESULT:     -12.8      0.000      0.000
REMARK  Name = 11167602
REMARK  6 active torsions:
REMARK  status: ('A' for Active; 'I' for Inactive)
REMARK    1  A    between atoms: C_2  and  N_10
REMARK    2  A    between atoms: C_3  and  O_25
REMARK    3  A    between atoms: N_9  and  C_15
REMARK    4  A    between atoms: C_16  and  C_24
REMARK    5  A    between atoms: O_25  and  C_27
REMARK    6  A    between atoms: C_29  and  C_34
REMARK                            x       y       z     vdW  Elec       q    Type
REMARK                         _______ _______ _______ _____ _____    ______ ____
ROOT
ATOM      1  F   UNL     1      37.149 -21.381 -17.191  0.00  0.00    -0.203 F 
ATOM      2  C   UNL     1      35.183 -21.887 -18.423  0.00  0.00    +0.079 C 
ATOM      3  C   UNL     1      34.324 -23.505 -16.345  0.00  0.00    +0.148 C 
ATOM      4  C   UNL     1      35.976 -22.020 -17.295  0.00  0.00    +0.157 C 
ATOM      5  C   UNL     1      33.969 -22.545 -18.533  0.00  0.00    +0.020 C 
ATOM      6  C   UNL     1      35.544 -22.835 -16.249  0.00  0.00    +0.068 C 
ATOM      7  C   UNL     1      33.537 -23.360 -17.488  0.00  0.00    +0.039 C 
ENDROOT
BRANCH   2  10
ATOM      8  O   UNL     1      33.638 -20.024 -20.174  0.00  0.00    -0.252 OA
ATOM      9  N   UNL     1      35.673 -19.552 -21.235  0.00  0.00    -0.268 N 
ATOM     10  N   UNL     1      35.618 -21.059 -19.485  0.00  0.00    -0.266 N 
ATOM     11  C   UNL     1      34.848 -20.198 -20.282  0.00  0.00    +0.308 C 
ATOM     12  H   UNL     1      36.628 -19.790 -21.203  0.00  0.00    +0.156 HD
ATOM     13  H   UNL     1      36.581 -21.093 -19.691  0.00  0.00    +0.156 HD
BRANCH   9  15
ATOM     14 CL   UNL     1      34.152 -15.648 -25.404  0.00  0.00    -0.082 Cl
ATOM     15  C   UNL     1      35.313 -18.624 -22.212  0.00  0.00    +0.052 C 
ATOM     16  C   UNL     1      34.709 -16.370 -22.835  0.00  0.00    +0.083 C 
ATOM     17  C   UNL     1      35.069 -17.297 -21.857  0.00  0.00    +0.019 C 
ATOM     18  C   UNL     1      35.196 -19.024 -23.543  0.00  0.00    +0.016 C 
ATOM     19  C   UNL     1      34.594 -16.769 -24.166  0.00  0.00    +0.062 C 
ATOM     20  C   UNL     1      34.837 -18.096 -24.520  0.00  0.00    +0.013 C 
BRANCH  16  24
ATOM     21  F   UNL     1      35.078 -14.036 -23.207  0.00  0.00    -0.166 F 
ATOM     22  F   UNL     1      33.139 -14.612 -22.426  0.00  0.00    -0.166 F 
ATOM     23  F   UNL     1      34.895 -14.706 -21.148  0.00  0.00    -0.166 F 
ATOM     24  C   UNL     1      34.459 -14.957 -22.415  0.00  0.00    +0.419 C 
ENDBRANCH  16  24
ENDBRANCH   9  15
ENDBRANCH   2  10
BRANCH   3  25
ATOM     25  O   UNL     1      33.902 -24.301 -15.325  0.00  0.00    -0.453 OA
BRANCH  25  27
ATOM     26  N   UNL     1      36.667 -25.303 -12.388  0.00  0.00    -0.239 NA
ATOM     27  C   UNL     1      34.823 -24.636 -14.347  0.00  0.00    +0.149 C 
ATOM     28  C   UNL     1      35.978 -25.297 -14.706  0.00  0.00    +0.061 C 
ATOM     29  C   UNL     1      36.868 -25.608 -13.690  0.00  0.00    +0.137 C 
ATOM     30  C   UNL     1      34.564 -24.300 -13.035  0.00  0.00    +0.058 C 
ATOM     31  C   UNL     1      35.517 -24.656 -12.094  0.00  0.00    +0.102 C 
BRANCH  29  34
ATOM     32  O   UNL     1      38.089 -27.473 -14.415  0.00  0.00    -0.268 OA
ATOM     33  N   UNL     1      39.299 -25.592 -13.801  0.00  0.00    -0.298 N 
ATOM     34  C   UNL     1      38.108 -26.303 -13.990  0.00  0.00    +0.264 C 
ATOM     35  C   UNL     1      40.609 -26.137 -14.077  0.00  0.00    +0.111 C 
ATOM     36  H   UNL     1      39.242 -24.670 -13.461  0.00  0.00    +0.150 HD
ENDBRANCH  29  34
ENDBRANCH  25  27
ENDBRANCH   3  25
TORSDOF 6
ENDMDL
MODEL 2
REMARK VINA RESULT:     -12.7      5.499      9.476
REMARK  Name = 11167602
REMARK  6 active torsions:
REMARK  status: ('A' for Active; 'I' for Inactive)
REMARK    1  A    between atoms: C_2  and  N_10
REMARK    2  A    between atoms: C_3  and  O_25
REMARK    3  A    between atoms: N_9  and  C_15
REMARK    4  A    between atoms: C_16  and  C_24
REMARK    5  A    between atoms: O_25  and  C_27
REMARK    6  A    between atoms: C_29  and  C_34
REMARK                            x       y       z     vdW  Elec       q    Type
REMARK                         _______ _______ _______ _____ _____    ______ ____
ROOT
ATOM      1  F   UNL     1      34.224 -14.350 -20.280  0.00  0.00    -0.203 F 
ATOM      2  C   UNL     1      33.706 -14.127 -22.587  0.00  0.00    +0.079 C 
ATOM      3  C   UNL     1      34.859 -16.600 -23.063  0.00  0.00    +0.148 C 
ATOM      4  C   UNL     1      34.248 -14.838 -21.528  0.00  0.00    +0.157 C 
ATOM      5  C   UNL     1      33.727 -14.628 -23.878  0.00  0.00    +0.020 C 
ATOM      6  C   UNL     1      34.828 -16.083 -21.768  0.00  0.00    +0.068 C 
ATOM      7  C   UNL     1      34.309 -15.873 -24.118  0.00  0.00    +0.039 C 
ENDROOT
BRANCH   2  10
ATOM      8  O   UNL     1      34.228 -11.479 -23.866  0.00  0.00    -0.252 OA
ATOM      9  N   UNL     1      32.580 -10.619 -22.441  0.00  0.00    -0.268 N 
ATOM     10  N   UNL     1      33.115 -12.864 -22.347  0.00  0.00    -0.266 N 
ATOM     11  C   UNL     1      33.397 -11.643 -22.978  0.00  0.00    +0.308 C 
ATOM     12  H   UNL     1      31.957 -10.899 -21.731  0.00  0.00    +0.156 HD
ATOM     13  H   UNL     1      32.420 -12.840 -21.650  0.00  0.00    +0.156 HD
BRANCH   9  15
ATOM     14 CL   UNL     1      32.367  -4.891 -23.883  0.00  0.00    -0.082 Cl
ATOM     15  C   UNL     1      32.539  -9.268 -22.783  0.00  0.00    +0.052 C 
ATOM     16  C   UNL     1      33.638  -7.288 -23.625  0.00  0.00    +0.083 C 
ATOM     17  C   UNL     1      33.680  -8.640 -23.283  0.00  0.00    +0.019 C 
ATOM     18  C   UNL     1      31.357  -8.544 -22.625  0.00  0.00    +0.016 C 
ATOM     19  C   UNL     1      32.456  -6.565 -23.468  0.00  0.00    +0.062 C 
ATOM     20  C   UNL     1      31.316  -7.192 -22.968  0.00  0.00    +0.013 C 
BRANCH  16  24
ATOM     21  F   UNL     1      34.734  -5.330 -24.454  0.00  0.00    -0.166 F 
ATOM     22  F   UNL     1      35.938  -6.716 -23.299  0.00  0.00    -0.166 F 
ATOM     23  F   UNL     1      35.311  -7.241 -25.314  0.00  0.00    -0.166 F 
ATOM     24  C   UNL     1      34.881  -6.654 -24.160  0.00  0.00    +0.419 C 
ENDBRANCH  16  24
ENDBRANCH   9  15
ENDBRANCH   2  10
BRANCH   3  25
ATOM     25  O   UNL     1      35.426 -17.816 -23.297  0.00  0.00    -0.453 OA
BRANCH  25  27
ATOM     26  N   UNL     1      36.279 -20.217 -20.014  0.00  0.00    -0.239 NA
ATOM     27  C   UNL     1      35.709 -18.615 -22.203  0.00  0.00    +0.149 C 
ATOM     28  C   UNL     1      34.697 -19.350 -21.625  0.00  0.00    +0.061 C 
ATOM     29  C   UNL     1      35.032 -20.136 -20.533  0.00  0.00    +0.137 C 
ATOM     30  C   UNL     1      36.999 -18.659 -21.717  0.00  0.00    +0.058 C 
ATOM     31  C   UNL     1      37.231 -19.474 -20.621  0.00  0.00    +0.102 C 
BRANCH  29  34
ATOM     32  O   UNL     1      32.816 -20.801 -20.155  0.00  0.00    -0.268 OA
ATOM     33  N   UNL     1      34.466 -21.876 -18.929  0.00  0.00    -0.298 N 
ATOM     34  C   UNL     1      34.020 -20.940 -19.870  0.00  0.00    +0.264 C 
ATOM     35  C   UNL     1      33.585 -22.763 -18.204  0.00  0.00    +0.111 C 
ATOM     36  H   UNL     1      35.432 -21.932 -18.750  0.00  0.00    +0.150 HD
ENDBRANCH  29  34
ENDBRANCH  25  27
ENDBRANCH   3  25
TORSDOF 6
ENDMDL
MODEL 3
REMARK VINA RESULT:     -12.5      4.545     11.684
REMARK  Name = 11167602
REMARK  6 active torsions:
REMARK  status: ('A' for Active; 'I' for Inactive)
REMARK    1  A    between atoms: C_2  and  N_10
REMARK    2  A    between atoms: C_3  and  O_25
REMARK    3  A    between atoms: N_9  and  C_15
REMARK    4  A    between atoms: C_16  and  C_24
REMARK    5  A    between atoms: O_25  and  C_27
REMARK    6  A    between atoms: C_29  and  C_34
REMARK                            x       y       z     vdW  Elec       q    Type
REMARK                         _______ _______ _______ _____ _____    ______ ____
ROOT
ATOM      1  F   UNL     1      33.040 -21.293 -19.839  0.00  0.00    -0.203 F 
ATOM      2  C   UNL     1      35.378 -21.300 -19.425  0.00  0.00    +0.079 C 
ATOM      3  C   UNL     1      35.703 -19.330 -21.344  0.00  0.00    +0.148 C 
ATOM      4  C   UNL     1      34.267 -20.821 -20.099  0.00  0.00    +0.157 C 
ATOM      5  C   UNL     1      36.648 -20.813 -19.689  0.00  0.00    +0.020 C 
ATOM      6  C   UNL     1      34.430 -19.829 -21.065  0.00  0.00    +0.068 C 
ATOM      7  C   UNL     1      36.812 -19.822 -20.657  0.00  0.00    +0.039 C 
ENDROOT
BRANCH   2  10
ATOM      8  O   UNL     1      36.274 -21.375 -16.576  0.00  0.00    -0.252 OA
ATOM      9  N   UNL     1      35.289 -23.498 -16.466  0.00  0.00    -0.268 N 
ATOM     10  N   UNL     1      35.216 -22.305 -18.442  0.00  0.00    -0.266 N 
ATOM     11  C   UNL     1      35.659 -22.292 -17.110  0.00  0.00    +0.308 C 
ATOM     12  H   UNL     1      34.796 -24.145 -17.021  0.00  0.00    +0.156 HD
ATOM     13  H   UNL     1      34.732 -23.113 -18.729  0.00  0.00    +0.156 HD
BRANCH   9  15
ATOM     14 CL   UNL     1      36.277 -25.153 -10.878  0.00  0.00    -0.082 Cl
ATOM     15  C   UNL     1      35.532 -23.891 -15.149  0.00  0.00    +0.052 C 
ATOM     16  C   UNL     1      37.055 -24.676 -13.446  0.00  0.00    +0.083 C 
ATOM     17  C   UNL     1      36.813 -24.283 -14.763  0.00  0.00    +0.019 C 
ATOM     18  C   UNL     1      34.492 -23.892 -14.220  0.00  0.00    +0.016 C 
ATOM     19  C   UNL     1      36.015 -24.675 -12.517  0.00  0.00    +0.062 C 
ATOM     20  C   UNL     1      34.734 -24.284 -12.903  0.00  0.00    +0.013 C 
BRANCH  16  24
ATOM     21  F   UNL     1      38.965 -24.361 -12.041  0.00  0.00    -0.166 F 
ATOM     22  F   UNL     1      38.537 -26.389 -12.678  0.00  0.00    -0.166 F 
ATOM     23  F   UNL     1      39.323 -24.947 -14.104  0.00  0.00    -0.166 F 
ATOM     24  C   UNL     1      38.442 -25.086 -13.072  0.00  0.00    +0.419 C 
ENDBRANCH  16  24
ENDBRANCH   9  15
ENDBRANCH   2  10
BRANCH   3  25
ATOM     25  O   UNL     1      35.862 -18.361 -22.288  0.00  0.00    -0.453 OA
BRANCH  25  27
ATOM     26  N   UNL     1      33.974 -14.715 -21.649  0.00  0.00    -0.239 NA
ATOM     27  C   UNL     1      35.234 -17.146 -22.076  0.00  0.00    +0.149 C 
ATOM     28  C   UNL     1      34.944 -16.339 -23.155  0.00  0.00    +0.061 C 
ATOM     29  C   UNL     1      34.312 -15.134 -22.889  0.00  0.00    +0.137 C 
ATOM     30  C   UNL     1      34.912 -16.771 -20.789  0.00  0.00    +0.058 C 
ATOM     31  C   UNL     1      34.284 -15.546 -20.629  0.00  0.00    +0.102 C 
BRANCH  29  34
ATOM     32  O   UNL     1      34.175 -13.007 -23.864  0.00  0.00    -0.268 OA
ATOM     33  N   UNL     1      33.439 -14.801 -25.136  0.00  0.00    -0.298 N 
ATOM     34  C   UNL     1      33.973 -14.230 -23.974  0.00  0.00    +0.264 C 
ATOM     35  C   UNL     1      33.074 -14.038 -26.307  0.00  0.00    +0.111 C 
ATOM     36  H   UNL     1      33.304 -15.776 -25.155  0.00  0.00    +0.150 HD
ENDBRANCH  29  34
ENDBRANCH  25  27
ENDBRANCH   3  25
TORSDOF 6
ENDMDL
MODEL 4
REMARK VINA RESULT:     -12.4      2.857      4.416
REMARK  Name = 11167602
REMARK  6 active torsions:
REMARK  status: ('A' for Active; 'I' for Inactive)
REMARK    1  A    between atoms: C_2  and  N_10
REMARK    2  A    between atoms: C_3  and  O_25
REMARK    3  A    between atoms: N_9  and  C_15
REMARK    4  A    between atoms: C_16  and  C_24
REMARK    5  A    between atoms: O_25  and  C_27
REMARK    6  A    between atoms: C_29  and  C_34
REMARK                            x       y       z     vdW  Elec       q    Type
REMARK                         _______ _______ _______ _____ _____    ______ ____
ROOT
ATOM      1  F   UNL     1      37.199 -21.084 -17.701  0.00  0.00    -0.203 F 
ATOM      2  C   UNL     1      35.221 -21.518 -18.940  0.00  0.00    +0.079 C 
ATOM      3  C   UNL     1      34.428 -23.330 -17.001  0.00  0.00    +0.148 C 
ATOM      4  C   UNL     1      36.036 -21.735 -17.842  0.00  0.00    +0.157 C 
ATOM      5  C   UNL     1      34.016 -22.186 -19.089  0.00  0.00    +0.020 C 
ATOM      6  C   UNL     1      35.637 -22.647 -16.866  0.00  0.00    +0.068 C 
ATOM      7  C   UNL     1      33.618 -23.100 -18.113  0.00  0.00    +0.039 C 
ENDROOT
BRANCH   2  10
ATOM      8  O   UNL     1      33.596 -19.614 -20.571  0.00  0.00    -0.252 OA
ATOM      9  N   UNL     1      35.614 -18.957 -21.564  0.00  0.00    -0.268 N 
ATOM     10  N   UNL     1      35.622 -20.591 -19.932  0.00  0.00    -0.266 N 
ATOM     11  C   UNL     1      34.815 -19.715 -20.674  0.00  0.00    +0.308 C 
ATOM     12  H   UNL     1      36.580 -19.145 -21.536  0.00  0.00    +0.156 HD
ATOM     13  H   UNL     1      36.587 -20.558 -20.126  0.00  0.00    +0.156 HD
BRANCH   9  15
ATOM     14 CL   UNL     1      33.928 -14.839 -25.455  0.00  0.00    -0.082 Cl
ATOM     15  C   UNL     1      35.214 -17.979 -22.475  0.00  0.00    +0.052 C 
ATOM     16  C   UNL     1      34.527 -15.711 -22.943  0.00  0.00    +0.083 C 
ATOM     17  C   UNL     1      34.926 -16.688 -22.031  0.00  0.00    +0.019 C 
ATOM     18  C   UNL     1      35.103 -18.292 -23.830  0.00  0.00    +0.016 C 
ATOM     19  C   UNL     1      34.417 -16.023 -24.297  0.00  0.00    +0.062 C 
ATOM     20  C   UNL     1      34.704 -17.314 -24.741  0.00  0.00    +0.013 C 
BRANCH  16  24
ATOM     21  F   UNL     1      34.852 -13.348 -23.128  0.00  0.00    -0.166 F 
ATOM     22  F   UNL     1      32.903 -14.023 -22.457  0.00  0.00    -0.166 F 
ATOM     23  F   UNL     1      34.620 -14.175 -21.131  0.00  0.00    -0.166 F 
ATOM     24  C   UNL     1      34.230 -14.339 -22.428  0.00  0.00    +0.419 C 
ENDBRANCH  16  24
ENDBRANCH   9  15
ENDBRANCH   2  10
BRANCH   3  25
ATOM     25  O   UNL     1      34.039 -24.221 -16.048  0.00  0.00    -0.453 OA
BRANCH  25  27
ATOM     26  N   UNL     1      30.954 -23.101 -13.499  0.00  0.00    -0.239 NA
ATOM     27  C   UNL     1      33.011 -23.847 -15.200  0.00  0.00    +0.149 C 
ATOM     28  C   UNL     1      31.787 -23.504 -15.732  0.00  0.00    +0.061 C 
ATOM     29  C   UNL     1      30.791 -23.139 -14.841  0.00  0.00    +0.137 C 
ATOM     30  C   UNL     1      33.235 -23.827 -13.839  0.00  0.00    +0.058 C 
ATOM     31  C   UNL     1      32.175 -23.447 -13.032  0.00  0.00    +0.102 C 
BRANCH  29  34
ATOM     32  O   UNL     1      28.763 -21.973 -14.679  0.00  0.00    -0.268 OA
ATOM     33  N   UNL     1      29.066 -23.312 -16.548  0.00  0.00    -0.298 N 
ATOM     34  C   UNL     1      29.474 -22.764 -15.326  0.00  0.00    +0.264 C 
ATOM     35  C   UNL     1      27.797 -23.019 -17.173  0.00  0.00    +0.111 C 
ATOM     36  H   UNL     1      29.677 -23.932 -17.007  0.00  0.00    +0.150 HD
ENDBRANCH  29  34
ENDBRANCH  25  27
ENDBRANCH   3  25
TORSDOF 6
ENDMDL
MODEL 5
REMARK VINA RESULT:     -12.3      4.302      7.476
REMARK  Name = 11167602
REMARK  6 active torsions:
REMARK  status: ('A' for Active; 'I' for Inactive)
REMARK    1  A    between atoms: C_2  and  N_10
REMARK    2  A    between atoms: C_3  and  O_25
REMARK    3  A    between atoms: N_9  and  C_15
REMARK    4  A    between atoms: C_16  and  C_24
REMARK    5  A    between atoms: O_25  and  C_27
REMARK    6  A    between atoms: C_29  and  C_34
REMARK                            x       y       z     vdW  Elec       q    Type
REMARK                         _______ _______ _______ _____ _____    ______ ____
ROOT
ATOM      1  F   UNL     1      34.841 -17.221 -25.113  0.00  0.00    -0.203 F 
ATOM      2  C   UNL     1      34.793 -16.219 -22.961  0.00  0.00    +0.079 C 
ATOM      3  C   UNL     1      35.438 -18.664 -21.831  0.00  0.00    +0.148 C 
ATOM      4  C   UNL     1      34.973 -17.319 -23.783  0.00  0.00    +0.157 C 
ATOM      5  C   UNL     1      34.930 -16.315 -21.585  0.00  0.00    +0.020 C 
ATOM      6  C   UNL     1      35.297 -18.550 -23.214  0.00  0.00    +0.068 C 
ATOM      7  C   UNL     1      35.253 -17.547 -21.017  0.00  0.00    +0.039 C 
ENDROOT
BRANCH   2  10
ATOM      8  O   UNL     1      34.951 -13.467 -21.809  0.00  0.00    -0.252 OA
ATOM      9  N   UNL     1      34.128 -12.707 -23.866  0.00  0.00    -0.268 N 
ATOM     10  N   UNL     1      34.465 -14.968 -23.535  0.00  0.00    -0.266 N 
ATOM     11  C   UNL     1      34.557 -13.696 -22.948  0.00  0.00    +0.308 C 
ATOM     12  H   UNL     1      33.839 -13.039 -24.747  0.00  0.00    +0.156 HD
ATOM     13  H   UNL     1      34.130 -14.993 -24.461  0.00  0.00    +0.156 HD
BRANCH   9  15
ATOM     14 CL   UNL     1      33.882  -6.846 -23.133  0.00  0.00    -0.082 Cl
ATOM     15  C   UNL     1      34.061 -11.324 -23.689  0.00  0.00    +0.052 C 
ATOM     16  C   UNL     1      32.938  -9.381 -22.796  0.00  0.00    +0.083 C 
ATOM     17  C   UNL     1      33.004 -10.763 -22.973  0.00  0.00    +0.019 C 
ATOM     18  C   UNL     1      35.052 -10.504 -24.228  0.00  0.00    +0.016 C 
ATOM     19  C   UNL     1      33.929  -8.561 -23.333  0.00  0.00    +0.062 C 
ATOM     20  C   UNL     1      34.986  -9.122 -24.050  0.00  0.00    +0.013 C 
BRANCH  16  24
ATOM     21  F   UNL     1      31.001  -9.774 -21.448  0.00  0.00    -0.166 F 
ATOM     22  F   UNL     1      32.174  -8.008 -20.992  0.00  0.00    -0.166 F 
ATOM     23  F   UNL     1      30.957  -8.067 -22.793  0.00  0.00    -0.166 F 
ATOM     24  C   UNL     1      31.791  -8.820 -22.020  0.00  0.00    +0.419 C 
ENDBRANCH  16  24
ENDBRANCH   9  15
ENDBRANCH   2  10
BRANCH   3  25
ATOM     25  O   UNL     1      35.755 -19.866 -21.275  0.00  0.00    -0.453 OA
BRANCH  25  27
ATOM     26  N   UNL     1      32.960 -21.617 -18.747  0.00  0.00    -0.239 NA
ATOM     27  C   UNL     1      34.824 -20.450 -20.433  0.00  0.00    +0.149 C 
ATOM     28  C   UNL     1      35.258 -21.266 -19.411  0.00  0.00    +0.061 C 
ATOM     29  C   UNL     1      34.287 -21.826 -18.595  0.00  0.00    +0.137 C 
ATOM     30  C   UNL     1      33.483 -20.202 -20.636  0.00  0.00    +0.058 C 
ATOM     31  C   UNL     1      32.592 -20.810 -19.767  0.00  0.00    +0.102 C 
BRANCH  29  34
ATOM     32  O   UNL     1      33.909 -23.610 -17.122  0.00  0.00    -0.268 OA
ATOM     33  N   UNL     1      35.917 -22.470 -16.906  0.00  0.00    -0.298 N 
ATOM     34  C   UNL     1      34.667 -22.696 -17.496  0.00  0.00    +0.264 C 
ATOM     35  C   UNL     1      36.445 -23.264 -15.820  0.00  0.00    +0.111 C 
ATOM     36  H   UNL     1      36.465 -21.728 -17.249  0.00  0.00    +0.150 HD
ENDBRANCH  29  34
ENDBRANCH  25  27
ENDBRANCH   3  25
TORSDOF 6
ENDMDL
MODEL 6
REMARK VINA RESULT:     -12.0      4.569      7.830
REMARK  Name = 11167602
REMARK  6 active torsions:
REMARK  status: ('A' for Active; 'I' for Inactive)
REMARK    1  A    between atoms: C_2  and  N_10
REMARK    2  A    between atoms: C_3  and  O_25
REMARK    3  A    between atoms: N_9  and  C_15
REMARK    4  A    between atoms: C_16  and  C_24
REMARK    5  A    between atoms: O_25  and  C_27
REMARK    6  A    between atoms: C_29  and  C_34
REMARK                            x       y       z     vdW  Elec       q    Type
REMARK                         _______ _______ _______ _____ _____    ______ ____
ROOT
ATOM      1  F   UNL     1      34.858 -16.625 -25.161  0.00  0.00    -0.203 F 
ATOM      2  C   UNL     1      34.638 -15.866 -22.922  0.00  0.00    +0.079 C 
ATOM      3  C   UNL     1      35.465 -18.352 -22.021  0.00  0.00    +0.148 C 
ATOM      4  C   UNL     1      34.950 -16.852 -23.844  0.00  0.00    +0.157 C 
ATOM      5  C   UNL     1      34.733 -16.097 -21.559  0.00  0.00    +0.020 C 
ATOM      6  C   UNL     1      35.366 -18.104 -23.390  0.00  0.00    +0.068 C 
ATOM      7  C   UNL     1      35.148 -17.348 -21.105  0.00  0.00    +0.039 C 
ENDROOT
BRANCH   2  10
ATOM      8  O   UNL     1      34.492 -13.252 -21.486  0.00  0.00    -0.252 OA
ATOM      9  N   UNL     1      33.682 -12.351 -23.491  0.00  0.00    -0.268 N 
ATOM     10  N   UNL     1      34.217 -14.595 -23.379  0.00  0.00    -0.266 N 
ATOM     11  C   UNL     1      34.166 -13.391 -22.660  0.00  0.00    +0.308 C 
ATOM     12  H   UNL     1      33.460 -12.611 -24.414  0.00  0.00    +0.156 HD
ATOM     13  H   UNL     1      33.922 -14.551 -24.318  0.00  0.00    +0.156 HD
BRANCH   9  15
ATOM     14 CL   UNL     1      32.785  -6.669 -22.131  0.00  0.00    -0.082 Cl
ATOM     15  C   UNL     1      33.479 -11.007 -23.175  0.00  0.00    +0.052 C 
ATOM     16  C   UNL     1      34.122  -8.688 -23.382  0.00  0.00    +0.083 C 
ATOM     17  C   UNL     1      34.327 -10.031 -23.698  0.00  0.00    +0.019 C 
ATOM     18  C   UNL     1      32.427 -10.641 -22.335  0.00  0.00    +0.016 C 
ATOM     19  C   UNL     1      33.070  -8.322 -22.543  0.00  0.00    +0.062 C 
ATOM     20  C   UNL     1      32.223  -9.298 -22.020  0.00  0.00    +0.013 C 
BRANCH  16  24
ATOM     21  F   UNL     1      35.855  -8.172 -24.948  0.00  0.00    -0.166 F 
ATOM     22  F   UNL     1      34.409  -6.609 -24.530  0.00  0.00    -0.166 F 
ATOM     23  F   UNL     1      35.894  -7.142 -23.033  0.00  0.00    -0.166 F 
ATOM     24  C   UNL     1      35.051  -7.673 -23.965  0.00  0.00    +0.419 C 
ENDBRANCH  16  24
ENDBRANCH   9  15
ENDBRANCH   2  10
BRANCH   3  25
ATOM     25  O   UNL     1      35.872 -19.573 -21.578  0.00  0.00    -0.453 OA
BRANCH  25  27
ATOM     26  N   UNL     1      33.389 -21.583 -18.920  0.00  0.00    -0.239 NA
ATOM     27  C   UNL     1      35.045 -20.244 -20.692  0.00  0.00    +0.149 C 
ATOM     28  C   UNL     1      35.605 -20.947 -19.648  0.00  0.00    +0.061 C 
ATOM     29  C   UNL     1      34.735 -21.599 -18.788  0.00  0.00    +0.137 C 
ATOM     30  C   UNL     1      33.680 -20.192 -20.876  0.00  0.00    +0.058 C 
ATOM     31  C   UNL     1      32.896 -20.879 -19.963  0.00  0.00    +0.102 C 
BRANCH  29  34
ATOM     32  O   UNL     1      36.452 -22.291 -17.350  0.00  0.00    -0.268 OA
ATOM     33  N   UNL     1      34.333 -23.143 -16.951  0.00  0.00    -0.298 N 
ATOM     34  C   UNL     1      35.249 -22.361 -17.664  0.00  0.00    +0.264 C 
ATOM     35  C   UNL     1      34.685 -23.937 -15.797  0.00  0.00    +0.111 C 
ATOM     36  H   UNL     1      33.396 -23.154 -17.254  0.00  0.00    +0.150 HD
ENDBRANCH  29  34
ENDBRANCH  25  27
ENDBRANCH   3  25
TORSDOF 6
ENDMDL
MODEL 7
REMARK VINA RESULT:     -12.0      4.516     10.998
REMARK  Name = 11167602
REMARK  6 active torsions:
REMARK  status: ('A' for Active; 'I' for Inactive)
REMARK    1  A    between atoms: C_2  and  N_10
REMARK    2  A    between atoms: C_3  and  O_25
REMARK    3  A    between atoms: N_9  and  C_15
REMARK    4  A    between atoms: C_16  and  C_24
REMARK    5  A    between atoms: O_25  and  C_27
REMARK    6  A    between atoms: C_29  and  C_34
REMARK                            x       y       z     vdW  Elec       q    Type
REMARK                         _______ _______ _______ _____ _____    ______ ____
ROOT
ATOM      1  F   UNL     1      37.751 -19.264 -20.010  0.00  0.00    -0.203 F 
ATOM      2  C   UNL     1      35.658 -20.193 -20.638  0.00  0.00    +0.079 C 
ATOM      3  C   UNL     1      35.618 -18.545 -22.864  0.00  0.00    +0.148 C 
ATOM      4  C   UNL     1      36.713 -19.322 -20.856  0.00  0.00    +0.157 C 
ATOM      5  C   UNL     1      34.583 -20.258 -21.511  0.00  0.00    +0.020 C 
ATOM      6  C   UNL     1      36.693 -18.492 -21.976  0.00  0.00    +0.068 C 
ATOM      7  C   UNL     1      34.563 -19.427 -22.631  0.00  0.00    +0.039 C 
ENDROOT
BRANCH   2  10
ATOM      8  O   UNL     1      33.412 -21.186 -18.938  0.00  0.00    -0.252 OA
ATOM      9  N   UNL     1      35.040 -22.309 -17.683  0.00  0.00    -0.268 N 
ATOM     10  N   UNL     1      35.676 -21.037 -19.502  0.00  0.00    -0.266 N 
ATOM     11  C   UNL     1      34.586 -21.476 -18.734  0.00  0.00    +0.308 C 
ATOM     12  H   UNL     1      36.013 -22.455 -17.643  0.00  0.00    +0.156 HD
ATOM     13  H   UNL     1      36.562 -21.355 -19.216  0.00  0.00    +0.156 HD
BRANCH   9  15
ATOM     14 CL   UNL     1      31.903 -25.048 -13.487  0.00  0.00    -0.082 Cl
ATOM     15  C   UNL     1      34.291 -22.952 -16.696  0.00  0.00    +0.052 C 
ATOM     16  C   UNL     1      32.154 -23.481 -15.703  0.00  0.00    +0.083 C 
ATOM     17  C   UNL     1      32.901 -22.838 -16.690  0.00  0.00    +0.019 C 
ATOM     18  C   UNL     1      34.934 -23.707 -15.715  0.00  0.00    +0.016 C 
ATOM     19  C   UNL     1      32.796 -24.237 -14.723  0.00  0.00    +0.062 C 
ATOM     20  C   UNL     1      34.186 -24.350 -14.729  0.00  0.00    +0.013 C 
BRANCH  16  24
ATOM     21  F   UNL     1      30.149 -22.789 -14.597  0.00  0.00    -0.166 F 
ATOM     22  F   UNL     1      30.217 -22.546 -16.751  0.00  0.00    -0.166 F 
ATOM     23  F   UNL     1      30.030 -24.534 -15.888  0.00  0.00    -0.166 F 
ATOM     24  C   UNL     1      30.666 -23.337 -15.734  0.00  0.00    +0.419 C 
ENDBRANCH  16  24
ENDBRANCH   9  15
ENDBRANCH   2  10
BRANCH   3  25
ATOM     25  O   UNL     1      35.598 -17.735 -23.958  0.00  0.00    -0.453 OA
BRANCH  25  27
ATOM     26  N   UNL     1      33.356 -14.242 -23.738  0.00  0.00    -0.239 NA
ATOM     27  C   UNL     1      34.850 -16.572 -23.884  0.00  0.00    +0.149 C 
ATOM     28  C   UNL     1      34.643 -15.981 -22.657  0.00  0.00    +0.061 C 
ATOM     29  C   UNL     1      33.889 -14.817 -22.636  0.00  0.00    +0.137 C 
ATOM     30  C   UNL     1      34.331 -16.031 -25.041  0.00  0.00    +0.058 C 
ATOM     31  C   UNL     1      33.591 -14.866 -24.914  0.00  0.00    +0.102 C 
BRANCH  29  34
ATOM     32  O   UNL     1      34.437 -14.214 -20.438  0.00  0.00    -0.268 OA
ATOM     33  N   UNL     1      32.450 -13.382 -21.298  0.00  0.00    -0.298 N 
ATOM     34  C   UNL     1      33.627 -14.136 -21.381  0.00  0.00    +0.264 C 
ATOM     35  C   UNL     1      32.062 -12.630 -20.127  0.00  0.00    +0.111 C 
ATOM     36  H   UNL     1      31.854 -13.364 -22.081  0.00  0.00    +0.150 HD
ENDBRANCH  29  34
ENDBRANCH  25  27
ENDBRANCH   3  25
TORSDOF 6
ENDMDL
MODEL 8
REMARK VINA RESULT:     -11.9      3.682      5.469
REMARK  Name = 11167602
REMARK  6 active torsions:
REMARK  status: ('A' for Active; 'I' for Inactive)
REMARK    1  A    between atoms: C_2  and  N_10
REMARK    2  A    between atoms: C_3  and  O_25
REMARK    3  A    between atoms: N_9  and  C_15
REMARK    4  A    between atoms: C_16  and  C_24
REMARK    5  A    between atoms: O_25  and  C_27
REMARK    6  A    between atoms: C_29  and  C_34
REMARK                            x       y       z     vdW  Elec       q    Type
REMARK                         _______ _______ _______ _____ _____    ______ ____
ROOT
ATOM      1  F   UNL     1      37.507 -17.925 -21.761  0.00  0.00    -0.203 F 
ATOM      2  C   UNL     1      35.266 -18.635 -21.425  0.00  0.00    +0.079 C 
ATOM      3  C   UNL     1      36.194 -20.814 -19.990  0.00  0.00    +0.148 C 
ATOM      4  C   UNL     1      36.630 -18.800 -21.250  0.00  0.00    +0.157 C 
ATOM      5  C   UNL     1      34.356 -19.536 -20.897  0.00  0.00    +0.020 C 
ATOM      6  C   UNL     1      37.097 -19.897 -20.527  0.00  0.00    +0.068 C 
ATOM      7  C   UNL     1      34.823 -20.634 -20.175  0.00  0.00    +0.039 C 
ENDROOT
BRANCH   2  10
ATOM      8  O   UNL     1      34.680 -15.846 -20.530  0.00  0.00    -0.252 OA
ATOM      9  N   UNL     1      34.060 -15.410 -22.746  0.00  0.00    -0.268 N 
ATOM     10  N   UNL     1      34.789 -17.521 -22.157  0.00  0.00    -0.266 N 
ATOM     11  C   UNL     1      34.528 -16.225 -21.686  0.00  0.00    +0.308 C 
ATOM     12  H   UNL     1      33.989 -15.851 -23.624  0.00  0.00    +0.156 HD
ATOM     13  H   UNL     1      34.618 -17.676 -23.114  0.00  0.00    +0.156 HD
BRANCH   9  15
ATOM     14 CL   UNL     1      32.509  -9.708 -22.636  0.00  0.00    -0.082 Cl
ATOM     15  C   UNL     1      33.689 -14.066 -22.713  0.00  0.00    +0.052 C 
ATOM     16  C   UNL     1      32.528 -12.242 -21.635  0.00  0.00    +0.083 C 
ATOM     17  C   UNL     1      32.899 -13.587 -21.668  0.00  0.00    +0.019 C 
ATOM     18  C   UNL     1      34.107 -13.202 -23.724  0.00  0.00    +0.016 C 
ATOM     19  C   UNL     1      32.947 -11.378 -22.645  0.00  0.00    +0.062 C 
ATOM     20  C   UNL     1      33.736 -11.857 -23.690  0.00  0.00    +0.013 C 
BRANCH  16  24
ATOM     21  F   UNL     1      30.384 -11.538 -20.841  0.00  0.00    -0.166 F 
ATOM     22  F   UNL     1      31.629 -12.648 -19.455  0.00  0.00    -0.166 F 
ATOM     23  F   UNL     1      32.136 -10.595 -19.966  0.00  0.00    -0.166 F 
ATOM     24  C   UNL     1      31.683 -11.768 -20.496  0.00  0.00    +0.419 C 
ENDBRANCH  16  24
ENDBRANCH   9  15
ENDBRANCH   2  10
BRANCH   3  25
ATOM     25  O   UNL     1      36.650 -21.886 -19.284  0.00  0.00    -0.453 OA
BRANCH  25  27
ATOM     26  N   UNL     1      34.882 -22.674 -15.607  0.00  0.00    -0.239 NA
ATOM     27  C   UNL     1      36.060 -22.148 -18.059  0.00  0.00    +0.149 C 
ATOM     28  C   UNL     1      34.718 -22.456 -18.009  0.00  0.00    +0.061 C 
ATOM     29  C   UNL     1      34.176 -22.712 -16.759  0.00  0.00    +0.137 C 
ATOM     30  C   UNL     1      36.830 -22.095 -16.917  0.00  0.00    +0.058 C 
ATOM     31  C   UNL     1      36.194 -22.365 -15.716  0.00  0.00    +0.102 C 
BRANCH  29  34
ATOM     32  O   UNL     1      31.960 -22.748 -17.524  0.00  0.00    -0.268 OA
ATOM     33  N   UNL     1      32.382 -23.723 -15.463  0.00  0.00    -0.298 N 
ATOM     34  C   UNL     1      32.768 -23.045 -16.625  0.00  0.00    +0.264 C 
ATOM     35  C   UNL     1      31.025 -24.143 -15.195  0.00  0.00    +0.111 C 
ATOM     36  H   UNL     1      33.072 -23.925 -14.791  0.00  0.00    +0.150 HD
ENDBRANCH  29  34
ENDBRANCH  25  27
ENDBRANCH   3  25
TORSDOF 6
ENDMDL
MODEL 9
REMARK VINA RESULT:     -11.8      5.710      9.887
REMARK  Name = 11167602
REMARK  6 active torsions:
REMARK  status: ('A' for Active; 'I' for Inactive)
REMARK    1  A    between atoms: C_2  and  N_10
REMARK    2  A    between atoms: C_3  and  O_25
REMARK    3  A    between atoms: N_9  and  C_15
REMARK    4  A    between atoms: C_16  and  C_24
REMARK    5  A    between atoms: O_25  and  C_27
REMARK    6  A    between atoms: C_29  and  C_34
REMARK                            x       y       z     vdW  Elec       q    Type
REMARK                         _______ _______ _______ _____ _____    ______ ____
ROOT
ATOM      1  F   UNL     1      33.617 -14.114 -26.097  0.00  0.00    -0.203 F 
ATOM      2  C   UNL     1      34.351 -13.983 -23.843  0.00  0.00    +0.079 C 
ATOM      3  C   UNL     1      34.687 -16.732 -23.815  0.00  0.00    +0.148 C 
ATOM      4  C   UNL     1      34.058 -14.713 -24.983  0.00  0.00    +0.157 C 
ATOM      5  C   UNL     1      34.809 -14.598 -22.689  0.00  0.00    +0.020 C 
ATOM      6  C   UNL     1      34.228 -16.097 -24.969  0.00  0.00    +0.068 C 
ATOM      7  C   UNL     1      34.977 -15.983 -22.675  0.00  0.00    +0.039 C 
ENDROOT
BRANCH   2  10
ATOM      8  O   UNL     1      32.696 -12.225 -22.084  0.00  0.00    -0.252 OA
ATOM      9  N   UNL     1      33.500 -10.429 -23.354  0.00  0.00    -0.268 N 
ATOM     10  N   UNL     1      34.181 -12.578 -23.854  0.00  0.00    -0.266 N 
ATOM     11  C   UNL     1      33.387 -11.796 -23.002  0.00  0.00    +0.308 C 
ATOM     12  H   UNL     1      34.094 -10.232 -24.114  0.00  0.00    +0.156 HD
ATOM     13  H   UNL     1      34.683 -12.089 -24.547  0.00  0.00    +0.156 HD
BRANCH   9  15
ATOM     14 CL   UNL     1      30.869  -5.774 -20.834  0.00  0.00    -0.082 Cl
ATOM     15  C   UNL     1      32.881  -9.325 -22.767  0.00  0.00    +0.052 C 
ATOM     16  C   UNL     1      32.161  -7.022 -22.884  0.00  0.00    +0.083 C 
ATOM     17  C   UNL     1      32.780  -8.125 -23.472  0.00  0.00    +0.019 C 
ATOM     18  C   UNL     1      32.365  -9.420 -21.475  0.00  0.00    +0.016 C 
ATOM     19  C   UNL     1      31.643  -7.118 -21.593  0.00  0.00    +0.062 C 
ATOM     20  C   UNL     1      31.746  -8.317 -20.888  0.00  0.00    +0.013 C 
BRANCH  16  24
ATOM     21  F   UNL     1      32.546  -5.873 -24.947  0.00  0.00    -0.166 F 
ATOM     22  F   UNL     1      30.794  -5.289 -23.808  0.00  0.00    -0.166 F 
ATOM     23  F   UNL     1      32.777  -4.737 -23.108  0.00  0.00    -0.166 F 
ATOM     24  C   UNL     1      32.069  -5.756 -23.674  0.00  0.00    +0.419 C 
ENDBRANCH  16  24
ENDBRANCH   9  15
ENDBRANCH   2  10
BRANCH   3  25
ATOM     25  O   UNL     1      34.852 -18.084 -23.801  0.00  0.00    -0.453 OA
BRANCH  25  27
ATOM     26  N   UNL     1      36.125 -19.838 -20.255  0.00  0.00    -0.239 NA
ATOM     27  C   UNL     1      35.275 -18.668 -22.619  0.00  0.00    +0.149 C 
ATOM     28  C   UNL     1      34.390 -19.430 -21.889  0.00  0.00    +0.061 C 
ATOM     29  C   UNL     1      34.862 -19.995 -20.714  0.00  0.00    +0.137 C 
ATOM     30  C   UNL     1      36.574 -18.473 -22.199  0.00  0.00    +0.058 C 
ATOM     31  C   UNL     1      36.949 -19.079 -21.011  0.00  0.00    +0.102 C 
BRANCH  29  34
ATOM     32  O   UNL     1      32.758 -20.627 -19.898  0.00  0.00    -0.268 OA
ATOM     33  N   UNL     1      34.592 -21.814 -19.121  0.00  0.00    -0.298 N 
ATOM     34  C   UNL     1      33.989 -20.812 -19.891  0.00  0.00    +0.264 C 
ATOM     35  C   UNL     1      33.857 -22.722 -18.270  0.00  0.00    +0.111 C 
ATOM     36  H   UNL     1      35.572 -21.905 -19.161  0.00  0.00    +0.150 HD
ENDBRANCH  29  34
ENDBRANCH  25  27
ENDBRANCH   3  25
TORSDOF 6
ENDMDL
