MODEL 1
REMARK VINA RESULT:     -12.2      0.000      0.000
REMARK  Name = 24996872
REMARK  6 active torsions:
REMARK  status: ('A' for Active; 'I' for Inactive)
REMARK    1  A    between atoms: O_1  and  C_3
REMARK    2  A    between atoms: O_1  and  C_18
REMARK    3  A    between atoms: C_7  and  C_8
REMARK    4  A    between atoms: C_11  and  S_14
REMARK    5  A    between atoms: C_18  and  C_23
REMARK    6  A    between atoms: C_29  and  C_30
REMARK                            x       y       z     vdW  Elec       q    Type
REMARK                         _______ _______ _______ _____ _____    ______ ____
ROOT
ATOM      1  O   UNL     1      35.403 -18.521 -22.878  0.00  0.00    -0.474 OA
ENDROOT
BRANCH   1   3
ATOM      2  N   UNL     1      34.471 -15.183 -21.697  0.00  0.00    -0.241 NA
ATOM      3  C   UNL     1      34.971 -17.218 -22.904  0.00  0.00    +0.158 C 
ATOM      4  C   UNL     1      34.602 -16.609 -24.098  0.00  0.00    +0.040 C 
ATOM      5  C   UNL     1      34.888 -16.469 -21.741  0.00  0.00    +0.136 C 
ATOM      6  C   UNL     1      34.167 -15.288 -24.094  0.00  0.00    +0.022 C 
ATOM      7  C   UNL     1      34.121 -14.625 -22.878  0.00  0.00    +0.082 C 
BRANCH   7   8
ATOM      8  C   UNL     1      33.681 -13.253 -22.796  0.00  0.00    +0.018 C 
ATOM      9  C   UNL     1      34.210 -12.298 -23.665  0.00  0.00    +0.003 C 
ATOM     10  C   UNL     1      32.725 -12.882 -21.851  0.00  0.00    +0.003 C 
ATOM     11  C   UNL     1      32.828 -10.601 -22.640  0.00  0.00    +0.106 C 
ATOM     12  C   UNL     1      33.783 -10.972 -23.585  0.00  0.00    +0.018 C 
ATOM     13  C   UNL     1      32.299 -11.556 -21.771  0.00  0.00    +0.018 C 
BRANCH  11  14
ATOM     14  S   UNL     1      32.294  -8.942 -22.541  0.00  0.00    +0.010 S 
ATOM     15  O   UNL     1      33.270  -8.115 -23.238  0.00  0.00    -0.169 OA
ATOM     16  O   UNL     1      30.889  -8.874 -22.918  0.00  0.00    -0.169 OA
ATOM     17  C   UNL     1      32.385  -8.550 -20.808  0.00  0.00    +0.182 C 
ENDBRANCH  11  14
ENDBRANCH   7   8
ENDBRANCH   1   3
BRANCH   1  18
ATOM     18  C   UNL     1      36.122 -18.937 -21.732  0.00  0.00    +0.205 C 
BRANCH  18  23
ATOM     19  O   UNL     1      34.384 -22.855 -16.972  0.00  0.00    -0.296 OA
ATOM     20  N   UNL     1      34.190 -21.563 -18.916  0.00  0.00    -0.251 N 
ATOM     21  N   UNL     1      32.290 -22.508 -17.686  0.00  0.00    -0.300 NA
ATOM     22  N   UNL     1      33.547 -23.516 -16.063  0.00  0.00    -0.010 NA
ATOM     23  C   UNL     1      35.410 -20.144 -21.124  0.00  0.00    +0.047 C 
ATOM     24  C   UNL     1      34.038 -19.744 -20.571  0.00  0.00    +0.025 C 
ATOM     25  C   UNL     1      36.250 -20.768 -20.006  0.00  0.00    +0.025 C 
ATOM     26  C   UNL     1      33.328 -20.934 -19.926  0.00  0.00    +0.096 C 
ATOM     27  C   UNL     1      35.533 -21.953 -19.357  0.00  0.00    +0.096 C 
ATOM     28  C   UNL     1      33.563 -22.288 -17.894  0.00  0.00    +0.379 C 
ATOM     29  C   UNL     1      32.329 -23.264 -16.552  0.00  0.00    +0.104 C 
BRANCH  29  30
ATOM     30  C   UNL     1      31.114 -23.771 -15.907  0.00  0.00    +0.101 C 
ATOM     31  C   UNL     1      31.273 -23.985 -14.380  0.00  0.00    +0.017 C 
ATOM     32  C   UNL     1      29.869 -22.883 -16.160  0.00  0.00    +0.017 C 
ENDBRANCH  29  30
ENDBRANCH  18  23
ENDBRANCH   1  18
TORSDOF 6
ENDMDL
MODEL 2
REMARK VINA RESULT:     -11.8      4.169     11.311
REMARK  Name = 24996872
REMARK  6 active torsions:
REMARK  status: ('A' for Active; 'I' for Inactive)
REMARK    1  A    between atoms: O_1  and  C_3
REMARK    2  A    between atoms: O_1  and  C_18
REMARK    3  A    between atoms: C_7  and  C_8
REMARK    4  A    between atoms: C_11  and  S_14
REMARK    5  A    between atoms: C_18  and  C_23
REMARK    6  A    between atoms: C_29  and  C_30
REMARK                            x       y       z     vdW  Elec       q    Type
REMARK                         _______ _______ _______ _____ _____    ______ ____
ROOT
ATOM      1  O   UNL     1      34.556 -19.168 -22.210  0.00  0.00    -0.474 OA
ENDROOT
BRANCH   1   3
ATOM      2  N   UNL     1      36.373 -20.726 -19.441  0.00  0.00    -0.241 NA
ATOM      3  C   UNL     1      34.793 -19.904 -21.076  0.00  0.00    +0.158 C 
ATOM      4  C   UNL     1      33.759 -20.559 -20.418  0.00  0.00    +0.040 C 
ATOM      5  C   UNL     1      36.071 -20.018 -20.552  0.00  0.00    +0.136 C 
ATOM      6  C   UNL     1      34.030 -21.299 -19.271  0.00  0.00    +0.022 C 
ATOM      7  C   UNL     1      35.342 -21.349 -18.828  0.00  0.00    +0.082 C 
BRANCH   7   8
ATOM      8  C   UNL     1      35.697 -22.097 -17.645  0.00  0.00    +0.018 C 
ATOM      9  C   UNL     1      37.006 -22.060 -17.163  0.00  0.00    +0.003 C 
ATOM     10  C   UNL     1      34.732 -22.855 -16.983  0.00  0.00    +0.003 C 
ATOM     11  C   UNL     1      36.384 -23.541 -15.358  0.00  0.00    +0.106 C 
ATOM     12  C   UNL     1      37.349 -22.782 -16.020  0.00  0.00    +0.018 C 
ATOM     13  C   UNL     1      35.075 -23.578 -15.840  0.00  0.00    +0.018 C 
BRANCH  11  14
ATOM     14  S   UNL     1      36.813 -24.444 -13.928  0.00  0.00    +0.010 S 
ATOM     15  O   UNL     1      38.102 -23.955 -13.458  0.00  0.00    -0.169 OA
ATOM     16  O   UNL     1      35.673 -24.463 -13.021  0.00  0.00    -0.169 OA
ATOM     17  C   UNL     1      37.040 -26.110 -14.509  0.00  0.00    +0.182 C 
ENDBRANCH  11  14
ENDBRANCH   7   8
ENDBRANCH   1   3
BRANCH   1  18
ATOM     18  C   UNL     1      35.635 -18.408 -22.722  0.00  0.00    +0.205 C 
BRANCH  18  23
ATOM     19  O   UNL     1      32.383 -12.890 -22.726  0.00  0.00    -0.296 OA
ATOM     20  N   UNL     1      33.695 -14.649 -21.907  0.00  0.00    -0.251 N 
ATOM     21  N   UNL     1      32.629 -12.946 -20.500  0.00  0.00    -0.300 NA
ATOM     22  N   UNL     1      31.661 -11.798 -22.226  0.00  0.00    -0.010 NA
ATOM     23  C   UNL     1      35.403 -16.940 -22.372  0.00  0.00    +0.047 C 
ATOM     24  C   UNL     1      34.558 -16.810 -21.099  0.00  0.00    +0.025 C 
ATOM     25  C   UNL     1      34.707 -16.207 -23.523  0.00  0.00    +0.025 C 
ATOM     26  C   UNL     1      34.285 -15.346 -20.757  0.00  0.00    +0.096 C 
ATOM     27  C   UNL     1      34.428 -14.745 -23.174  0.00  0.00    +0.096 C 
ATOM     28  C   UNL     1      32.920 -13.512 -21.645  0.00  0.00    +0.379 C 
ATOM     29  C   UNL     1      31.854 -11.900 -20.908  0.00  0.00    +0.104 C 
BRANCH  29  30
ATOM     30  C   UNL     1      31.269 -10.945 -19.961  0.00  0.00    +0.101 C 
ATOM     31  C   UNL     1      31.395 -11.392 -18.482  0.00  0.00    +0.017 C 
ATOM     32  C   UNL     1      31.842  -9.512 -20.100  0.00  0.00    +0.017 C 
ENDBRANCH  29  30
ENDBRANCH  18  23
ENDBRANCH   1  18
TORSDOF 6
ENDMDL
MODEL 3
REMARK VINA RESULT:     -11.6      3.616     11.717
REMARK  Name = 24996872
REMARK  6 active torsions:
REMARK  status: ('A' for Active; 'I' for Inactive)
REMARK    1  A    between atoms: O_1  and  C_3
REMARK    2  A    between atoms: O_1  and  C_18
REMARK    3  A    between atoms: C_7  and  C_8
REMARK    4  A    between atoms: C_11  and  S_14
REMARK    5  A    between atoms: C_18  and  C_23
REMARK    6  A    between atoms: C_29  and  C_30
REMARK                            x       y       z     vdW  Elec       q    Type
REMARK                         _______ _______ _______ _____ _____    ______ ____
ROOT
ATOM      1  O   UNL     1      35.156 -15.786 -24.163  0.00  0.00    -0.474 OA
ENDROOT
BRANCH   1   3
ATOM      2  N   UNL     1      34.735 -17.681 -21.058  0.00  0.00    -0.241 NA
ATOM      3  C   UNL     1      34.983 -16.854 -23.317  0.00  0.00    +0.158 C 
ATOM      4  C   UNL     1      34.881 -18.150 -23.810  0.00  0.00    +0.040 C 
ATOM      5  C   UNL     1      34.905 -16.674 -21.945  0.00  0.00    +0.136 C 
ATOM      6  C   UNL     1      34.707 -19.212 -22.930  0.00  0.00    +0.022 C 
ATOM      7  C   UNL     1      34.640 -18.926 -21.575  0.00  0.00    +0.082 C 
BRANCH   7   8
ATOM      8  C   UNL     1      34.460 -19.978 -20.603  0.00  0.00    +0.018 C 
ATOM      9  C   UNL     1      33.180 -20.299 -20.151  0.00  0.00    +0.003 C 
ATOM     10  C   UNL     1      35.566 -20.675 -20.116  0.00  0.00    +0.003 C 
ATOM     11  C   UNL     1      34.113 -22.011 -18.724  0.00  0.00    +0.106 C 
ATOM     12  C   UNL     1      33.007 -21.315 -19.211  0.00  0.00    +0.018 C 
ATOM     13  C   UNL     1      35.393 -21.691 -19.177  0.00  0.00    +0.018 C 
BRANCH  11  14
ATOM     14  S   UNL     1      33.896 -23.283 -17.549  0.00  0.00    +0.010 S 
ATOM     15  O   UNL     1      33.707 -24.534 -18.271  0.00  0.00    -0.169 OA
ATOM     16  O   UNL     1      34.945 -23.182 -16.543  0.00  0.00    -0.169 OA
ATOM     17  C   UNL     1      32.363 -22.882 -16.740  0.00  0.00    +0.182 C 
ENDBRANCH  11  14
ENDBRANCH   7   8
ENDBRANCH   1   3
BRANCH   1  18
ATOM     18  C   UNL     1      34.008 -15.017 -24.471  0.00  0.00    +0.205 C 
BRANCH  18  23
ATOM     19  O   UNL     1      32.926  -8.746 -23.749  0.00  0.00    -0.296 OA
ATOM     20  N   UNL     1      33.187 -10.997 -23.159  0.00  0.00    -0.251 N 
ATOM     21  N   UNL     1      32.245  -9.280 -21.683  0.00  0.00    -0.300 NA
ATOM     22  N   UNL     1      32.446  -7.560 -23.177  0.00  0.00    -0.010 NA
ATOM     23  C   UNL     1      34.129 -13.665 -23.772  0.00  0.00    +0.047 C 
ATOM     24  C   UNL     1      32.939 -13.427 -22.836  0.00  0.00    +0.025 C 
ATOM     25  C   UNL     1      34.210 -12.527 -24.795  0.00  0.00    +0.025 C 
ATOM     26  C   UNL     1      33.026 -12.060 -22.158  0.00  0.00    +0.096 C 
ATOM     27  C   UNL     1      34.289 -11.161 -24.113  0.00  0.00    +0.096 C 
ATOM     28  C   UNL     1      32.770  -9.708 -22.803  0.00  0.00    +0.379 C 
ATOM     29  C   UNL     1      32.063  -7.957 -21.960  0.00  0.00    +0.104 C 
BRANCH  29  30
ATOM     30  C   UNL     1      31.484  -7.026 -20.987  0.00  0.00    +0.101 C 
ATOM     31  C   UNL     1      32.514  -6.495 -19.957  0.00  0.00    +0.017 C 
ATOM     32  C   UNL     1      30.765  -5.819 -21.642  0.00  0.00    +0.017 C 
ENDBRANCH  29  30
ENDBRANCH  18  23
ENDBRANCH   1  18
TORSDOF 6
ENDMDL
MODEL 4
REMARK VINA RESULT:     -11.4      4.755     12.338
REMARK  Name = 24996872
REMARK  6 active torsions:
REMARK  status: ('A' for Active; 'I' for Inactive)
REMARK    1  A    between atoms: O_1  and  C_3
REMARK    2  A    between atoms: O_1  and  C_18
REMARK    3  A    between atoms: C_7  and  C_8
REMARK    4  A    between atoms: C_11  and  S_14
REMARK    5  A    between atoms: C_18  and  C_23
REMARK    6  A    between atoms: C_29  and  C_30
REMARK                            x       y       z     vdW  Elec       q    Type
REMARK                         _______ _______ _______ _____ _____    ______ ____
ROOT
ATOM      1  O   UNL     1      36.010 -20.458 -20.760  0.00  0.00    -0.474 OA
ENDROOT
BRANCH   1   3
ATOM      2  N   UNL     1      37.113 -21.491 -17.425  0.00  0.00    -0.241 NA
ATOM      3  C   UNL     1      36.000 -21.069 -19.530  0.00  0.00    +0.158 C 
ATOM      4  C   UNL     1      34.928 -21.858 -19.130  0.00  0.00    +0.040 C 
ATOM      5  C   UNL     1      37.059 -20.918 -18.648  0.00  0.00    +0.136 C 
ATOM      6  C   UNL     1      34.947 -22.464 -17.878  0.00  0.00    +0.022 C 
ATOM      7  C   UNL     1      36.052 -22.250 -17.071  0.00  0.00    +0.082 C 
BRANCH   7   8
ATOM      8  C   UNL     1      36.140 -22.847 -15.759  0.00  0.00    +0.018 C 
ATOM      9  C   UNL     1      37.387 -23.040 -15.163  0.00  0.00    +0.003 C 
ATOM     10  C   UNL     1      34.980 -23.230 -15.088  0.00  0.00    +0.003 C 
ATOM     11  C   UNL     1      36.310 -24.000 -13.224  0.00  0.00    +0.106 C 
ATOM     12  C   UNL     1      37.471 -23.617 -13.896  0.00  0.00    +0.018 C 
ATOM     13  C   UNL     1      35.064 -23.807 -13.821  0.00  0.00    +0.018 C 
BRANCH  11  14
ATOM     14  S   UNL     1      36.416 -24.722 -11.639  0.00  0.00    +0.010 S 
ATOM     15  O   UNL     1      37.278 -23.880 -10.819  0.00  0.00    -0.169 OA
ATOM     16  O   UNL     1      35.073 -25.046 -11.176  0.00  0.00    -0.169 OA
ATOM     17  C   UNL     1      37.258 -26.265 -11.910  0.00  0.00    +0.182 C 
ENDBRANCH  11  14
ENDBRANCH   7   8
ENDBRANCH   1   3
BRANCH   1  18
ATOM     18  C   UNL     1      34.816 -19.817 -21.169  0.00  0.00    +0.205 C 
BRANCH  18  23
ATOM     19  O   UNL     1      33.864 -14.849 -25.098  0.00  0.00    -0.296 OA
ATOM     20  N   UNL     1      34.501 -16.015 -23.169  0.00  0.00    -0.251 N 
ATOM     21  N   UNL     1      34.288 -13.575 -23.305  0.00  0.00    -0.300 NA
ATOM     22  N   UNL     1      33.652 -13.524 -25.502  0.00  0.00    -0.010 NA
ATOM     23  C   UNL     1      35.182 -18.494 -21.839  0.00  0.00    +0.047 C 
ATOM     24  C   UNL     1      34.575 -17.312 -21.076  0.00  0.00    +0.025 C 
ATOM     25  C   UNL     1      34.699 -18.466 -23.292  0.00  0.00    +0.025 C 
ATOM     26  C   UNL     1      34.900 -15.982 -21.756  0.00  0.00    +0.096 C 
ATOM     27  C   UNL     1      35.019 -17.132 -23.967  0.00  0.00    +0.096 C 
ATOM     28  C   UNL     1      34.235 -14.789 -23.792  0.00  0.00    +0.379 C 
ATOM     29  C   UNL     1      33.922 -12.834 -24.390  0.00  0.00    +0.104 C 
BRANCH  29  30
ATOM     30  C   UNL     1      33.829 -11.371 -24.342  0.00  0.00    +0.101 C 
ATOM     31  C   UNL     1      33.371 -10.830 -22.963  0.00  0.00    +0.017 C 
ATOM     32  C   UNL     1      35.145 -10.658 -24.746  0.00  0.00    +0.017 C 
ENDBRANCH  29  30
ENDBRANCH  18  23
ENDBRANCH   1  18
TORSDOF 6
ENDMDL
MODEL 5
REMARK VINA RESULT:     -11.0      3.910     11.533
REMARK  Name = 24996872
REMARK  6 active torsions:
REMARK  status: ('A' for Active; 'I' for Inactive)
REMARK    1  A    between atoms: O_1  and  C_3
REMARK    2  A    between atoms: O_1  and  C_18
REMARK    3  A    between atoms: C_7  and  C_8
REMARK    4  A    between atoms: C_11  and  S_14
REMARK    5  A    between atoms: C_18  and  C_23
REMARK    6  A    between atoms: C_29  and  C_30
REMARK                            x       y       z     vdW  Elec       q    Type
REMARK                         _______ _______ _______ _____ _____    ______ ____
ROOT
ATOM      1  O   UNL     1      35.015 -18.611 -22.638  0.00  0.00    -0.474 OA
ENDROOT
BRANCH   1   3
ATOM      2  N   UNL     1      33.938 -20.755 -19.872  0.00  0.00    -0.241 NA
ATOM      3  C   UNL     1      35.085 -19.428 -21.536  0.00  0.00    +0.158 C 
ATOM      4  C   UNL     1      36.310 -19.763 -20.970  0.00  0.00    +0.040 C 
ATOM      5  C   UNL     1      33.939 -19.946 -20.955  0.00  0.00    +0.136 C 
ATOM      6  C   UNL     1      36.350 -20.592 -19.854  0.00  0.00    +0.022 C 
ATOM      7  C   UNL     1      35.147 -21.058 -19.348  0.00  0.00    +0.082 C 
BRANCH   7   8
ATOM      8  C   UNL     1      35.112 -21.923 -18.193  0.00  0.00    +0.018 C 
ATOM      9  C   UNL     1      36.227 -22.020 -17.360  0.00  0.00    +0.003 C 
ATOM     10  C   UNL     1      33.963 -22.661 -17.909  0.00  0.00    +0.003 C 
ATOM     11  C   UNL     1      35.043 -23.594 -15.960  0.00  0.00    +0.106 C 
ATOM     12  C   UNL     1      36.192 -22.856 -16.244  0.00  0.00    +0.018 C 
ATOM     13  C   UNL     1      33.928 -23.497 -16.794  0.00  0.00    +0.018 C 
BRANCH  11  14
ATOM     14  S   UNL     1      35.000 -24.640 -14.563  0.00  0.00    +0.010 S 
ATOM     15  O   UNL     1      33.635 -24.650 -14.053  0.00  0.00    -0.169 OA
ATOM     16  O   UNL     1      35.657 -25.897 -14.893  0.00  0.00    -0.169 OA
ATOM     17  C   UNL     1      36.025 -23.818 -13.364  0.00  0.00    +0.182 C 
ENDBRANCH  11  14
ENDBRANCH   7   8
ENDBRANCH   1   3
BRANCH   1  18
ATOM     18  C   UNL     1      35.586 -17.321 -22.519  0.00  0.00    +0.205 C 
BRANCH  18  23
ATOM     19  O   UNL     1      32.403 -12.332 -20.071  0.00  0.00    -0.296 OA
ATOM     20  N   UNL     1      33.350 -13.734 -21.691  0.00  0.00    -0.251 N 
ATOM     21  N   UNL     1      32.514 -11.471 -22.137  0.00  0.00    -0.300 NA
ATOM     22  N   UNL     1      31.853 -11.045 -19.989  0.00  0.00    -0.010 NA
ATOM     23  C   UNL     1      34.457 -16.295 -22.463  0.00  0.00    +0.047 C 
ATOM     24  C   UNL     1      34.865 -14.996 -23.167  0.00  0.00    +0.025 C 
ATOM     25  C   UNL     1      34.069 -15.989 -21.013  0.00  0.00    +0.025 C 
ATOM     26  C   UNL     1      33.759 -13.945 -23.086  0.00  0.00    +0.096 C 
ATOM     27  C   UNL     1      32.968 -14.931 -20.935  0.00  0.00    +0.096 C 
ATOM     28  C   UNL     1      32.767 -12.502 -21.369  0.00  0.00    +0.379 C 
ATOM     29  C   UNL     1      31.955 -10.603 -21.246  0.00  0.00    +0.104 C 
BRANCH  29  30
ATOM     30  C   UNL     1      31.494  -9.268 -21.639  0.00  0.00    +0.101 C 
ATOM     31  C   UNL     1      31.914  -8.156 -20.644  0.00  0.00    +0.017 C 
ATOM     32  C   UNL     1      31.943  -8.858 -23.064  0.00  0.00    +0.017 C 
ENDBRANCH  29  30
ENDBRANCH  18  23
ENDBRANCH   1  18
TORSDOF 6
ENDMDL
MODEL 6
REMARK VINA RESULT:     -10.9      1.252      1.803
REMARK  Name = 24996872
REMARK  6 active torsions:
REMARK  status: ('A' for Active; 'I' for Inactive)
REMARK    1  A    between atoms: O_1  and  C_3
REMARK    2  A    between atoms: O_1  and  C_18
REMARK    3  A    between atoms: C_7  and  C_8
REMARK    4  A    between atoms: C_11  and  S_14
REMARK    5  A    between atoms: C_18  and  C_23
REMARK    6  A    between atoms: C_29  and  C_30
REMARK                            x       y       z     vdW  Elec       q    Type
REMARK                         _______ _______ _______ _____ _____    ______ ____
ROOT
ATOM      1  O   UNL     1      35.647 -18.355 -22.983  0.00  0.00    -0.474 OA
ENDROOT
BRANCH   1   3
ATOM      2  N   UNL     1      34.556 -15.089 -21.741  0.00  0.00    -0.241 NA
ATOM      3  C   UNL     1      35.161 -17.071 -22.987  0.00  0.00    +0.158 C 
ATOM      4  C   UNL     1      34.786 -16.449 -24.172  0.00  0.00    +0.040 C 
ATOM      5  C   UNL     1      35.027 -16.354 -21.808  0.00  0.00    +0.136 C 
ATOM      6  C   UNL     1      34.296 -15.148 -24.144  0.00  0.00    +0.022 C 
ATOM      7  C   UNL     1      34.202 -14.517 -22.914  0.00  0.00    +0.082 C 
BRANCH   7   8
ATOM      8  C   UNL     1      33.703 -13.167 -22.809  0.00  0.00    +0.018 C 
ATOM      9  C   UNL     1      34.180 -12.177 -23.669  0.00  0.00    +0.003 C 
ATOM     10  C   UNL     1      32.742 -12.852 -21.848  0.00  0.00    +0.003 C 
ATOM     11  C   UNL     1      32.736 -10.558 -22.605  0.00  0.00    +0.106 C 
ATOM     12  C   UNL     1      33.697 -10.873 -23.566  0.00  0.00    +0.018 C 
ATOM     13  C   UNL     1      32.259 -11.547 -21.745  0.00  0.00    +0.018 C 
BRANCH  11  14
ATOM     14  S   UNL     1      32.132  -8.925 -22.477  0.00  0.00    +0.010 S 
ATOM     15  O   UNL     1      33.035  -8.053 -23.216  0.00  0.00    -0.169 OA
ATOM     16  O   UNL     1      30.709  -8.922 -22.788  0.00  0.00    -0.169 OA
ATOM     17  C   UNL     1      32.285  -8.531 -20.749  0.00  0.00    +0.182 C 
ENDBRANCH  11  14
ENDBRANCH   7   8
ENDBRANCH   1   3
BRANCH   1  18
ATOM     18  C   UNL     1      34.705 -19.400 -22.827  0.00  0.00    +0.205 C 
BRANCH  18  23
ATOM     19  O   UNL     1      32.670 -22.759 -17.767  0.00  0.00    -0.296 OA
ATOM     20  N   UNL     1      34.126 -21.525 -19.125  0.00  0.00    -0.251 N 
ATOM     21  N   UNL     1      34.824 -22.810 -17.156  0.00  0.00    -0.300 NA
ATOM     22  N   UNL     1      32.732 -23.569 -16.625  0.00  0.00    -0.010 NA
ATOM     23  C   UNL     1      34.572 -19.713 -21.338  0.00  0.00    +0.047 C 
ATOM     24  C   UNL     1      35.637 -20.723 -20.896  0.00  0.00    +0.025 C 
ATOM     25  C   UNL     1      33.180 -20.268 -21.019  0.00  0.00    +0.025 C 
ATOM     26  C   UNL     1      35.493 -21.075 -19.416  0.00  0.00    +0.096 C 
ATOM     27  C   UNL     1      33.042 -20.627 -19.539  0.00  0.00    +0.096 C 
ATOM     28  C   UNL     1      33.944 -22.355 -18.012  0.00  0.00    +0.379 C 
ATOM     29  C   UNL     1      34.034 -23.550 -16.325  0.00  0.00    +0.104 C 
BRANCH  29  30
ATOM     30  C   UNL     1      34.576 -24.279 -15.175  0.00  0.00    +0.101 C 
ATOM     31  C   UNL     1      36.039 -23.891 -14.836  0.00  0.00    +0.017 C 
ATOM     32  C   UNL     1      33.713 -24.139 -13.896  0.00  0.00    +0.017 C 
ENDBRANCH  29  30
ENDBRANCH  18  23
ENDBRANCH   1  18
TORSDOF 6
ENDMDL
MODEL 7
REMARK VINA RESULT:     -10.8      5.303     13.896
REMARK  Name = 24996872
REMARK  6 active torsions:
REMARK  status: ('A' for Active; 'I' for Inactive)
REMARK    1  A    between atoms: O_1  and  C_3
REMARK    2  A    between atoms: O_1  and  C_18
REMARK    3  A    between atoms: C_7  and  C_8
REMARK    4  A    between atoms: C_11  and  S_14
REMARK    5  A    between atoms: C_18  and  C_23
REMARK    6  A    between atoms: C_29  and  C_30
REMARK                            x       y       z     vdW  Elec       q    Type
REMARK                         _______ _______ _______ _____ _____    ______ ____
ROOT
ATOM      1  O   UNL     1      31.478  -9.788 -21.722  0.00  0.00    -0.474 OA
ENDROOT
BRANCH   1   3
ATOM      2  N   UNL     1      33.487 -12.637 -22.842  0.00  0.00    -0.241 NA
ATOM      3  C   UNL     1      32.048 -11.037 -21.739  0.00  0.00    +0.158 C 
ATOM      4  C   UNL     1      31.793 -11.954 -20.726  0.00  0.00    +0.040 C 
ATOM      5  C   UNL     1      32.894 -11.424 -22.766  0.00  0.00    +0.136 C 
ATOM      6  C   UNL     1      32.383 -13.213 -20.769  0.00  0.00    +0.022 C 
ATOM      7  C   UNL     1      33.215 -13.502 -21.839  0.00  0.00    +0.082 C 
BRANCH   7   8
ATOM      8  C   UNL     1      33.863 -14.787 -21.950  0.00  0.00    +0.018 C 
ATOM      9  C   UNL     1      34.169 -15.307 -23.208  0.00  0.00    +0.003 C 
ATOM     10  C   UNL     1      34.183 -15.509 -20.801  0.00  0.00    +0.003 C 
ATOM     11  C   UNL     1      35.115 -17.271 -22.165  0.00  0.00    +0.106 C 
ATOM     12  C   UNL     1      34.795 -16.549 -23.314  0.00  0.00    +0.018 C 
ATOM     13  C   UNL     1      34.809 -16.750 -20.907  0.00  0.00    +0.018 C 
BRANCH  11  14
ATOM     14  S   UNL     1      35.898 -18.825 -22.298  0.00  0.00    +0.010 S 
ATOM     15  O   UNL     1      35.383 -19.486 -23.490  0.00  0.00    -0.169 OA
ATOM     16  O   UNL     1      37.335 -18.646 -22.136  0.00  0.00    -0.169 OA
ATOM     17  C   UNL     1      35.326 -19.733 -20.880  0.00  0.00    +0.182 C 
ENDBRANCH  11  14
ENDBRANCH   7   8
ENDBRANCH   1   3
BRANCH   1  18
ATOM     18  C   UNL     1      31.924  -8.890 -20.722  0.00  0.00    +0.205 C 
BRANCH  18  23
ATOM     19  O   UNL     1      34.110  -5.332 -25.578  0.00  0.00    -0.296 OA
ATOM     20  N   UNL     1      32.809  -5.932 -23.725  0.00  0.00    -0.251 N 
ATOM     21  N   UNL     1      32.321  -4.037 -25.204  0.00  0.00    -0.300 NA
ATOM     22  N   UNL     1      34.115  -4.358 -26.586  0.00  0.00    -0.010 NA
ATOM     23  C   UNL     1      32.364  -7.593 -21.397  0.00  0.00    +0.047 C 
ATOM     24  C   UNL     1      31.201  -6.957 -22.166  0.00  0.00    +0.025 C 
ATOM     25  C   UNL     1      33.533  -7.845 -22.355  0.00  0.00    +0.025 C 
ATOM     26  C   UNL     1      31.636  -5.677 -22.878  0.00  0.00    +0.096 C 
ATOM     27  C   UNL     1      33.960  -6.564 -23.072  0.00  0.00    +0.096 C 
ATOM     28  C   UNL     1      33.021  -5.071 -24.809  0.00  0.00    +0.379 C 
ATOM     29  C   UNL     1      33.031  -3.634 -26.297  0.00  0.00    +0.104 C 
BRANCH  29  30
ATOM     30  C   UNL     1      32.631  -2.478 -27.106  0.00  0.00    +0.101 C 
ATOM     31  C   UNL     1      33.039  -2.602 -28.597  0.00  0.00    +0.017 C 
ATOM     32  C   UNL     1      31.114  -2.169 -27.028  0.00  0.00    +0.017 C 
ENDBRANCH  29  30
ENDBRANCH  18  23
ENDBRANCH   1  18
TORSDOF 6
ENDMDL
MODEL 8
REMARK VINA RESULT:     -10.7      1.434      1.901
REMARK  Name = 24996872
REMARK  6 active torsions:
REMARK  status: ('A' for Active; 'I' for Inactive)
REMARK    1  A    between atoms: O_1  and  C_3
REMARK    2  A    between atoms: O_1  and  C_18
REMARK    3  A    between atoms: C_7  and  C_8
REMARK    4  A    between atoms: C_11  and  S_14
REMARK    5  A    between atoms: C_18  and  C_23
REMARK    6  A    between atoms: C_29  and  C_30
REMARK                            x       y       z     vdW  Elec       q    Type
REMARK                         _______ _______ _______ _____ _____    ______ ____
ROOT
ATOM      1  O   UNL     1      34.724 -17.183 -23.365  0.00  0.00    -0.474 OA
ENDROOT
BRANCH   1   3
ATOM      2  N   UNL     1      34.081 -13.873 -21.938  0.00  0.00    -0.241 NA
ATOM      3  C   UNL     1      34.351 -15.864 -23.284  0.00  0.00    +0.158 C 
ATOM      4  C   UNL     1      33.880 -15.183 -24.400  0.00  0.00    +0.040 C 
ATOM      5  C   UNL     1      34.432 -15.171 -22.086  0.00  0.00    +0.136 C 
ATOM      6  C   UNL     1      33.509 -13.847 -24.287  0.00  0.00    +0.022 C 
ATOM      7  C   UNL     1      33.628 -13.244 -23.045  0.00  0.00    +0.082 C 
BRANCH   7   8
ATOM      8  C   UNL     1      33.263 -11.860 -22.854  0.00  0.00    +0.018 C 
ATOM      9  C   UNL     1      33.889 -10.863 -23.601  0.00  0.00    +0.003 C 
ATOM     10  C   UNL     1      32.282 -11.521 -21.922  0.00  0.00    +0.003 C 
ATOM     11  C   UNL     1      32.554  -9.187 -22.484  0.00  0.00    +0.106 C 
ATOM     12  C   UNL     1      33.535  -9.527 -23.415  0.00  0.00    +0.018 C 
ATOM     13  C   UNL     1      31.928 -10.185 -21.736  0.00  0.00    +0.018 C 
BRANCH  11  14
ATOM     14  S   UNL     1      32.111  -7.515 -22.251  0.00  0.00    +0.010 S 
ATOM     15  O   UNL     1      33.235  -6.690 -22.676  0.00  0.00    -0.169 OA
ATOM     16  O   UNL     1      30.792  -7.291 -22.827  0.00  0.00    -0.169 OA
ATOM     17  C   UNL     1      31.944  -7.342 -20.489  0.00  0.00    +0.182 C 
ENDBRANCH  11  14
ENDBRANCH   7   8
ENDBRANCH   1   3
BRANCH   1  18
ATOM     18  C   UNL     1      36.000 -17.524 -22.855  0.00  0.00    +0.205 C 
BRANCH  18  23
ATOM     19  O   UNL     1      36.364 -21.540 -17.879  0.00  0.00    -0.296 OA
ATOM     20  N   UNL     1      35.526 -20.556 -19.833  0.00  0.00    -0.251 N 
ATOM     21  N   UNL     1      34.279 -22.140 -18.436  0.00  0.00    -0.300 NA
ATOM     22  N   UNL     1      35.940 -22.439 -16.891  0.00  0.00    -0.010 NA
ATOM     23  C   UNL     1      35.899 -18.882 -22.165  0.00  0.00    +0.047 C 
ATOM     24  C   UNL     1      34.523 -19.062 -21.515  0.00  0.00    +0.025 C 
ATOM     25  C   UNL     1      36.991 -19.035 -21.100  0.00  0.00    +0.025 C 
ATOM     26  C   UNL     1      34.420 -20.402 -20.787  0.00  0.00    +0.096 C 
ATOM     27  C   UNL     1      36.879 -20.373 -20.368  0.00  0.00    +0.096 C 
ATOM     28  C   UNL     1      35.327 -21.419 -18.748  0.00  0.00    +0.379 C 
ATOM     29  C   UNL     1      34.702 -22.747 -17.290  0.00  0.00    +0.104 C 
BRANCH  29  30
ATOM     30  C   UNL     1      33.854 -23.679 -16.540  0.00  0.00    +0.101 C 
ATOM     31  C   UNL     1      34.377 -23.967 -15.108  0.00  0.00    +0.017 C 
ATOM     32  C   UNL     1      32.374 -23.226 -16.449  0.00  0.00    +0.017 C 
ENDBRANCH  29  30
ENDBRANCH  18  23
ENDBRANCH   1  18
TORSDOF 6
ENDMDL
MODEL 9
REMARK VINA RESULT:     -10.6      1.993      2.305
REMARK  Name = 24996872
REMARK  6 active torsions:
REMARK  status: ('A' for Active; 'I' for Inactive)
REMARK    1  A    between atoms: O_1  and  C_3
REMARK    2  A    between atoms: O_1  and  C_18
REMARK    3  A    between atoms: C_7  and  C_8
REMARK    4  A    between atoms: C_11  and  S_14
REMARK    5  A    between atoms: C_18  and  C_23
REMARK    6  A    between atoms: C_29  and  C_30
REMARK                            x       y       z     vdW  Elec       q    Type
REMARK                         _______ _______ _______ _____ _____    ______ ____
ROOT
ATOM      1  O   UNL     1      35.521 -18.723 -21.536  0.00  0.00    -0.474 OA
ENDROOT
BRANCH   1   3
ATOM      2  N   UNL     1      34.165 -15.418 -20.736  0.00  0.00    -0.241 NA
ATOM      3  C   UNL     1      35.051 -17.445 -21.712  0.00  0.00    +0.158 C 
ATOM      4  C   UNL     1      34.976 -16.877 -22.978  0.00  0.00    +0.040 C 
ATOM      5  C   UNL     1      34.637 -16.681 -20.632  0.00  0.00    +0.136 C 
ATOM      6  C   UNL     1      34.495 -15.580 -23.125  0.00  0.00    +0.022 C 
ATOM      7  C   UNL     1      34.107 -14.900 -21.983  0.00  0.00    +0.082 C 
BRANCH   7   8
ATOM      8  C   UNL     1      33.598 -13.551 -22.059  0.00  0.00    +0.018 C 
ATOM      9  C   UNL     1      34.017 -12.704 -23.085  0.00  0.00    +0.003 C 
ATOM     10  C   UNL     1      32.687 -13.094 -21.107  0.00  0.00    +0.003 C 
ATOM     11  C   UNL     1      32.614 -10.944 -22.206  0.00  0.00    +0.106 C 
ATOM     12  C   UNL     1      33.525 -11.401 -23.158  0.00  0.00    +0.018 C 
ATOM     13  C   UNL     1      32.195 -11.791 -21.179  0.00  0.00    +0.018 C 
BRANCH  11  14
ATOM     14  S   UNL     1      31.999  -9.313 -22.298  0.00  0.00    +0.010 S 
ATOM     15  O   UNL     1      32.852  -8.562 -23.209  0.00  0.00    -0.169 OA
ATOM     16  O   UNL     1      30.562  -9.362 -22.529  0.00  0.00    -0.169 OA
ATOM     17  C   UNL     1      32.238  -8.658 -20.661  0.00  0.00    +0.182 C 
ENDBRANCH  11  14
ENDBRANCH   7   8
ENDBRANCH   1   3
BRANCH   1  18
ATOM     18  C   UNL     1      34.574 -19.773 -21.612  0.00  0.00    +0.205 C 
BRANCH  18  23
ATOM     19  O   UNL     1      37.157 -22.070 -16.220  0.00  0.00    -0.296 OA
ATOM     20  N   UNL     1      35.641 -21.849 -17.991  0.00  0.00    -0.251 N 
ATOM     21  N   UNL     1      35.216 -23.159 -15.962  0.00  0.00    -0.300 NA
ATOM     22  N   UNL     1      37.230 -22.709 -14.975  0.00  0.00    -0.010 NA
ATOM     23  C   UNL     1      34.991 -20.873 -20.638  0.00  0.00    +0.047 C 
ATOM     24  C   UNL     1      33.910 -21.098 -19.575  0.00  0.00    +0.025 C 
ATOM     25  C   UNL     1      36.315 -20.523 -19.953  0.00  0.00    +0.025 C 
ATOM     26  C   UNL     1      34.329 -22.170 -18.570  0.00  0.00    +0.096 C 
ATOM     27  C   UNL     1      36.728 -21.593 -18.942  0.00  0.00    +0.096 C 
ATOM     28  C   UNL     1      35.939 -22.387 -16.733  0.00  0.00    +0.379 C 
ATOM     29  C   UNL     1      36.049 -23.329 -14.895  0.00  0.00    +0.104 C 
BRANCH  29  30
ATOM     30  C   UNL     1      35.676 -24.141 -13.732  0.00  0.00    +0.101 C 
ATOM     31  C   UNL     1      36.139 -23.531 -12.384  0.00  0.00    +0.017 C 
ATOM     32  C   UNL     1      34.156 -24.435 -13.652  0.00  0.00    +0.017 C 
ENDBRANCH  29  30
ENDBRANCH  18  23
ENDBRANCH   1  18
TORSDOF 6
ENDMDL
