MODEL 1
REMARK VINA RESULT:     -11.9      0.000      0.000
REMARK  Name = 3351
REMARK  5 active torsions:
REMARK  status: ('A' for Active; 'I' for Inactive)
REMARK    1  A    between atoms: N_2  and  C_10
REMARK    2  A    between atoms: C_8  and  C_20
REMARK    3  A    between atoms: C_10  and  C_13
REMARK    4  A    between atoms: C_20  and  O_21
REMARK    5  A    between atoms: O_21  and  C_23
REMARK                            x       y       z     vdW  Elec       q    Type
REMARK                         _______ _______ _______ _____ _____    ______ ____
ROOT
ATOM      1  O   UNL     1      35.618 -17.404 -23.536  0.00  0.00    -0.271 OA
ATOM      2  N   UNL     1      33.022 -13.508 -21.806  0.00  0.00    +0.392 N 
ATOM      3  N   UNL     1      34.752 -15.767 -22.133  0.00  0.00    -0.281 N 
ATOM      4  C   UNL     1      33.233 -14.099 -23.135  0.00  0.00    -0.055 C 
ATOM      5  C   UNL     1      33.098 -14.543 -20.765  0.00  0.00    -0.055 C 
ATOM      6  C   UNL     1      34.594 -14.790 -23.210  0.00  0.00    +0.071 C 
ATOM      7  C   UNL     1      34.455 -15.250 -20.795  0.00  0.00    +0.071 C 
ATOM      8  C   UNL     1      35.270 -17.031 -22.413  0.00  0.00    +0.270 C 
ATOM      9  H   UNL     1      33.760 -12.824 -21.636  0.00  0.00    -0.079 HD
ENDROOT
BRANCH   2  10
ATOM     10  C   UNL     1      31.734 -12.818 -21.750  0.00  0.00    -0.050 C 
BRANCH  10  13
ATOM     11  O   UNL     1      32.236  -7.909 -21.569  0.00  0.00    -0.435 OA
ATOM     12  O   UNL     1      32.116  -7.870 -19.163  0.00  0.00    -0.435 OA
ATOM     13  C   UNL     1      31.833 -11.504 -21.021  0.00  0.00    -0.040 C 
ATOM     14  C   UNL     1      31.992 -10.331 -21.751  0.00  0.00    +0.034 C 
ATOM     15  C   UNL     1      31.762 -11.493 -19.623  0.00  0.00    -0.003 C 
ATOM     16  C   UNL     1      32.078  -9.152 -21.039  0.00  0.00    +0.176 C 
ATOM     17  C   UNL     1      32.010  -9.130 -19.665  0.00  0.00    +0.176 C 
ATOM     18  C   UNL     1      31.852 -10.284 -18.926  0.00  0.00    +0.040 C 
ATOM     19  C   UNL     1      32.259  -7.101 -20.375  0.00  0.00    +0.429 C 
ENDBRANCH  10  13
ENDBRANCH   2  10
BRANCH   8  20
ATOM     20  C   UNL     1      35.396 -17.981 -21.249  0.00  0.00    +0.290 C 
BRANCH  20  21
ATOM     21  O   UNL     1      34.819 -19.197 -21.657  0.00  0.00    -0.466 OA
BRANCH  21  23
ATOM     22 CL   UNL     1      33.758 -23.203 -17.496  0.00  0.00    -0.082 Cl
ATOM     23  C   UNL     1      34.569 -20.137 -20.682  0.00  0.00    +0.139 C 
ATOM     24  C   UNL     1      33.264 -20.372 -20.280  0.00  0.00    +0.038 C 
ATOM     25  C   UNL     1      35.630 -20.832 -20.119  0.00  0.00    +0.038 C 
ATOM     26  C   UNL     1      33.011 -21.323 -19.291  0.00  0.00    +0.015 C 
ATOM     27  C   UNL     1      35.377 -21.784 -19.130  0.00  0.00    +0.015 C 
ATOM     28  C   UNL     1      34.069 -22.030 -18.716  0.00  0.00    +0.058 C 
ENDBRANCH  21  23
ENDBRANCH  20  21
ENDBRANCH   8  20
TORSDOF 5
ENDMDL
MODEL 2
REMARK VINA RESULT:     -10.9      3.696      9.583
REMARK  Name = 3351
REMARK  5 active torsions:
REMARK  status: ('A' for Active; 'I' for Inactive)
REMARK    1  A    between atoms: N_2  and  C_10
REMARK    2  A    between atoms: C_8  and  C_20
REMARK    3  A    between atoms: C_10  and  C_13
REMARK    4  A    between atoms: C_20  and  O_21
REMARK    5  A    between atoms: O_21  and  C_23
REMARK                            x       y       z     vdW  Elec       q    Type
REMARK                         _______ _______ _______ _____ _____    ______ ____
ROOT
ATOM      1  O   UNL     1      34.660 -16.403 -25.277  0.00  0.00    -0.271 OA
ATOM      2  N   UNL     1      35.610 -19.385 -21.390  0.00  0.00    +0.392 N 
ATOM      3  N   UNL     1      34.792 -17.253 -23.120  0.00  0.00    -0.281 N 
ATOM      4  C   UNL     1      35.725 -19.523 -22.848  0.00  0.00    -0.055 C 
ATOM      5  C   UNL     1      35.806 -17.985 -20.988  0.00  0.00    -0.055 C 
ATOM      6  C   UNL     1      34.695 -18.645 -23.558  0.00  0.00    +0.071 C 
ATOM      7  C   UNL     1      34.782 -17.072 -21.666  0.00  0.00    +0.071 C 
ATOM      8  C   UNL     1      34.765 -16.225 -24.061  0.00  0.00    +0.270 C 
ATOM      9  H   UNL     1      34.670 -19.672 -21.111  0.00  0.00    -0.079 HD
ENDROOT
BRANCH   2  10
ATOM     10  C   UNL     1      36.573 -20.253 -20.714  0.00  0.00    -0.050 C 
BRANCH  10  13
ATOM     11  O   UNL     1      32.730 -22.386 -18.463  0.00  0.00    -0.435 OA
ATOM     12  O   UNL     1      34.083 -23.141 -16.617  0.00  0.00    -0.435 OA
ATOM     13  C   UNL     1      35.937 -21.033 -19.594  0.00  0.00    -0.040 C 
ATOM     14  C   UNL     1      34.573 -21.306 -19.645  0.00  0.00    +0.034 C 
ATOM     15  C   UNL     1      36.731 -21.467 -18.527  0.00  0.00    -0.003 C 
ATOM     16  C   UNL     1      34.035 -22.023 -18.596  0.00  0.00    +0.176 C 
ATOM     17  C   UNL     1      34.807 -22.454 -17.542  0.00  0.00    +0.176 C 
ATOM     18  C   UNL     1      36.160 -22.192 -17.477  0.00  0.00    +0.040 C 
ATOM     19  C   UNL     1      32.767 -23.094 -17.208  0.00  0.00    +0.429 C 
ENDBRANCH  10  13
ENDBRANCH   2  10
BRANCH   8  20
ATOM     20  C   UNL     1      34.876 -14.819 -23.528  0.00  0.00    +0.290 C 
BRANCH  20  21
ATOM     21  O   UNL     1      33.618 -14.219 -23.711  0.00  0.00    -0.466 OA
BRANCH  21  23
ATOM     22 CL   UNL     1      31.259 -11.455 -19.098  0.00  0.00    -0.082 Cl
ATOM     23  C   UNL     1      33.063 -13.571 -22.630  0.00  0.00    +0.139 C 
ATOM     24  C   UNL     1      32.723 -12.231 -22.740  0.00  0.00    +0.038 C 
ATOM     25  C   UNL     1      32.856 -14.270 -21.450  0.00  0.00    +0.038 C 
ATOM     26  C   UNL     1      32.163 -11.574 -21.644  0.00  0.00    +0.015 C 
ATOM     27  C   UNL     1      32.296 -13.613 -20.354  0.00  0.00    +0.015 C 
ATOM     28  C   UNL     1      31.949 -12.266 -20.450  0.00  0.00    +0.058 C 
ENDBRANCH  21  23
ENDBRANCH  20  21
ENDBRANCH   8  20
TORSDOF 5
ENDMDL
MODEL 3
REMARK VINA RESULT:     -10.8      0.713      1.677
REMARK  Name = 3351
REMARK  5 active torsions:
REMARK  status: ('A' for Active; 'I' for Inactive)
REMARK    1  A    between atoms: N_2  and  C_10
REMARK    2  A    between atoms: C_8  and  C_20
REMARK    3  A    between atoms: C_10  and  C_13
REMARK    4  A    between atoms: C_20  and  O_21
REMARK    5  A    between atoms: O_21  and  C_23
REMARK                            x       y       z     vdW  Elec       q    Type
REMARK                         _______ _______ _______ _____ _____    ______ ____
ROOT
ATOM      1  O   UNL     1      34.986 -17.554 -23.757  0.00  0.00    -0.271 OA
ATOM      2  N   UNL     1      33.096 -13.319 -21.912  0.00  0.00    +0.392 N 
ATOM      3  N   UNL     1      34.539 -15.753 -22.359  0.00  0.00    -0.281 N 
ATOM      4  C   UNL     1      33.005 -14.012 -23.204  0.00  0.00    -0.055 C 
ATOM      5  C   UNL     1      33.278 -14.286 -20.820  0.00  0.00    -0.055 C 
ATOM      6  C   UNL     1      34.265 -14.837 -23.466  0.00  0.00    +0.071 C 
ATOM      7  C   UNL     1      34.541 -15.124 -21.036  0.00  0.00    +0.071 C 
ATOM      8  C   UNL     1      34.886 -17.077 -22.623  0.00  0.00    +0.270 C 
ATOM      9  H   UNL     1      33.908 -12.700 -21.933  0.00  0.00    -0.079 HD
ENDROOT
BRANCH   2  10
ATOM     10  C   UNL     1      31.905 -12.504 -21.681  0.00  0.00    -0.050 C 
BRANCH  10  13
ATOM     11  O   UNL     1      31.769  -7.914 -19.864  0.00  0.00    -0.435 OA
ATOM     12  O   UNL     1      32.987  -7.013 -21.738  0.00  0.00    -0.435 OA
ATOM     13  C   UNL     1      32.214 -11.031 -21.729  0.00  0.00    -0.040 C 
ATOM     14  C   UNL     1      31.790 -10.212 -20.687  0.00  0.00    +0.034 C 
ATOM     15  C   UNL     1      32.921 -10.518 -22.823  0.00  0.00    -0.003 C 
ATOM     16  C   UNL     1      32.096  -8.869 -20.776  0.00  0.00    +0.176 C 
ATOM     17  C   UNL     1      32.791  -8.355 -21.846  0.00  0.00    +0.176 C 
ATOM     18  C   UNL     1      33.218  -9.154 -22.887  0.00  0.00    +0.040 C 
ATOM     19  C   UNL     1      32.337  -6.740 -20.479  0.00  0.00    +0.429 C 
ENDBRANCH  10  13
ENDBRANCH   2  10
BRANCH   8  20
ATOM     20  C   UNL     1      35.147 -17.957 -21.427  0.00  0.00    +0.290 C 
BRANCH  20  21
ATOM     21  O   UNL     1      34.644 -19.231 -21.747  0.00  0.00    -0.466 OA
BRANCH  21  23
ATOM     22 CL   UNL     1      33.997 -23.068 -17.350  0.00  0.00    -0.082 Cl
ATOM     23  C   UNL     1      34.493 -20.129 -20.715  0.00  0.00    +0.139 C 
ATOM     24  C   UNL     1      35.610 -20.766 -20.197  0.00  0.00    +0.038 C 
ATOM     25  C   UNL     1      33.225 -20.383 -20.213  0.00  0.00    +0.038 C 
ATOM     26  C   UNL     1      35.457 -21.678 -19.152  0.00  0.00    +0.015 C 
ATOM     27  C   UNL     1      33.072 -21.295 -19.169  0.00  0.00    +0.015 C 
ATOM     28  C   UNL     1      34.186 -21.943 -18.638  0.00  0.00    +0.058 C 
ENDBRANCH  21  23
ENDBRANCH  20  21
ENDBRANCH   8  20
TORSDOF 5
ENDMDL
MODEL 4
REMARK VINA RESULT:     -10.8      5.672     11.750
REMARK  Name = 3351
REMARK  5 active torsions:
REMARK  status: ('A' for Active; 'I' for Inactive)
REMARK    1  A    between atoms: N_2  and  C_10
REMARK    2  A    between atoms: C_8  and  C_20
REMARK    3  A    between atoms: C_10  and  C_13
REMARK    4  A    between atoms: C_20  and  O_21
REMARK    5  A    between atoms: O_21  and  C_23
REMARK                            x       y       z     vdW  Elec       q    Type
REMARK                         _______ _______ _______ _____ _____    ______ ____
ROOT
ATOM      1  O   UNL     1      37.014 -19.696 -20.137  0.00  0.00    -0.271 OA
ATOM      2  N   UNL     1      34.933 -23.059 -17.092  0.00  0.00    +0.392 N 
ATOM      3  N   UNL     1      35.664 -21.394 -19.305  0.00  0.00    -0.281 N 
ATOM      4  C   UNL     1      36.082 -22.147 -16.991  0.00  0.00    -0.055 C 
ATOM      5  C   UNL     1      33.899 -22.489 -17.967  0.00  0.00    -0.055 C 
ATOM      6  C   UNL     1      36.681 -21.877 -18.371  0.00  0.00    +0.071 C 
ATOM      7  C   UNL     1      34.454 -22.218 -19.367  0.00  0.00    +0.071 C 
ATOM      8  C   UNL     1      35.941 -20.305 -20.131  0.00  0.00    +0.270 C 
ATOM      9  H   UNL     1      35.253 -23.938 -17.501  0.00  0.00    -0.079 HD
ENDROOT
BRANCH   2  10
ATOM     10  C   UNL     1      34.384 -23.342 -15.767  0.00  0.00    -0.050 C 
BRANCH  10  13
ATOM     11  O   UNL     1      37.705 -23.093 -12.121  0.00  0.00    -0.435 OA
ATOM     12  O   UNL     1      38.241 -25.437 -12.293  0.00  0.00    -0.435 OA
ATOM     13  C   UNL     1      35.417 -23.940 -14.848  0.00  0.00    -0.040 C 
ATOM     14  C   UNL     1      36.046 -23.126 -13.912  0.00  0.00    +0.034 C 
ATOM     15  C   UNL     1      35.721 -25.302 -14.957  0.00  0.00    -0.003 C 
ATOM     16  C   UNL     1      36.986 -23.719 -13.092  0.00  0.00    +0.176 C 
ATOM     17  C   UNL     1      37.291 -25.056 -13.191  0.00  0.00    +0.176 C 
ATOM     18  C   UNL     1      36.676 -25.876 -14.114  0.00  0.00    +0.040 C 
ATOM     19  C   UNL     1      38.499 -24.188 -11.619  0.00  0.00    +0.429 C 
ENDBRANCH  10  13
ENDBRANCH   2  10
BRANCH   8  20
ATOM     20  C   UNL     1      34.839 -19.866 -21.061  0.00  0.00    +0.290 C 
BRANCH  20  21
ATOM     21  O   UNL     1      35.459 -19.212 -22.140  0.00  0.00    -0.466 OA
BRANCH  21  23
ATOM     22 CL   UNL     1      34.199 -13.534 -22.946  0.00  0.00    -0.082 Cl
ATOM     23  C   UNL     1      35.162 -17.881 -22.330  0.00  0.00    +0.139 C 
ATOM     24  C   UNL     1      35.059 -17.383 -23.619  0.00  0.00    +0.038 C 
ATOM     25  C   UNL     1      34.972 -17.062 -21.226  0.00  0.00    +0.038 C 
ATOM     26  C   UNL     1      34.760 -16.033 -23.811  0.00  0.00    +0.015 C 
ATOM     27  C   UNL     1      34.673 -15.713 -21.418  0.00  0.00    +0.015 C 
ATOM     28  C   UNL     1      34.567 -15.198 -22.709  0.00  0.00    +0.058 C 
ENDBRANCH  21  23
ENDBRANCH  20  21
ENDBRANCH   8  20
TORSDOF 5
ENDMDL
MODEL 5
REMARK VINA RESULT:     -10.6      4.179     10.241
REMARK  Name = 3351
REMARK  5 active torsions:
REMARK  status: ('A' for Active; 'I' for Inactive)
REMARK    1  A    between atoms: N_2  and  C_10
REMARK    2  A    between atoms: C_8  and  C_20
REMARK    3  A    between atoms: C_10  and  C_13
REMARK    4  A    between atoms: C_20  and  O_21
REMARK    5  A    between atoms: O_21  and  C_23
REMARK                            x       y       z     vdW  Elec       q    Type
REMARK                         _______ _______ _______ _____ _____    ______ ____
ROOT
ATOM      1  O   UNL     1      33.512 -12.951 -25.374  0.00  0.00    -0.271 OA
ATOM      2  N   UNL     1      35.010 -17.064 -22.976  0.00  0.00    +0.392 N 
ATOM      3  N   UNL     1      33.892 -14.533 -23.715  0.00  0.00    -0.281 N 
ATOM      4  C   UNL     1      35.009 -16.632 -24.380  0.00  0.00    -0.055 C 
ATOM      5  C   UNL     1      35.136 -15.906 -22.080  0.00  0.00    -0.055 C 
ATOM      6  C   UNL     1      33.860 -15.660 -24.647  0.00  0.00    +0.071 C 
ATOM      7  C   UNL     1      33.992 -14.913 -22.304  0.00  0.00    +0.071 C 
ATOM      8  C   UNL     1      33.707 -13.235 -24.189  0.00  0.00    +0.270 C 
ATOM      9  H   UNL     1      34.121 -17.528 -22.780  0.00  0.00    -0.079 HD
ENDROOT
BRANCH   2  10
ATOM     10  C   UNL     1      36.089 -18.020 -22.733  0.00  0.00    -0.050 C 
BRANCH  10  13
ATOM     11  O   UNL     1      32.865 -20.755 -20.182  0.00  0.00    -0.435 OA
ATOM     12  O   UNL     1      34.595 -21.726 -18.814  0.00  0.00    -0.435 OA
ATOM     13  C   UNL     1      35.724 -19.021 -21.669  0.00  0.00    -0.040 C 
ATOM     14  C   UNL     1      34.388 -19.370 -21.493  0.00  0.00    +0.034 C 
ATOM     15  C   UNL     1      36.736 -19.579 -20.880  0.00  0.00    -0.003 C 
ATOM     16  C   UNL     1      34.102 -20.290 -20.506  0.00  0.00    +0.176 C 
ATOM     17  C   UNL     1      35.090 -20.845 -19.725  0.00  0.00    +0.176 C 
ATOM     18  C   UNL     1      36.418 -20.509 -19.886  0.00  0.00    +0.040 C 
ATOM     19  C   UNL     1      33.184 -21.664 -19.109  0.00  0.00    +0.429 C 
ENDBRANCH  10  13
ENDBRANCH   2  10
BRANCH   8  20
ATOM     20  C   UNL     1      33.759 -12.129 -23.166  0.00  0.00    +0.290 C 
BRANCH  20  21
ATOM     21  O   UNL     1      33.945 -10.930 -23.877  0.00  0.00    -0.466 OA
BRANCH  21  23
ATOM     22 CL   UNL     1      32.412  -5.940 -21.188  0.00  0.00    -0.082 Cl
ATOM     23  C   UNL     1      33.585  -9.760 -23.248  0.00  0.00    +0.139 C 
ATOM     24  C   UNL     1      34.392  -8.640 -23.379  0.00  0.00    +0.038 C 
ATOM     25  C   UNL     1      32.422  -9.721 -22.494  0.00  0.00    +0.038 C 
ATOM     26  C   UNL     1      34.029  -7.454 -22.740  0.00  0.00    +0.015 C 
ATOM     27  C   UNL     1      32.058  -8.536 -21.855  0.00  0.00    +0.015 C 
ATOM     28  C   UNL     1      32.861  -7.402 -21.977  0.00  0.00    +0.058 C 
ENDBRANCH  21  23
ENDBRANCH  20  21
ENDBRANCH   8  20
TORSDOF 5
ENDMDL
MODEL 6
REMARK VINA RESULT:     -10.5      3.925     10.262
REMARK  Name = 3351
REMARK  5 active torsions:
REMARK  status: ('A' for Active; 'I' for Inactive)
REMARK    1  A    between atoms: N_2  and  C_10
REMARK    2  A    between atoms: C_8  and  C_20
REMARK    3  A    between atoms: C_10  and  C_13
REMARK    4  A    between atoms: C_20  and  O_21
REMARK    5  A    between atoms: O_21  and  C_23
REMARK                            x       y       z     vdW  Elec       q    Type
REMARK                         _______ _______ _______ _____ _____    ______ ____
ROOT
ATOM      1  O   UNL     1      32.319 -13.185 -19.816  0.00  0.00    -0.271 OA
ATOM      2  N   UNL     1      35.184 -16.391 -22.351  0.00  0.00    +0.392 N 
ATOM      3  N   UNL     1      33.732 -14.107 -21.414  0.00  0.00    -0.281 N 
ATOM      4  C   UNL     1      34.486 -16.431 -21.058  0.00  0.00    -0.055 C 
ATOM      5  C   UNL     1      34.465 -15.528 -23.298  0.00  0.00    -0.055 C 
ATOM      6  C   UNL     1      34.361 -15.027 -20.467  0.00  0.00    +0.071 C 
ATOM      7  C   UNL     1      34.332 -14.105 -22.750  0.00  0.00    +0.071 C 
ATOM      8  C   UNL     1      32.730 -13.240 -20.978  0.00  0.00    +0.270 C 
ATOM      9  H   UNL     1      36.116 -16.002 -22.203  0.00  0.00    -0.079 HD
ENDROOT
BRANCH   2  10
ATOM     10  C   UNL     1      35.332 -17.740 -22.897  0.00  0.00    -0.050 C 
BRANCH  10  13
ATOM     11  O   UNL     1      34.108 -21.364 -19.776  0.00  0.00    -0.435 OA
ATOM     12  O   UNL     1      36.350 -21.531 -18.908  0.00  0.00    -0.435 OA
ATOM     13  C   UNL     1      35.642 -18.749 -21.823  0.00  0.00    -0.040 C 
ATOM     14  C   UNL     1      34.625 -19.571 -21.349  0.00  0.00    +0.034 C 
ATOM     15  C   UNL     1      36.948 -18.837 -21.326  0.00  0.00    -0.003 C 
ATOM     16  C   UNL     1      34.958 -20.480 -20.365  0.00  0.00    +0.176 C 
ATOM     17  C   UNL     1      36.238 -20.575 -19.869  0.00  0.00    +0.176 C 
ATOM     18  C   UNL     1      37.257 -19.766 -20.329  0.00  0.00    +0.040 C 
ATOM     19  C   UNL     1      34.996 -22.027 -18.854  0.00  0.00    +0.429 C 
ENDBRANCH  10  13
ENDBRANCH   2  10
BRANCH   8  20
ATOM     20  C   UNL     1      32.129 -12.328 -22.017  0.00  0.00    +0.290 C 
BRANCH  20  21
ATOM     21  O   UNL     1      31.201 -11.511 -21.347  0.00  0.00    -0.466 OA
BRANCH  21  23
ATOM     22 CL   UNL     1      32.506  -5.810 -20.815  0.00  0.00    -0.082 Cl
ATOM     23  C   UNL     1      31.509 -10.175 -21.222  0.00  0.00    +0.139 C 
ATOM     24  C   UNL     1      31.781  -9.653 -19.967  0.00  0.00    +0.038 C 
ATOM     25  C   UNL     1      31.540  -9.374 -22.354  0.00  0.00    +0.038 C 
ATOM     26  C   UNL     1      32.091  -8.298 -19.840  0.00  0.00    +0.015 C 
ATOM     27  C   UNL     1      31.849  -8.019 -22.228  0.00  0.00    +0.015 C 
ATOM     28  C   UNL     1      32.125  -7.481 -20.972  0.00  0.00    +0.058 C 
ENDBRANCH  21  23
ENDBRANCH  20  21
ENDBRANCH   8  20
TORSDOF 5
ENDMDL
MODEL 7
REMARK VINA RESULT:     -10.5      7.917     13.257
REMARK  Name = 3351
REMARK  5 active torsions:
REMARK  status: ('A' for Active; 'I' for Inactive)
REMARK    1  A    between atoms: N_2  and  C_10
REMARK    2  A    between atoms: C_8  and  C_20
REMARK    3  A    between atoms: C_10  and  C_13
REMARK    4  A    between atoms: C_20  and  O_21
REMARK    5  A    between atoms: O_21  and  C_23
REMARK                            x       y       z     vdW  Elec       q    Type
REMARK                         _______ _______ _______ _____ _____    ______ ____
ROOT
ATOM      1  O   UNL     1      31.353 -23.562 -16.506  0.00  0.00    -0.271 OA
ATOM      2  N   UNL     1      34.874 -23.607 -12.969  0.00  0.00    +0.392 N 
ATOM      3  N   UNL     1      33.323 -23.174 -15.338  0.00  0.00    -0.281 N 
ATOM      4  C   UNL     1      33.491 -24.096 -13.054  0.00  0.00    -0.055 C 
ATOM      5  C   UNL     1      35.514 -23.639 -14.292  0.00  0.00    -0.055 C 
ATOM      6  C   UNL     1      32.676 -23.247 -14.029  0.00  0.00    +0.071 C 
ATOM      7  C   UNL     1      34.736 -22.786 -15.297  0.00  0.00    +0.071 C 
ATOM      8  C   UNL     1      32.568 -23.346 -16.497  0.00  0.00    +0.270 C 
ATOM      9  H   UNL     1      34.856 -22.640 -12.643  0.00  0.00    -0.079 HD
ENDROOT
BRANCH   2  10
ATOM     10  C   UNL     1      35.642 -24.400 -12.010  0.00  0.00    -0.050 C 
BRANCH  10  13
ATOM     11  O   UNL     1      40.395 -24.839 -13.271  0.00  0.00    -0.435 OA
ATOM     12  O   UNL     1      40.021 -26.933 -14.403  0.00  0.00    -0.435 OA
ATOM     13  C   UNL     1      36.797 -25.110 -12.664  0.00  0.00    -0.040 C 
ATOM     14  C   UNL     1      38.066 -24.542 -12.604  0.00  0.00    +0.034 C 
ATOM     15  C   UNL     1      36.568 -26.325 -13.320  0.00  0.00    -0.003 C 
ATOM     16  C   UNL     1      39.093 -25.229 -13.219  0.00  0.00    +0.176 C 
ATOM     17  C   UNL     1      38.878 -26.425 -13.866  0.00  0.00    +0.176 C 
ATOM     18  C   UNL     1      37.626 -27.000 -13.934  0.00  0.00    +0.040 C 
ATOM     19  C   UNL     1      40.978 -25.923 -14.022  0.00  0.00    +0.429 C 
ENDBRANCH  10  13
ENDBRANCH   2  10
BRANCH   8  20
ATOM     20  C   UNL     1      33.312 -23.262 -17.806  0.00  0.00    +0.290 C 
BRANCH  20  21
ATOM     21  O   UNL     1      32.771 -22.169 -18.506  0.00  0.00    -0.466 OA
BRANCH  21  23
ATOM     22 CL   UNL     1      36.455 -18.977 -21.781  0.00  0.00    -0.082 Cl
ATOM     23  C   UNL     1      33.634 -21.419 -19.273  0.00  0.00    +0.139 C 
ATOM     24  C   UNL     1      33.125 -20.452 -20.125  0.00  0.00    +0.038 C 
ATOM     25  C   UNL     1      35.000 -21.646 -19.180  0.00  0.00    +0.038 C 
ATOM     26  C   UNL     1      34.000 -19.693 -20.904  0.00  0.00    +0.015 C 
ATOM     27  C   UNL     1      35.875 -20.888 -19.959  0.00  0.00    +0.015 C 
ATOM     28  C   UNL     1      35.376 -19.912 -20.820  0.00  0.00    +0.058 C 
ENDBRANCH  21  23
ENDBRANCH  20  21
ENDBRANCH   8  20
TORSDOF 5
ENDMDL
MODEL 8
REMARK VINA RESULT:     -10.4      4.393      7.261
REMARK  Name = 3351
REMARK  5 active torsions:
REMARK  status: ('A' for Active; 'I' for Inactive)
REMARK    1  A    between atoms: N_2  and  C_10
REMARK    2  A    between atoms: C_8  and  C_20
REMARK    3  A    between atoms: C_10  and  C_13
REMARK    4  A    between atoms: C_20  and  O_21
REMARK    5  A    between atoms: O_21  and  C_23
REMARK                            x       y       z     vdW  Elec       q    Type
REMARK                         _______ _______ _______ _____ _____    ______ ____
ROOT
ATOM      1  O   UNL     1      31.714 -10.905 -18.576  0.00  0.00    -0.271 OA
ATOM      2  N   UNL     1      32.831  -7.604 -22.150  0.00  0.00    +0.392 N 
ATOM      3  N   UNL     1      31.808  -9.796 -20.616  0.00  0.00    -0.281 N 
ATOM      4  C   UNL     1      33.092  -7.689 -20.706  0.00  0.00    -0.055 C 
ATOM      5  C   UNL     1      32.749  -8.949 -22.738  0.00  0.00    -0.055 C 
ATOM      6  C   UNL     1      31.989  -8.481 -20.003  0.00  0.00    +0.071 C 
ATOM      7  C   UNL     1      31.643  -9.771 -22.071  0.00  0.00    +0.071 C 
ATOM      8  C   UNL     1      31.683 -10.927 -19.809  0.00  0.00    +0.270 C 
ATOM      9  H   UNL     1      31.935  -7.136 -22.289  0.00  0.00    -0.079 HD
ENDROOT
BRANCH   2  10
ATOM     10  C   UNL     1      33.869  -6.817 -22.814  0.00  0.00    -0.050 C 
BRANCH  10  13
ATOM     11  O   UNL     1      30.550  -3.311 -23.847  0.00  0.00    -0.435 OA
ATOM     12  O   UNL     1      31.591  -2.784 -25.956  0.00  0.00    -0.435 OA
ATOM     13  C   UNL     1      33.284  -5.737 -23.685  0.00  0.00    -0.040 C 
ATOM     14  C   UNL     1      32.147  -5.059 -23.256  0.00  0.00    +0.034 C 
ATOM     15  C   UNL     1      33.896  -5.440 -24.908  0.00  0.00    -0.003 C 
ATOM     16  C   UNL     1      31.647  -4.078 -24.088  0.00  0.00    +0.176 C 
ATOM     17  C   UNL     1      32.241  -3.779 -25.292  0.00  0.00    +0.176 C 
ATOM     18  C   UNL     1      33.368  -4.442 -25.731  0.00  0.00    +0.040 C 
ATOM     19  C   UNL     1      30.520  -2.493 -25.034  0.00  0.00    +0.429 C 
ENDBRANCH  10  13
ENDBRANCH   2  10
BRANCH   8  20
ATOM     20  C   UNL     1      31.505 -12.245 -20.519  0.00  0.00    +0.290 C 
BRANCH  20  21
ATOM     21  O   UNL     1      32.647 -13.014 -20.233  0.00  0.00    -0.466 OA
BRANCH  21  23
ATOM     22 CL   UNL     1      34.923 -16.195 -24.613  0.00  0.00    -0.082 Cl
ATOM     23  C   UNL     1      33.182 -13.758 -21.260  0.00  0.00    +0.139 C 
ATOM     24  C   UNL     1      32.878 -13.427 -22.572  0.00  0.00    +0.038 C 
ATOM     25  C   UNL     1      34.014 -14.828 -20.965  0.00  0.00    +0.038 C 
ATOM     26  C   UNL     1      33.418 -14.183 -23.613  0.00  0.00    +0.015 C 
ATOM     27  C   UNL     1      34.554 -15.584 -22.006  0.00  0.00    +0.015 C 
ATOM     28  C   UNL     1      34.257 -15.262 -23.329  0.00  0.00    +0.058 C 
ENDBRANCH  21  23
ENDBRANCH  20  21
ENDBRANCH   8  20
TORSDOF 5
ENDMDL
MODEL 9
REMARK VINA RESULT:     -10.4      3.495      5.766
REMARK  Name = 3351
REMARK  5 active torsions:
REMARK  status: ('A' for Active; 'I' for Inactive)
REMARK    1  A    between atoms: N_2  and  C_10
REMARK    2  A    between atoms: C_8  and  C_20
REMARK    3  A    between atoms: C_10  and  C_13
REMARK    4  A    between atoms: C_20  and  O_21
REMARK    5  A    between atoms: O_21  and  C_23
REMARK                            x       y       z     vdW  Elec       q    Type
REMARK                         _______ _______ _______ _____ _____    ______ ____
ROOT
ATOM      1  O   UNL     1      32.171 -13.506 -19.966  0.00  0.00    -0.271 OA
ATOM      2  N   UNL     1      31.975  -8.571 -20.685  0.00  0.00    +0.392 N 
ATOM      3  N   UNL     1      31.883 -11.422 -20.951  0.00  0.00    -0.281 N 
ATOM      4  C   UNL     1      32.189  -9.436 -19.516  0.00  0.00    -0.055 C 
ATOM      5  C   UNL     1      32.476  -9.221 -21.905  0.00  0.00    -0.055 C 
ATOM      6  C   UNL     1      31.483 -10.778 -19.700  0.00  0.00    +0.071 C 
ATOM      7  C   UNL     1      31.781 -10.565 -22.135  0.00  0.00    +0.071 C 
ATOM      8  C   UNL     1      32.202 -12.779 -20.962  0.00  0.00    +0.270 C 
ATOM      9  H   UNL     1      30.972  -8.415 -20.792  0.00  0.00    -0.079 HD
ENDROOT
BRANCH   2  10
ATOM     10  C   UNL     1      32.623  -7.275 -20.492  0.00  0.00    -0.050 C 
BRANCH  10  13
ATOM     11  O   UNL     1      32.614  -4.311 -24.441  0.00  0.00    -0.435 OA
ATOM     12  O   UNL     1      30.499  -3.324 -23.839  0.00  0.00    -0.435 OA
ATOM     13  C   UNL     1      32.021  -6.210 -21.369  0.00  0.00    -0.040 C 
ATOM     14  C   UNL     1      32.699  -5.811 -22.517  0.00  0.00    +0.034 C 
ATOM     15  C   UNL     1      30.793  -5.643 -21.010  0.00  0.00    -0.003 C 
ATOM     16  C   UNL     1      32.109  -4.832 -23.290  0.00  0.00    +0.176 C 
ATOM     17  C   UNL     1      30.901  -4.269 -22.945  0.00  0.00    +0.176 C 
ATOM     18  C   UNL     1      30.217  -4.652 -21.810  0.00  0.00    +0.040 C 
ATOM     19  C   UNL     1      31.588  -3.357 -24.784  0.00  0.00    +0.429 C 
ENDBRANCH  10  13
ENDBRANCH   2  10
BRANCH   8  20
ATOM     20  C   UNL     1      32.610 -13.365 -22.290  0.00  0.00    +0.290 C 
BRANCH  20  21
ATOM     21  O   UNL     1      33.985 -13.644 -22.202  0.00  0.00    -0.466 OA
BRANCH  21  23
ATOM     22 CL   UNL     1      35.656 -19.236 -22.847  0.00  0.00    -0.082 Cl
ATOM     23  C   UNL     1      34.375 -14.956 -22.353  0.00  0.00    +0.139 C 
ATOM     24  C   UNL     1      34.638 -15.722 -21.228  0.00  0.00    +0.038 C 
ATOM     25  C   UNL     1      34.500 -15.487 -23.628  0.00  0.00    +0.038 C 
ATOM     26  C   UNL     1      35.036 -17.051 -21.381  0.00  0.00    +0.015 C 
ATOM     27  C   UNL     1      34.898 -16.816 -23.781  0.00  0.00    +0.015 C 
ATOM     28  C   UNL     1      35.165 -17.598 -22.658  0.00  0.00    +0.058 C 
ENDBRANCH  21  23
ENDBRANCH  20  21
ENDBRANCH   8  20
TORSDOF 5
ENDMDL
