MODEL 1
REMARK VINA RESULT:     -11.2      0.000      0.000
REMARK  Name = 4565
REMARK  4 active torsions:
REMARK  status: ('A' for Active; 'I' for Inactive)
REMARK    1  A    between atoms: N_5  and  C_15
REMARK    2  A    between atoms: C_6  and  O_21
REMARK    3  A    between atoms: O_21  and  C_22
REMARK    4  A    between atoms: C_22  and  C_23
REMARK                            x       y       z     vdW  Elec       q    Type
REMARK                         _______ _______ _______ _____ _____    ______ ____
ROOT
ATOM      1  N   UNL     1      34.562 -15.943 -22.931  0.00  0.00    -0.293 NA
ATOM      2  N   UNL     1      33.376 -13.183 -25.051  0.00  0.00    -0.266 NA
ATOM      3  N   UNL     1      34.539 -16.456 -25.316  0.00  0.00    -0.316 NA
ATOM      4  N   UNL     1      33.753 -14.625 -26.708  0.00  0.00    -0.296 N 
ATOM      5  N   UNL     1      35.248 -18.032 -23.738  0.00  0.00    -0.238 N 
ATOM      6  C   UNL     1      34.091 -14.697 -23.151  0.00  0.00    +0.288 C 
ATOM      7  C   UNL     1      33.840 -14.320 -24.454  0.00  0.00    +0.215 C 
ATOM      8  C   UNL     1      34.067 -15.201 -25.503  0.00  0.00    +0.196 C 
ATOM      9  C   UNL     1      34.755 -16.736 -24.013  0.00  0.00    +0.207 C 
ATOM     10  C   UNL     1      33.342 -13.414 -26.401  0.00  0.00    +0.164 C 
ATOM     11  H   UNL     1      33.114 -12.350 -24.596  0.00  0.00    +0.126 HD
ATOM     12  H   UNL     1      33.821 -15.029 -27.604  0.00  0.00    +0.150 HD
ATOM     13  H   UNL     1      35.379 -18.585 -24.542  0.00  0.00    +0.166 HD
ENDROOT
BRANCH   5  15
ATOM     14 CL   UNL     1      33.794 -21.027 -19.834  0.00  0.00    -0.082 Cl
ATOM     15  C   UNL     1      35.589 -18.686 -22.540  0.00  0.00    +0.059 C 
ATOM     16  C   UNL     1      34.634 -19.444 -21.859  0.00  0.00    +0.027 C 
ATOM     17  C   UNL     1      36.884 -18.580 -22.027  0.00  0.00    +0.015 C 
ATOM     18  C   UNL     1      34.973 -20.093 -20.672  0.00  0.00    +0.059 C 
ATOM     19  C   UNL     1      37.223 -19.230 -20.840  0.00  0.00    +0.002 C 
ATOM     20  C   UNL     1      36.266 -19.986 -20.162  0.00  0.00    +0.011 C 
ENDBRANCH   5  15
BRANCH   6  21
ATOM     21  O   UNL     1      33.884 -13.867 -22.076  0.00  0.00    -0.453 OA
BRANCH  21  22
ATOM     22  C   UNL     1      32.796 -14.176 -21.225  0.00  0.00    +0.208 C 
BRANCH  22  23
ATOM     23  C   UNL     1      31.972 -12.908 -21.012  0.00  0.00    +0.044 C 
ATOM     24  C   UNL     1      32.033 -12.463 -19.543  0.00  0.00    +0.004 C 
ATOM     25  C   UNL     1      32.452 -11.787 -21.942  0.00  0.00    +0.004 C 
ATOM     26  C   UNL     1      31.259 -11.167 -19.315  0.00  0.00    +0.000 C 
ATOM     27  C   UNL     1      31.678 -10.491 -21.709  0.00  0.00    +0.000 C 
ATOM     28  C   UNL     1      31.733 -10.057 -20.247  0.00  0.00    +0.000 C 
ENDBRANCH  22  23
ENDBRANCH  21  22
ENDBRANCH   6  21
TORSDOF 4
ENDMDL
MODEL 2
REMARK VINA RESULT:     -11.0      8.070     11.261
REMARK  Name = 4565
REMARK  4 active torsions:
REMARK  status: ('A' for Active; 'I' for Inactive)
REMARK    1  A    between atoms: N_5  and  C_15
REMARK    2  A    between atoms: C_6  and  O_21
REMARK    3  A    between atoms: O_21  and  C_22
REMARK    4  A    between atoms: C_22  and  C_23
REMARK                            x       y       z     vdW  Elec       q    Type
REMARK                         _______ _______ _______ _____ _____    ______ ____
ROOT
ATOM      1  N   UNL     1      32.785 -23.492 -15.503  0.00  0.00    -0.293 NA
ATOM      2  N   UNL     1      29.420 -22.702 -16.758  0.00  0.00    -0.266 NA
ATOM      3  N   UNL     1      30.981 -24.106 -13.978  0.00  0.00    -0.316 NA
ATOM      4  N   UNL     1      28.762 -23.579 -14.817  0.00  0.00    -0.296 N 
ATOM      5  N   UNL     1      33.223 -24.496 -13.432  0.00  0.00    -0.238 N 
ATOM      6  C   UNL     1      31.910 -23.012 -16.412  0.00  0.00    +0.288 C 
ATOM      7  C   UNL     1      30.564 -23.074 -16.112  0.00  0.00    +0.215 C 
ATOM      8  C   UNL     1      30.130 -23.616 -14.910  0.00  0.00    +0.196 C 
ATOM      9  C   UNL     1      32.273 -24.004 -14.357  0.00  0.00    +0.207 C 
ATOM     10  C   UNL     1      28.367 -23.025 -15.944  0.00  0.00    +0.164 C 
ATOM     11  H   UNL     1      29.361 -22.280 -17.646  0.00  0.00    +0.126 HD
ATOM     12  H   UNL     1      28.201 -23.897 -14.074  0.00  0.00    +0.150 HD
ATOM     13  H   UNL     1      32.824 -24.861 -12.609  0.00  0.00    +0.166 HD
ENDROOT
BRANCH   5  15
ATOM     14 CL   UNL     1      37.699 -23.133 -11.327  0.00  0.00    -0.082 Cl
ATOM     15  C   UNL     1      34.628 -24.565 -13.458  0.00  0.00    +0.059 C 
ATOM     16  C   UNL     1      35.381 -23.893 -12.492  0.00  0.00    +0.027 C 
ATOM     17  C   UNL     1      35.276 -25.307 -14.448  0.00  0.00    +0.015 C 
ATOM     18  C   UNL     1      36.774 -23.963 -12.518  0.00  0.00    +0.059 C 
ATOM     19  C   UNL     1      36.668 -25.378 -14.473  0.00  0.00    +0.002 C 
ATOM     20  C   UNL     1      37.418 -24.705 -13.507  0.00  0.00    +0.011 C 
ENDBRANCH   5  15
BRANCH   6  21
ATOM     21  O   UNL     1      32.394 -22.486 -17.585  0.00  0.00    -0.453 OA
BRANCH  21  22
ATOM     22  C   UNL     1      33.723 -22.821 -17.939  0.00  0.00    +0.208 C 
BRANCH  22  23
ATOM     23  C   UNL     1      34.085 -22.078 -19.223  0.00  0.00    +0.044 C 
ATOM     24  C   UNL     1      33.077 -20.953 -19.500  0.00  0.00    +0.004 C 
ATOM     25  C   UNL     1      35.513 -21.524 -19.145  0.00  0.00    +0.004 C 
ATOM     26  C   UNL     1      33.447 -20.161 -20.752  0.00  0.00    +0.000 C 
ATOM     27  C   UNL     1      35.879 -20.730 -20.398  0.00  0.00    +0.000 C 
ATOM     28  C   UNL     1      34.870 -19.619 -20.675  0.00  0.00    +0.000 C 
ENDBRANCH  22  23
ENDBRANCH  21  22
ENDBRANCH   6  21
TORSDOF 4
ENDMDL
MODEL 3
REMARK VINA RESULT:     -10.9      7.831     10.759
REMARK  Name = 4565
REMARK  4 active torsions:
REMARK  status: ('A' for Active; 'I' for Inactive)
REMARK    1  A    between atoms: N_5  and  C_15
REMARK    2  A    between atoms: C_6  and  O_21
REMARK    3  A    between atoms: O_21  and  C_22
REMARK    4  A    between atoms: C_22  and  C_23
REMARK                            x       y       z     vdW  Elec       q    Type
REMARK                         _______ _______ _______ _____ _____    ______ ____
ROOT
ATOM      1  N   UNL     1      33.245 -23.134 -16.014  0.00  0.00    -0.293 NA
ATOM      2  N   UNL     1      29.678 -22.536 -16.680  0.00  0.00    -0.266 NA
ATOM      3  N   UNL     1      31.808 -23.387 -14.058  0.00  0.00    -0.316 NA
ATOM      4  N   UNL     1      29.453 -22.989 -14.509  0.00  0.00    -0.296 N 
ATOM      5  N   UNL     1      34.121 -23.710 -13.920  0.00  0.00    -0.238 N 
ATOM      6  C   UNL     1      32.191 -22.826 -16.800  0.00  0.00    +0.288 C 
ATOM      7  C   UNL     1      30.938 -22.796 -16.223  0.00  0.00    +0.215 C 
ATOM      8  C   UNL     1      30.773 -23.075 -14.873  0.00  0.00    +0.196 C 
ATOM      9  C   UNL     1      32.991 -23.392 -14.708  0.00  0.00    +0.207 C 
ATOM     10  C   UNL     1      28.823 -22.664 -15.618  0.00  0.00    +0.164 C 
ATOM     11  H   UNL     1      29.429 -22.299 -17.603  0.00  0.00    +0.126 HD
ATOM     12  H   UNL     1      29.064 -23.138 -13.617  0.00  0.00    +0.150 HD
ATOM     13  H   UNL     1      33.908 -23.893 -12.976  0.00  0.00    +0.166 HD
ENDROOT
BRANCH   5  15
ATOM     14 CL   UNL     1      38.387 -26.560 -13.898  0.00  0.00    -0.082 Cl
ATOM     15  C   UNL     1      35.491 -23.815 -14.220  0.00  0.00    +0.059 C 
ATOM     16  C   UNL     1      36.182 -24.998 -13.942  0.00  0.00    +0.027 C 
ATOM     17  C   UNL     1      36.168 -22.738 -14.797  0.00  0.00    +0.015 C 
ATOM     18  C   UNL     1      37.540 -25.101 -14.241  0.00  0.00    +0.059 C 
ATOM     19  C   UNL     1      37.526 -22.842 -15.096  0.00  0.00    +0.002 C 
ATOM     20  C   UNL     1      38.212 -24.025 -14.818  0.00  0.00    +0.011 C 
ENDBRANCH   5  15
BRANCH   6  21
ATOM     21  O   UNL     1      32.412 -22.558 -18.129  0.00  0.00    -0.453 OA
BRANCH  21  22
ATOM     22  C   UNL     1      33.710 -22.820 -18.630  0.00  0.00    +0.208 C 
BRANCH  22  23
ATOM     23  C   UNL     1      34.326 -21.501 -19.093  0.00  0.00    +0.044 C 
ATOM     24  C   UNL     1      35.759 -21.719 -19.599  0.00  0.00    +0.004 C 
ATOM     25  C   UNL     1      33.458 -20.848 -20.177  0.00  0.00    +0.004 C 
ATOM     26  C   UNL     1      36.377 -20.423 -20.116  0.00  0.00    +0.000 C 
ATOM     27  C   UNL     1      34.081 -19.553 -20.694  0.00  0.00    +0.000 C 
ATOM     28  C   UNL     1      35.508 -19.773 -21.187  0.00  0.00    +0.000 C 
ENDBRANCH  22  23
ENDBRANCH  21  22
ENDBRANCH   6  21
TORSDOF 4
ENDMDL
MODEL 4
REMARK VINA RESULT:     -10.6      8.778     12.421
REMARK  Name = 4565
REMARK  4 active torsions:
REMARK  status: ('A' for Active; 'I' for Inactive)
REMARK    1  A    between atoms: N_5  and  C_15
REMARK    2  A    between atoms: C_6  and  O_21
REMARK    3  A    between atoms: O_21  and  C_22
REMARK    4  A    between atoms: C_22  and  C_23
REMARK                            x       y       z     vdW  Elec       q    Type
REMARK                         _______ _______ _______ _____ _____    ______ ____
ROOT
ATOM      1  N   UNL     1      35.175 -23.958 -15.130  0.00  0.00    -0.293 NA
ATOM      2  N   UNL     1      36.418 -25.693 -12.135  0.00  0.00    -0.266 NA
ATOM      3  N   UNL     1      37.601 -23.892 -14.873  0.00  0.00    -0.316 NA
ATOM      4  N   UNL     1      38.411 -25.041 -12.890  0.00  0.00    -0.296 N 
ATOM      5  N   UNL     1      36.540 -22.868 -16.690  0.00  0.00    -0.238 N 
ATOM      6  C   UNL     1      35.032 -24.673 -13.993  0.00  0.00    +0.288 C 
ATOM      7  C   UNL     1      36.170 -25.004 -13.288  0.00  0.00    +0.215 C 
ATOM      8  C   UNL     1      37.423 -24.609 -13.738  0.00  0.00    +0.196 C 
ATOM      9  C   UNL     1      36.435 -23.616 -15.495  0.00  0.00    +0.207 C 
ATOM     10  C   UNL     1      37.774 -25.689 -11.939  0.00  0.00    +0.164 C 
ATOM     11  H   UNL     1      35.746 -26.116 -11.552  0.00  0.00    +0.126 HD
ATOM     12  H   UNL     1      39.382 -24.899 -12.975  0.00  0.00    +0.150 HD
ATOM     13  H   UNL     1      37.467 -22.634 -16.931  0.00  0.00    +0.166 HD
ENDROOT
BRANCH   5  15
ATOM     14 CL   UNL     1      35.507 -20.129 -20.904  0.00  0.00    -0.082 Cl
ATOM     15  C   UNL     1      35.582 -22.392 -17.602  0.00  0.00    +0.059 C 
ATOM     16  C   UNL     1      35.973 -21.589 -18.676  0.00  0.00    +0.027 C 
ATOM     17  C   UNL     1      34.233 -22.720 -17.438  0.00  0.00    +0.015 C 
ATOM     18  C   UNL     1      35.022 -21.118 -19.581  0.00  0.00    +0.059 C 
ATOM     19  C   UNL     1      33.283 -22.249 -18.343  0.00  0.00    +0.002 C 
ATOM     20  C   UNL     1      33.677 -21.448 -19.415  0.00  0.00    +0.011 C 
ENDBRANCH   5  15
BRANCH   6  21
ATOM     21  O   UNL     1      33.769 -25.036 -13.594  0.00  0.00    -0.453 OA
BRANCH  21  22
ATOM     22  C   UNL     1      32.827 -23.995 -13.413  0.00  0.00    +0.208 C 
BRANCH  22  23
ATOM     23  C   UNL     1      31.679 -24.204 -14.398  0.00  0.00    +0.044 C 
ATOM     24  C   UNL     1      30.463 -24.819 -13.691  0.00  0.00    +0.004 C 
ATOM     25  C   UNL     1      31.303 -22.882 -15.080  0.00  0.00    +0.004 C 
ATOM     26  C   UNL     1      29.282 -24.988 -14.645  0.00  0.00    +0.000 C 
ATOM     27  C   UNL     1      30.120 -23.054 -16.031  0.00  0.00    +0.000 C 
ATOM     28  C   UNL     1      28.917 -23.674 -15.327  0.00  0.00    +0.000 C 
ENDBRANCH  22  23
ENDBRANCH  21  22
ENDBRANCH   6  21
TORSDOF 4
ENDMDL
MODEL 5
REMARK VINA RESULT:     -10.5      7.768     12.184
REMARK  Name = 4565
REMARK  4 active torsions:
REMARK  status: ('A' for Active; 'I' for Inactive)
REMARK    1  A    between atoms: N_5  and  C_15
REMARK    2  A    between atoms: C_6  and  O_21
REMARK    3  A    between atoms: O_21  and  C_22
REMARK    4  A    between atoms: C_22  and  C_23
REMARK                            x       y       z     vdW  Elec       q    Type
REMARK                         _______ _______ _______ _____ _____    ______ ____
ROOT
ATOM      1  N   UNL     1      33.636 -23.026 -16.195  0.00  0.00    -0.293 NA
ATOM      2  N   UNL     1      31.757 -24.626 -13.468  0.00  0.00    -0.266 NA
ATOM      3  N   UNL     1      31.241 -23.230 -16.619  0.00  0.00    -0.316 NA
ATOM      4  N   UNL     1      30.010 -24.290 -14.811  0.00  0.00    -0.296 N 
ATOM      5  N   UNL     1      32.677 -22.251 -18.186  0.00  0.00    -0.238 N 
ATOM      6  C   UNL     1      33.515 -23.615 -14.985  0.00  0.00    +0.288 C 
ATOM      7  C   UNL     1      32.258 -24.017 -14.583  0.00  0.00    +0.215 C 
ATOM      8  C   UNL     1      31.154 -23.818 -15.402  0.00  0.00    +0.196 C 
ATOM      9  C   UNL     1      32.506 -22.871 -16.927  0.00  0.00    +0.207 C 
ATOM     10  C   UNL     1      30.406 -24.768 -13.651  0.00  0.00    +0.164 C 
ATOM     11  H   UNL     1      32.270 -24.911 -12.678  0.00  0.00    +0.126 HD
ATOM     12  H   UNL     1      29.094 -24.274 -15.174  0.00  0.00    +0.150 HD
ATOM     13  H   UNL     1      31.840 -22.152 -18.696  0.00  0.00    +0.166 HD
ENDROOT
BRANCH   5  15
ATOM     14 CL   UNL     1      34.591 -19.202 -21.842  0.00  0.00    -0.082 Cl
ATOM     15  C   UNL     1      33.808 -21.747 -18.852  0.00  0.00    +0.059 C 
ATOM     16  C   UNL     1      33.657 -20.831 -19.897  0.00  0.00    +0.027 C 
ATOM     17  C   UNL     1      35.088 -22.160 -18.473  0.00  0.00    +0.015 C 
ATOM     18  C   UNL     1      34.780 -20.331 -20.556  0.00  0.00    +0.059 C 
ATOM     19  C   UNL     1      36.210 -21.660 -19.133  0.00  0.00    +0.002 C 
ATOM     20  C   UNL     1      36.056 -20.745 -20.176  0.00  0.00    +0.011 C 
ENDBRANCH   5  15
BRANCH   6  21
ATOM     21  O   UNL     1      34.640 -23.787 -14.217  0.00  0.00    -0.453 OA
BRANCH  21  22
ATOM     22  C   UNL     1      35.771 -23.003 -14.548  0.00  0.00    +0.208 C 
BRANCH  22  23
ATOM     23  C   UNL     1      37.017 -23.693 -13.996  0.00  0.00    +0.044 C 
ATOM     24  C   UNL     1      36.987 -23.718 -12.461  0.00  0.00    +0.004 C 
ATOM     25  C   UNL     1      37.146 -25.113 -14.562  0.00  0.00    +0.004 C 
ATOM     26  C   UNL     1      38.197 -24.450 -11.886  0.00  0.00    +0.000 C 
ATOM     27  C   UNL     1      38.356 -25.843 -13.983  0.00  0.00    +0.000 C 
ATOM     28  C   UNL     1      38.328 -25.858 -12.457  0.00  0.00    +0.000 C 
ENDBRANCH  22  23
ENDBRANCH  21  22
ENDBRANCH   6  21
TORSDOF 4
ENDMDL
MODEL 6
REMARK VINA RESULT:     -10.1      7.873     12.488
REMARK  Name = 4565
REMARK  4 active torsions:
REMARK  status: ('A' for Active; 'I' for Inactive)
REMARK    1  A    between atoms: N_5  and  C_15
REMARK    2  A    between atoms: C_6  and  O_21
REMARK    3  A    between atoms: O_21  and  C_22
REMARK    4  A    between atoms: C_22  and  C_23
REMARK                            x       y       z     vdW  Elec       q    Type
REMARK                         _______ _______ _______ _____ _____    ______ ____
ROOT
ATOM      1  N   UNL     1      33.615 -22.956 -16.103  0.00  0.00    -0.293 NA
ATOM      2  N   UNL     1      32.390 -24.742 -13.131  0.00  0.00    -0.266 NA
ATOM      3  N   UNL     1      31.233 -23.483 -16.166  0.00  0.00    -0.316 NA
ATOM      4  N   UNL     1      30.434 -24.664 -14.198  0.00  0.00    -0.296 N 
ATOM      5  N   UNL     1      32.277 -22.350 -17.927  0.00  0.00    -0.238 N 
ATOM      6  C   UNL     1      33.754 -23.535 -14.891  0.00  0.00    +0.288 C 
ATOM      7  C   UNL     1      32.635 -24.093 -14.307  0.00  0.00    +0.215 C 
ATOM      8  C   UNL     1      31.406 -24.056 -14.951  0.00  0.00    +0.196 C 
ATOM      9  C   UNL     1      32.379 -22.966 -16.659  0.00  0.00    +0.207 C 
ATOM     10  C   UNL     1      31.058 -25.065 -13.111  0.00  0.00    +0.164 C 
ATOM     11  H   UNL     1      33.048 -24.943 -12.427  0.00  0.00    +0.126 HD
ATOM     12  H   UNL     1      29.482 -24.775 -14.420  0.00  0.00    +0.150 HD
ATOM     13  H   UNL     1      31.368 -22.371 -18.307  0.00  0.00    +0.166 HD
ENDROOT
BRANCH   5  15
ATOM     14 CL   UNL     1      37.191 -21.725 -19.267  0.00  0.00    -0.082 Cl
ATOM     15  C   UNL     1      33.220 -21.713 -18.754  0.00  0.00    +0.059 C 
ATOM     16  C   UNL     1      34.581 -22.000 -18.617  0.00  0.00    +0.027 C 
ATOM     17  C   UNL     1      32.801 -20.790 -19.716  0.00  0.00    +0.015 C 
ATOM     18  C   UNL     1      35.515 -21.369 -19.437  0.00  0.00    +0.059 C 
ATOM     19  C   UNL     1      33.735 -20.160 -20.536  0.00  0.00    +0.002 C 
ATOM     20  C   UNL     1      35.093 -20.449 -20.397  0.00  0.00    +0.011 C 
ENDBRANCH   5  15
BRANCH   6  21
ATOM     21  O   UNL     1      34.993 -23.544 -14.299  0.00  0.00    -0.453 OA
BRANCH  21  22
ATOM     22  C   UNL     1      36.117 -23.578 -15.159  0.00  0.00    +0.208 C 
BRANCH  22  23
ATOM     23  C   UNL     1      37.032 -24.717 -14.715  0.00  0.00    +0.044 C 
ATOM     24  C   UNL     1      38.504 -24.284 -14.775  0.00  0.00    +0.004 C 
ATOM     25  C   UNL     1      36.660 -25.193 -13.305  0.00  0.00    +0.004 C 
ATOM     26  C   UNL     1      39.437 -25.389 -14.285  0.00  0.00    +0.000 C 
ATOM     27  C   UNL     1      37.597 -26.296 -12.817  0.00  0.00    +0.000 C 
ATOM     28  C   UNL     1      39.059 -25.865 -12.887  0.00  0.00    +0.000 C 
ENDBRANCH  22  23
ENDBRANCH  21  22
ENDBRANCH   6  21
TORSDOF 4
ENDMDL
MODEL 7
REMARK VINA RESULT:     -10.0      8.096     11.053
REMARK  Name = 4565
REMARK  4 active torsions:
REMARK  status: ('A' for Active; 'I' for Inactive)
REMARK    1  A    between atoms: N_5  and  C_15
REMARK    2  A    between atoms: C_6  and  O_21
REMARK    3  A    between atoms: O_21  and  C_22
REMARK    4  A    between atoms: C_22  and  C_23
REMARK                            x       y       z     vdW  Elec       q    Type
REMARK                         _______ _______ _______ _____ _____    ______ ____
ROOT
ATOM      1  N   UNL     1      35.198 -23.307 -16.065  0.00  0.00    -0.293 NA
ATOM      2  N   UNL     1      33.120 -22.058 -18.830  0.00  0.00    -0.266 NA
ATOM      3  N   UNL     1      36.426 -22.015 -17.732  0.00  0.00    -0.316 NA
ATOM      4  N   UNL     1      35.043 -21.195 -19.555  0.00  0.00    -0.296 N 
ATOM      5  N   UNL     1      37.501 -22.929 -15.866  0.00  0.00    -0.238 N 
ATOM      6  C   UNL     1      34.037 -23.147 -16.735  0.00  0.00    +0.288 C 
ATOM      7  C   UNL     1      34.060 -22.421 -17.908  0.00  0.00    +0.215 C 
ATOM      8  C   UNL     1      35.245 -21.873 -18.380  0.00  0.00    +0.196 C 
ATOM      9  C   UNL     1      36.307 -22.738 -16.598  0.00  0.00    +0.207 C 
ATOM     10  C   UNL     1      33.756 -21.325 -19.797  0.00  0.00    +0.164 C 
ATOM     11  H   UNL     1      32.161 -22.281 -18.805  0.00  0.00    +0.126 HD
ATOM     12  H   UNL     1      35.712 -20.717 -20.096  0.00  0.00    +0.150 HD
ATOM     13  H   UNL     1      38.290 -22.505 -16.276  0.00  0.00    +0.166 HD
ENDROOT
BRANCH   5  15
ATOM     14 CL   UNL     1      36.895 -23.236 -10.780  0.00  0.00    -0.082 Cl
ATOM     15  C   UNL     1      37.783 -23.607 -14.666  0.00  0.00    +0.059 C 
ATOM     16  C   UNL     1      37.261 -23.140 -13.457  0.00  0.00    +0.027 C 
ATOM     17  C   UNL     1      38.587 -24.750 -14.678  0.00  0.00    +0.015 C 
ATOM     18  C   UNL     1      37.540 -23.813 -12.268  0.00  0.00    +0.059 C 
ATOM     19  C   UNL     1      38.866 -25.423 -13.489  0.00  0.00    +0.002 C 
ATOM     20  C   UNL     1      38.342 -24.954 -12.283  0.00  0.00    +0.011 C 
ENDBRANCH   5  15
BRANCH   6  21
ATOM     21  O   UNL     1      32.894 -23.711 -16.223  0.00  0.00    -0.453 OA
BRANCH  21  22
ATOM     22  C   UNL     1      32.463 -23.252 -14.955  0.00  0.00    +0.208 C 
BRANCH  22  23
ATOM     23  C   UNL     1      30.938 -23.320 -14.908  0.00  0.00    +0.044 C 
ATOM     24  C   UNL     1      30.328 -22.681 -16.164  0.00  0.00    +0.004 C 
ATOM     25  C   UNL     1      30.464 -24.770 -14.748  0.00  0.00    +0.004 C 
ATOM     26  C   UNL     1      28.805 -22.784 -16.165  0.00  0.00    +0.000 C 
ATOM     27  C   UNL     1      28.940 -24.869 -14.753  0.00  0.00    +0.000 C 
ATOM     28  C   UNL     1      28.338 -24.226 -15.998  0.00  0.00    +0.000 C 
ENDBRANCH  22  23
ENDBRANCH  21  22
ENDBRANCH   6  21
TORSDOF 4
ENDMDL
MODEL 8
REMARK VINA RESULT:      -9.9      7.417     10.859
REMARK  Name = 4565
REMARK  4 active torsions:
REMARK  status: ('A' for Active; 'I' for Inactive)
REMARK    1  A    between atoms: N_5  and  C_15
REMARK    2  A    between atoms: C_6  and  O_21
REMARK    3  A    between atoms: O_21  and  C_22
REMARK    4  A    between atoms: C_22  and  C_23
REMARK                            x       y       z     vdW  Elec       q    Type
REMARK                         _______ _______ _______ _____ _____    ______ ____
ROOT
ATOM      1  N   UNL     1      35.289 -23.029 -16.785  0.00  0.00    -0.293 NA
ATOM      2  N   UNL     1      34.149 -21.305 -19.827  0.00  0.00    -0.266 NA
ATOM      3  N   UNL     1      36.986 -21.620 -17.829  0.00  0.00    -0.316 NA
ATOM      4  N   UNL     1      36.223 -20.487 -19.839  0.00  0.00    -0.296 N 
ATOM      5  N   UNL     1      37.440 -22.832 -15.880  0.00  0.00    -0.238 N 
ATOM      6  C   UNL     1      34.380 -22.709 -17.732  0.00  0.00    +0.288 C 
ATOM      7  C   UNL     1      34.767 -21.843 -18.734  0.00  0.00    +0.215 C 
ATOM      8  C   UNL     1      36.052 -21.320 -18.763  0.00  0.00    +0.196 C 
ATOM      9  C   UNL     1      36.520 -22.472 -16.890  0.00  0.00    +0.207 C 
ATOM     10  C   UNL     1      35.061 -20.499 -20.457  0.00  0.00    +0.164 C 
ATOM     11  H   UNL     1      33.220 -21.466 -20.111  0.00  0.00    +0.126 HD
ATOM     12  H   UNL     1      37.034 -19.989 -20.092  0.00  0.00    +0.150 HD
ATOM     13  H   UNL     1      38.326 -22.413 -15.981  0.00  0.00    +0.166 HD
ENDROOT
BRANCH   5  15
ATOM     14 CL   UNL     1      35.151 -23.890 -11.411  0.00  0.00    -0.082 Cl
ATOM     15  C   UNL     1      37.338 -23.674 -14.757  0.00  0.00    +0.059 C 
ATOM     16  C   UNL     1      36.404 -23.398 -13.755  0.00  0.00    +0.027 C 
ATOM     17  C   UNL     1      38.171 -24.789 -14.638  0.00  0.00    +0.015 C 
ATOM     18  C   UNL     1      36.304 -24.233 -12.643  0.00  0.00    +0.059 C 
ATOM     19  C   UNL     1      38.070 -25.624 -13.526  0.00  0.00    +0.002 C 
ATOM     20  C   UNL     1      37.136 -25.346 -12.528  0.00  0.00    +0.011 C 
ENDBRANCH   5  15
BRANCH   6  21
ATOM     21  O   UNL     1      33.123 -23.256 -17.655  0.00  0.00    -0.453 OA
BRANCH  21  22
ATOM     22  C   UNL     1      32.236 -22.698 -16.703  0.00  0.00    +0.208 C 
BRANCH  22  23
ATOM     23  C   UNL     1      31.813 -23.798 -15.731  0.00  0.00    +0.044 C 
ATOM     24  C   UNL     1      32.690 -23.774 -14.471  0.00  0.00    +0.004 C 
ATOM     25  C   UNL     1      30.330 -23.658 -15.366  0.00  0.00    +0.004 C 
ATOM     26  C   UNL     1      32.253 -24.832 -13.461  0.00  0.00    +0.000 C 
ATOM     27  C   UNL     1      29.897 -24.715 -14.353  0.00  0.00    +0.000 C 
ATOM     28  C   UNL     1      30.776 -24.695 -13.107  0.00  0.00    +0.000 C 
ENDBRANCH  22  23
ENDBRANCH  21  22
ENDBRANCH   6  21
TORSDOF 4
ENDMDL
MODEL 9
REMARK VINA RESULT:      -9.8      6.783     10.047
REMARK  Name = 4565
REMARK  4 active torsions:
REMARK  status: ('A' for Active; 'I' for Inactive)
REMARK    1  A    between atoms: N_5  and  C_15
REMARK    2  A    between atoms: C_6  and  O_21
REMARK    3  A    between atoms: O_21  and  C_22
REMARK    4  A    between atoms: C_22  and  C_23
REMARK                            x       y       z     vdW  Elec       q    Type
REMARK                         _______ _______ _______ _____ _____    ______ ____
ROOT
ATOM      1  N   UNL     1      35.201 -22.369 -17.481  0.00  0.00    -0.293 NA
ATOM      2  N   UNL     1      33.791 -20.735 -20.458  0.00  0.00    -0.266 NA
ATOM      3  N   UNL     1      36.794 -20.990 -18.711  0.00  0.00    -0.316 NA
ATOM      4  N   UNL     1      35.852 -19.916 -20.677  0.00  0.00    -0.296 N 
ATOM      5  N   UNL     1      37.423 -22.145 -16.776  0.00  0.00    -0.238 N 
ATOM      6  C   UNL     1      34.212 -22.078 -18.352  0.00  0.00    +0.288 C 
ATOM      7  C   UNL     1      34.504 -21.241 -19.409  0.00  0.00    +0.215 C 
ATOM      8  C   UNL     1      35.781 -20.718 -19.567  0.00  0.00    +0.196 C 
ATOM      9  C   UNL     1      36.416 -21.815 -17.711  0.00  0.00    +0.207 C 
ATOM     10  C   UNL     1      34.641 -19.947 -21.189  0.00  0.00    +0.164 C 
ATOM     11  H   UNL     1      32.841 -20.905 -20.654  0.00  0.00    +0.126 HD
ATOM     12  H   UNL     1      36.636 -19.425 -21.015  0.00  0.00    +0.150 HD
ATOM     13  H   UNL     1      38.295 -21.728 -16.967  0.00  0.00    +0.166 HD
ENDROOT
BRANCH   5  15
ATOM     14 CL   UNL     1      39.758 -25.764 -13.986  0.00  0.00    -0.082 Cl
ATOM     15  C   UNL     1      37.424 -22.954 -15.625  0.00  0.00    +0.059 C 
ATOM     16  C   UNL     1      38.469 -23.855 -15.401  0.00  0.00    +0.027 C 
ATOM     17  C   UNL     1      36.381 -22.860 -14.700  0.00  0.00    +0.015 C 
ATOM     18  C   UNL     1      38.470 -24.655 -14.259  0.00  0.00    +0.059 C 
ATOM     19  C   UNL     1      36.383 -23.661 -13.559  0.00  0.00    +0.002 C 
ATOM     20  C   UNL     1      37.427 -24.559 -13.338  0.00  0.00    +0.011 C 
ENDBRANCH   5  15
BRANCH   6  21
ATOM     21  O   UNL     1      32.968 -22.623 -18.148  0.00  0.00    -0.453 OA
BRANCH  21  22
ATOM     22  C   UNL     1      32.873 -23.676 -17.207  0.00  0.00    +0.208 C 
BRANCH  22  23
ATOM     23  C   UNL     1      32.216 -23.135 -15.939  0.00  0.00    +0.044 C 
ATOM     24  C   UNL     1      30.693 -23.327 -15.994  0.00  0.00    +0.004 C 
ATOM     25  C   UNL     1      32.806 -23.807 -14.693  0.00  0.00    +0.004 C 
ATOM     26  C   UNL     1      30.018 -22.841 -14.714  0.00  0.00    +0.000 C 
ATOM     27  C   UNL     1      32.126 -23.321 -13.415  0.00  0.00    +0.000 C 
ATOM     28  C   UNL     1      30.613 -23.505 -13.477  0.00  0.00    +0.000 C 
ENDBRANCH  22  23
ENDBRANCH  21  22
ENDBRANCH   6  21
TORSDOF 4
ENDMDL
