MODEL 1
REMARK VINA RESULT:     -11.4      0.000      0.000
REMARK  Name = 6450813
REMARK  4 active torsions:
REMARK  status: ('A' for Active; 'I' for Inactive)
REMARK    1  A    between atoms: C_4  and  C_10
REMARK    2  A    between atoms: C_6  and  C_22
REMARK    3  A    between atoms: C_12  and  N_17
REMARK    4  A    between atoms: C_22  and  C_24
REMARK                            x       y       z     vdW  Elec       q    Type
REMARK                         _______ _______ _______ _____ _____    ______ ____
ROOT
ATOM      1  N   UNL     1      34.769 -15.937 -22.379  0.00  0.00    -0.191 N 
ATOM      2  N   UNL     1      34.779 -15.476 -21.096  0.00  0.00    -0.179 NA
ATOM      3  N   UNL     1      34.224 -15.173 -24.600  0.00  0.00    -0.231 NA
ATOM      4  C   UNL     1      35.127 -17.215 -22.841  0.00  0.00    +0.143 C 
ATOM      5  C   UNL     1      34.327 -14.947 -23.261  0.00  0.00    +0.141 C 
ATOM      6  C   UNL     1      34.062 -13.831 -22.498  0.00  0.00    +0.161 C 
ATOM      7  C   UNL     1      35.040 -17.481 -24.155  0.00  0.00    +0.020 C 
ATOM      8  C   UNL     1      34.356 -14.216 -21.185  0.00  0.00    +0.106 C 
ATOM      9  C   UNL     1      34.558 -16.360 -25.001  0.00  0.00    +0.097 C 
ENDROOT
BRANCH   4  10
ATOM     10  C   UNL     1      35.608 -18.265 -21.925  0.00  0.00    +0.003 C 
ATOM     11  C   UNL     1      34.696 -19.111 -21.291  0.00  0.00    +0.013 C 
ATOM     12  C   UNL     1      35.151 -20.104 -20.425  0.00  0.00    +0.054 C 
ATOM     13  C   UNL     1      36.975 -18.414 -21.691  0.00  0.00    -0.002 C 
ATOM     14  C   UNL     1      36.518 -20.253 -20.192  0.00  0.00    +0.015 C 
ATOM     15  C   UNL     1      37.431 -19.408 -20.825  0.00  0.00    +0.001 C 
BRANCH  12  17
ATOM     16  O   UNL     1      35.800 -22.197 -18.533  0.00  0.00    -0.275 OA
ATOM     17  N   UNL     1      34.240 -20.950 -19.790  0.00  0.00    -0.257 N 
ATOM     18  C   UNL     1      32.782 -20.750 -20.052  0.00  0.00    +0.120 C 
ATOM     19  C   UNL     1      34.629 -21.946 -18.830  0.00  0.00    +0.230 C 
ATOM     20  C   UNL     1      33.541 -22.708 -18.110  0.00  0.00    +0.095 C 
ENDBRANCH  12  17
ENDBRANCH   4  10
BRANCH   6  22
ATOM     21  O   UNL     1      33.969 -12.095 -24.070  0.00  0.00    -0.290 OA
ATOM     22  C   UNL     1      33.586 -12.572 -22.984  0.00  0.00    +0.191 C 
BRANCH  22  24
ATOM     23  S   UNL     1      32.531 -10.156 -22.353  0.00  0.00    -0.084 S 
ATOM     24  C   UNL     1      32.605 -11.829 -22.157  0.00  0.00    +0.065 C 
ATOM     25  C   UNL     1      31.752 -12.344 -21.255  0.00  0.00    +0.010 C 
ATOM     26  C   UNL     1      30.971 -11.308 -20.669  0.00  0.00    +0.008 C 
ATOM     27  C   UNL     1      31.292 -10.068 -21.174  0.00  0.00    +0.036 C 
ENDBRANCH  22  24
ENDBRANCH   6  22
TORSDOF 4
ENDMDL
MODEL 2
REMARK VINA RESULT:     -11.4      3.238      8.890
REMARK  Name = 6450813
REMARK  4 active torsions:
REMARK  status: ('A' for Active; 'I' for Inactive)
REMARK    1  A    between atoms: C_4  and  C_10
REMARK    2  A    between atoms: C_6  and  C_22
REMARK    3  A    between atoms: C_12  and  N_17
REMARK    4  A    between atoms: C_22  and  C_24
REMARK                            x       y       z     vdW  Elec       q    Type
REMARK                         _______ _______ _______ _____ _____    ______ ____
ROOT
ATOM      1  N   UNL     1      33.603 -14.490 -21.978  0.00  0.00    -0.191 N 
ATOM      2  N   UNL     1      33.870 -14.827 -20.685  0.00  0.00    -0.179 NA
ATOM      3  N   UNL     1      33.943 -15.347 -24.207  0.00  0.00    -0.231 NA
ATOM      4  C   UNL     1      32.950 -13.341 -22.455  0.00  0.00    +0.143 C 
ATOM      5  C   UNL     1      34.084 -15.465 -22.857  0.00  0.00    +0.141 C 
ATOM      6  C   UNL     1      34.662 -16.444 -22.079  0.00  0.00    +0.161 C 
ATOM      7  C   UNL     1      32.789 -13.184 -23.780  0.00  0.00    +0.020 C 
ATOM      8  C   UNL     1      34.501 -15.998 -20.763  0.00  0.00    +0.106 C 
ATOM      9  C   UNL     1      33.338 -14.277 -24.621  0.00  0.00    +0.097 C 
ENDROOT
BRANCH   4  10
ATOM     10  C   UNL     1      32.425 -12.311 -21.540  0.00  0.00    +0.003 C 
ATOM     11  C   UNL     1      32.387 -10.974 -21.940  0.00  0.00    +0.013 C 
ATOM     12  C   UNL     1      31.890 -10.000 -21.075  0.00  0.00    +0.054 C 
ATOM     13  C   UNL     1      31.965 -12.672 -20.274  0.00  0.00    -0.002 C 
ATOM     14  C   UNL     1      31.431 -10.362 -19.808  0.00  0.00    +0.015 C 
ATOM     15  C   UNL     1      31.469 -11.698 -19.407  0.00  0.00    +0.001 C 
BRANCH  12  17
ATOM     16  O   UNL     1      32.985  -7.754 -19.614  0.00  0.00    -0.275 OA
ATOM     17  N   UNL     1      31.853  -8.664 -21.474  0.00  0.00    -0.257 N 
ATOM     18  C   UNL     1      31.242  -8.332 -22.798  0.00  0.00    +0.120 C 
ATOM     19  C   UNL     1      32.452  -7.599 -20.716  0.00  0.00    +0.230 C 
ATOM     20  C   UNL     1      32.464  -6.213 -21.317  0.00  0.00    +0.095 C 
ENDBRANCH  12  17
ENDBRANCH   4  10
BRANCH   6  22
ATOM     21  O   UNL     1      35.644 -17.770 -23.744  0.00  0.00    -0.290 OA
ATOM     22  C   UNL     1      35.285 -17.641 -22.557  0.00  0.00    +0.191 C 
BRANCH  22  24
ATOM     23  S   UNL     1      37.058 -18.937 -20.969  0.00  0.00    -0.084 S 
ATOM     24  C   UNL     1      35.504 -18.747 -21.595  0.00  0.00    +0.065 C 
ATOM     25  C   UNL     1      34.591 -19.630 -21.156  0.00  0.00    +0.010 C 
ATOM     26  C   UNL     1      35.188 -20.540 -20.238  0.00  0.00    +0.008 C 
ATOM     27  C   UNL     1      36.526 -20.278 -20.045  0.00  0.00    +0.036 C 
ENDBRANCH  22  24
ENDBRANCH   6  22
TORSDOF 4
ENDMDL
MODEL 3
REMARK VINA RESULT:     -11.3      2.692      4.200
REMARK  Name = 6450813
REMARK  4 active torsions:
REMARK  status: ('A' for Active; 'I' for Inactive)
REMARK    1  A    between atoms: C_4  and  C_10
REMARK    2  A    between atoms: C_6  and  C_22
REMARK    3  A    between atoms: C_12  and  N_17
REMARK    4  A    between atoms: C_22  and  C_24
REMARK                            x       y       z     vdW  Elec       q    Type
REMARK                         _______ _______ _______ _____ _____    ______ ____
ROOT
ATOM      1  N   UNL     1      33.525 -13.135 -22.611  0.00  0.00    -0.191 N 
ATOM      2  N   UNL     1      34.159 -12.816 -23.774  0.00  0.00    -0.179 NA
ATOM      3  N   UNL     1      32.171 -12.090 -20.911  0.00  0.00    -0.231 NA
ATOM      4  C   UNL     1      33.489 -14.380 -21.960  0.00  0.00    +0.143 C 
ATOM      5  C   UNL     1      32.871 -12.021 -22.078  0.00  0.00    +0.141 C 
ATOM      6  C   UNL     1      33.101 -10.978 -22.947  0.00  0.00    +0.161 C 
ATOM      7  C   UNL     1      32.810 -14.492 -20.805  0.00  0.00    +0.020 C 
ATOM      8  C   UNL     1      33.894 -11.524 -23.962  0.00  0.00    +0.106 C 
ATOM      9  C   UNL     1      32.155 -13.249 -20.329  0.00  0.00    +0.097 C 
ENDROOT
BRANCH   4  10
ATOM     10  C   UNL     1      34.163 -15.567 -22.517  0.00  0.00    +0.003 C 
ATOM     11  C   UNL     1      34.672 -16.546 -21.663  0.00  0.00    +0.013 C 
ATOM     12  C   UNL     1      35.309 -17.669 -22.189  0.00  0.00    +0.054 C 
ATOM     13  C   UNL     1      34.290 -15.713 -23.898  0.00  0.00    -0.002 C 
ATOM     14  C   UNL     1      35.437 -17.814 -23.570  0.00  0.00    +0.015 C 
ATOM     15  C   UNL     1      34.928 -16.836 -24.426  0.00  0.00    +0.001 C 
BRANCH  12  17
ATOM     16  O   UNL     1      33.822 -19.867 -21.031  0.00  0.00    -0.275 OA
ATOM     17  N   UNL     1      35.820 -18.648 -21.336  0.00  0.00    -0.257 N 
ATOM     18  C   UNL     1      37.279 -18.617 -21.009  0.00  0.00    +0.120 C 
ATOM     19  C   UNL     1      35.032 -19.737 -20.826  0.00  0.00    +0.230 C 
ATOM     20  C   UNL     1      35.730 -20.808 -20.021  0.00  0.00    +0.095 C 
ENDBRANCH  12  17
ENDBRANCH   4  10
BRANCH   6  22
ATOM     21  O   UNL     1      31.471  -9.392 -22.378  0.00  0.00    -0.290 OA
ATOM     22  C   UNL     1      32.618  -9.638 -22.801  0.00  0.00    +0.191 C 
BRANCH  22  24
ATOM     23  S   UNL     1      32.868  -6.972 -23.219  0.00  0.00    -0.084 S 
ATOM     24  C   UNL     1      33.524  -8.524 -23.168  0.00  0.00    +0.065 C 
ATOM     25  C   UNL     1      34.832  -8.609 -23.468  0.00  0.00    +0.010 C 
ATOM     26  C   UNL     1      35.353  -7.318 -23.766  0.00  0.00    +0.008 C 
ATOM     27  C   UNL     1      34.393  -6.336 -23.669  0.00  0.00    +0.036 C 
ENDBRANCH  22  24
ENDBRANCH   6  22
TORSDOF 4
ENDMDL
MODEL 4
REMARK VINA RESULT:     -11.1      3.173      8.687
REMARK  Name = 6450813
REMARK  4 active torsions:
REMARK  status: ('A' for Active; 'I' for Inactive)
REMARK    1  A    between atoms: C_4  and  C_10
REMARK    2  A    between atoms: C_6  and  C_22
REMARK    3  A    between atoms: C_12  and  N_17
REMARK    4  A    between atoms: C_22  and  C_24
REMARK                            x       y       z     vdW  Elec       q    Type
REMARK                         _______ _______ _______ _____ _____    ______ ____
ROOT
ATOM      1  N   UNL     1      34.815 -16.236 -22.493  0.00  0.00    -0.191 N 
ATOM      2  N   UNL     1      35.254 -16.847 -23.629  0.00  0.00    -0.179 NA
ATOM      3  N   UNL     1      34.655 -16.661 -20.124  0.00  0.00    -0.231 NA
ATOM      4  C   UNL     1      34.218 -14.970 -22.367  0.00  0.00    +0.143 C 
ATOM      5  C   UNL     1      35.021 -17.053 -21.377  0.00  0.00    +0.141 C 
ATOM      6  C   UNL     1      35.616 -18.206 -21.838  0.00  0.00    +0.161 C 
ATOM      7  C   UNL     1      33.842 -14.545 -21.150  0.00  0.00    +0.020 C 
ATOM      8  C   UNL     1      35.732 -18.021 -23.220  0.00  0.00    +0.106 C 
ATOM      9  C   UNL     1      34.105 -15.490 -20.036  0.00  0.00    +0.097 C 
ENDROOT
BRANCH   4  10
ATOM     10  C   UNL     1      34.007 -14.093 -23.533  0.00  0.00    +0.003 C 
ATOM     11  C   UNL     1      34.387 -12.751 -23.475  0.00  0.00    +0.013 C 
ATOM     12  C   UNL     1      34.188 -11.921 -24.578  0.00  0.00    +0.054 C 
ATOM     13  C   UNL     1      33.429 -14.603 -24.695  0.00  0.00    -0.002 C 
ATOM     14  C   UNL     1      33.609 -12.432 -25.739  0.00  0.00    +0.015 C 
ATOM     15  C   UNL     1      33.229 -13.774 -25.798  0.00  0.00    +0.001 C 
BRANCH  12  17
ATOM     16  O   UNL     1      32.981  -9.879 -22.918  0.00  0.00    -0.275 OA
ATOM     17  N   UNL     1      34.566 -10.579 -24.521  0.00  0.00    -0.257 N 
ATOM     18  C   UNL     1      35.731 -10.131 -25.344  0.00  0.00    +0.120 C 
ATOM     19  C   UNL     1      33.946  -9.624 -23.643  0.00  0.00    +0.230 C 
ATOM     20  C   UNL     1      34.532  -8.233 -23.573  0.00  0.00    +0.095 C 
ENDBRANCH  12  17
ENDBRANCH   4  10
BRANCH   6  22
ATOM     21  O   UNL     1      37.208 -19.603 -20.835  0.00  0.00    -0.290 OA
ATOM     22  C   UNL     1      36.010 -19.327 -21.041  0.00  0.00    +0.191 C 
BRANCH  22  24
ATOM     23  S   UNL     1      35.428 -21.436 -19.442  0.00  0.00    -0.084 S 
ATOM     24  C   UNL     1      34.946 -20.171 -20.447  0.00  0.00    +0.065 C 
ATOM     25  C   UNL     1      33.620 -20.042 -20.620  0.00  0.00    +0.010 C 
ATOM     26  C   UNL     1      32.927 -21.045 -19.883  0.00  0.00    +0.008 C 
ATOM     27  C   UNL     1      33.789 -21.871 -19.196  0.00  0.00    +0.036 C 
ENDBRANCH  22  24
ENDBRANCH   6  22
TORSDOF 4
ENDMDL
MODEL 5
REMARK VINA RESULT:     -11.0      3.997      6.711
REMARK  Name = 6450813
REMARK  4 active torsions:
REMARK  status: ('A' for Active; 'I' for Inactive)
REMARK    1  A    between atoms: C_4  and  C_10
REMARK    2  A    between atoms: C_6  and  C_22
REMARK    3  A    between atoms: C_12  and  N_17
REMARK    4  A    between atoms: C_22  and  C_24
REMARK                            x       y       z     vdW  Elec       q    Type
REMARK                         _______ _______ _______ _____ _____    ______ ____
ROOT
ATOM      1  N   UNL     1      33.426 -10.029 -23.119  0.00  0.00    -0.191 N 
ATOM      2  N   UNL     1      32.305 -10.460 -22.474  0.00  0.00    -0.179 NA
ATOM      3  N   UNL     1      34.739  -8.023 -23.379  0.00  0.00    -0.231 NA
ATOM      4  C   UNL     1      34.269 -10.763 -23.971  0.00  0.00    +0.143 C 
ATOM      5  C   UNL     1      33.674  -8.682 -22.841  0.00  0.00    +0.141 C 
ATOM      6  C   UNL     1      32.677  -8.267 -21.987  0.00  0.00    +0.161 C 
ATOM      7  C   UNL     1      35.330 -10.152 -24.523  0.00  0.00    +0.020 C 
ATOM      8  C   UNL     1      31.872  -9.396 -21.800  0.00  0.00    +0.106 C 
ATOM      9  C   UNL     1      35.500  -8.722 -24.163  0.00  0.00    +0.097 C 
ENDROOT
BRANCH   4  10
ATOM     10  C   UNL     1      34.027 -12.188 -24.262  0.00  0.00    +0.003 C 
ATOM     11  C   UNL     1      34.283 -13.154 -23.289  0.00  0.00    +0.013 C 
ATOM     12  C   UNL     1      34.054 -14.502 -23.564  0.00  0.00    +0.054 C 
ATOM     13  C   UNL     1      33.541 -12.571 -25.512  0.00  0.00    -0.002 C 
ATOM     14  C   UNL     1      33.568 -14.885 -24.815  0.00  0.00    +0.015 C 
ATOM     15  C   UNL     1      33.311 -13.919 -25.789  0.00  0.00    +0.001 C 
BRANCH  12  17
ATOM     16  O   UNL     1      35.290 -17.081 -24.010  0.00  0.00    -0.275 OA
ATOM     17  N   UNL     1      34.311 -15.469 -22.591  0.00  0.00    -0.257 N 
ATOM     18  C   UNL     1      33.975 -15.155 -21.169  0.00  0.00    +0.120 C 
ATOM     19  C   UNL     1      34.965 -16.717 -22.877  0.00  0.00    +0.230 C 
ATOM     20  C   UNL     1      35.310 -17.624 -21.718  0.00  0.00    +0.095 C 
ENDBRANCH  12  17
ENDBRANCH   4  10
BRANCH   6  22
ATOM     21  O   UNL     1      32.783  -6.707 -20.240  0.00  0.00    -0.290 OA
ATOM     22  C   UNL     1      32.533  -6.954 -21.436  0.00  0.00    +0.191 C 
BRANCH  22  24
ATOM     23  S   UNL     1      30.610  -5.117 -21.961  0.00  0.00    -0.084 S 
ATOM     24  C   UNL     1      32.074  -5.866 -22.334  0.00  0.00    +0.065 C 
ATOM     25  C   UNL     1      32.700  -5.401 -23.427  0.00  0.00    +0.010 C 
ATOM     26  C   UNL     1      31.941  -4.352 -24.020  0.00  0.00    +0.008 C 
ATOM     27  C   UNL     1      30.781  -4.095 -23.325  0.00  0.00    +0.036 C 
ENDBRANCH  22  24
ENDBRANCH   6  22
TORSDOF 4
ENDMDL
MODEL 6
REMARK VINA RESULT:     -11.0      3.023      8.802
REMARK  Name = 6450813
REMARK  4 active torsions:
REMARK  status: ('A' for Active; 'I' for Inactive)
REMARK    1  A    between atoms: C_4  and  C_10
REMARK    2  A    between atoms: C_6  and  C_22
REMARK    3  A    between atoms: C_12  and  N_17
REMARK    4  A    between atoms: C_22  and  C_24
REMARK                            x       y       z     vdW  Elec       q    Type
REMARK                         _______ _______ _______ _____ _____    ______ ____
ROOT
ATOM      1  N   UNL     1      34.244 -15.399 -22.329  0.00  0.00    -0.191 N 
ATOM      2  N   UNL     1      34.330 -15.401 -20.969  0.00  0.00    -0.179 NA
ATOM      3  N   UNL     1      34.839 -16.788 -24.209  0.00  0.00    -0.231 NA
ATOM      4  C   UNL     1      33.698 -14.406 -23.159  0.00  0.00    +0.143 C 
ATOM      5  C   UNL     1      34.801 -16.564 -22.865  0.00  0.00    +0.141 C 
ATOM      6  C   UNL     1      35.239 -17.317 -21.799  0.00  0.00    +0.161 C 
ATOM      7  C   UNL     1      33.715 -14.586 -24.490  0.00  0.00    +0.020 C 
ATOM      8  C   UNL     1      34.925 -16.554 -20.668  0.00  0.00    +0.106 C 
ATOM      9  C   UNL     1      34.330 -15.855 -24.952  0.00  0.00    +0.097 C 
ENDROOT
BRANCH   4  10
ATOM     10  C   UNL     1      33.095 -13.179 -22.607  0.00  0.00    +0.003 C 
ATOM     11  C   UNL     1      33.446 -11.932 -23.128  0.00  0.00    +0.013 C 
ATOM     12  C   UNL     1      32.875 -10.772 -22.607  0.00  0.00    +0.054 C 
ATOM     13  C   UNL     1      32.173 -13.263 -21.564  0.00  0.00    -0.002 C 
ATOM     14  C   UNL     1      31.954 -10.856 -21.563  0.00  0.00    +0.015 C 
ATOM     15  C   UNL     1      31.602 -12.102 -21.041  0.00  0.00    +0.001 C 
BRANCH  12  17
ATOM     16  O   UNL     1      31.182  -8.426 -22.701  0.00  0.00    -0.275 OA
ATOM     17  N   UNL     1      33.226  -9.525 -23.127  0.00  0.00    -0.257 N 
ATOM     18  C   UNL     1      34.615  -9.336 -23.647  0.00  0.00    +0.120 C 
ATOM     19  C   UNL     1      32.346  -8.389 -23.107  0.00  0.00    +0.230 C 
ATOM     20  C   UNL     1      32.887  -7.058 -23.576  0.00  0.00    +0.095 C 
ENDBRANCH  12  17
ENDBRANCH   4  10
BRANCH   6  22
ATOM     21  O   UNL     1      36.780 -18.835 -22.702  0.00  0.00    -0.290 OA
ATOM     22  C   UNL     1      35.877 -18.596 -21.877  0.00  0.00    +0.191 C 
BRANCH  22  24
ATOM     23  S   UNL     1      33.782 -19.929 -20.793  0.00  0.00    -0.084 S 
ATOM     24  C   UNL     1      35.439 -19.654 -20.936  0.00  0.00    +0.065 C 
ATOM     25  C   UNL     1      36.223 -20.433 -20.171  0.00  0.00    +0.010 C 
ATOM     26  C   UNL     1      35.427 -21.329 -19.403  0.00  0.00    +0.008 C 
ATOM     27  C   UNL     1      34.081 -21.163 -19.643  0.00  0.00    +0.036 C 
ENDBRANCH  22  24
ENDBRANCH   6  22
TORSDOF 4
ENDMDL
MODEL 7
REMARK VINA RESULT:     -10.9      3.184      8.601
REMARK  Name = 6450813
REMARK  4 active torsions:
REMARK  status: ('A' for Active; 'I' for Inactive)
REMARK    1  A    between atoms: C_4  and  C_10
REMARK    2  A    between atoms: C_6  and  C_22
REMARK    3  A    between atoms: C_12  and  N_17
REMARK    4  A    between atoms: C_22  and  C_24
REMARK                            x       y       z     vdW  Elec       q    Type
REMARK                         _______ _______ _______ _____ _____    ______ ____
ROOT
ATOM      1  N   UNL     1      34.713 -19.816 -20.536  0.00  0.00    -0.191 N 
ATOM      2  N   UNL     1      33.356 -19.825 -20.657  0.00  0.00    -0.179 NA
ATOM      3  N   UNL     1      36.482 -21.158 -19.594  0.00  0.00    -0.231 NA
ATOM      4  C   UNL     1      35.616 -18.843 -20.998  0.00  0.00    +0.143 C 
ATOM      5  C   UNL     1      35.160 -20.947 -19.847  0.00  0.00    +0.141 C 
ATOM      6  C   UNL     1      34.040 -21.687 -19.539  0.00  0.00    +0.161 C 
ATOM      7  C   UNL     1      36.929 -19.011 -20.770  0.00  0.00    +0.020 C 
ATOM      8  C   UNL     1      32.970 -20.950 -20.058  0.00  0.00    +0.106 C 
ATOM      9  C   UNL     1      37.294 -20.244 -20.030  0.00  0.00    +0.097 C 
ENDROOT
BRANCH   4  10
ATOM     10  C   UNL     1      35.161 -17.651 -21.737  0.00  0.00    +0.003 C 
ATOM     11  C   UNL     1      34.399 -16.676 -21.091  0.00  0.00    +0.013 C 
ATOM     12  C   UNL     1      33.970 -15.549 -21.789  0.00  0.00    +0.054 C 
ATOM     13  C   UNL     1      35.492 -17.497 -23.083  0.00  0.00    -0.002 C 
ATOM     14  C   UNL     1      34.301 -15.395 -23.136  0.00  0.00    +0.015 C 
ATOM     15  C   UNL     1      35.062 -16.369 -23.783  0.00  0.00    +0.001 C 
BRANCH  12  17
ATOM     16  O   UNL     1      33.536 -12.838 -22.709  0.00  0.00    -0.275 OA
ATOM     17  N   UNL     1      33.207 -14.574 -21.144  0.00  0.00    -0.257 N 
ATOM     18  C   UNL     1      32.494 -14.946 -19.884  0.00  0.00    +0.120 C 
ATOM     19  C   UNL     1      33.002 -13.255 -21.678  0.00  0.00    +0.230 C 
ATOM     20  C   UNL     1      32.047 -12.333 -20.956  0.00  0.00    +0.095 C 
ENDBRANCH  12  17
ENDBRANCH   4  10
BRANCH   6  22
ATOM     21  O   UNL     1      33.936 -24.026 -19.427  0.00  0.00    -0.290 OA
ATOM     22  C   UNL     1      34.021 -22.932 -18.834  0.00  0.00    +0.191 C 
BRANCH  22  24
ATOM     23  S   UNL     1      32.686 -23.140 -16.485  0.00  0.00    -0.084 S 
ATOM     24  C   UNL     1      34.110 -22.900 -17.355  0.00  0.00    +0.065 C 
ATOM     25  C   UNL     1      35.214 -22.699 -16.614  0.00  0.00    +0.010 C 
ATOM     26  C   UNL     1      34.891 -22.740 -15.228  0.00  0.00    +0.008 C 
ATOM     27  C   UNL     1      33.550 -22.973 -15.015  0.00  0.00    +0.036 C 
ENDBRANCH  22  24
ENDBRANCH   6  22
TORSDOF 4
ENDMDL
MODEL 8
REMARK VINA RESULT:     -10.5      3.426      5.820
REMARK  Name = 6450813
REMARK  4 active torsions:
REMARK  status: ('A' for Active; 'I' for Inactive)
REMARK    1  A    between atoms: C_4  and  C_10
REMARK    2  A    between atoms: C_6  and  C_22
REMARK    3  A    between atoms: C_12  and  N_17
REMARK    4  A    between atoms: C_22  and  C_24
REMARK                            x       y       z     vdW  Elec       q    Type
REMARK                         _______ _______ _______ _____ _____    ______ ____
ROOT
ATOM      1  N   UNL     1      35.401 -20.519 -19.838  0.00  0.00    -0.191 N 
ATOM      2  N   UNL     1      36.713 -20.153 -19.876  0.00  0.00    -0.179 NA
ATOM      3  N   UNL     1      33.359 -20.161 -21.070  0.00  0.00    -0.231 NA
ATOM      4  C   UNL     1      34.761 -21.343 -18.898  0.00  0.00    +0.143 C 
ATOM      5  C   UNL     1      34.694 -19.946 -20.899  0.00  0.00    +0.141 C 
ATOM      6  C   UNL     1      35.602 -19.207 -21.624  0.00  0.00    +0.161 C 
ATOM      7  C   UNL     1      33.445 -21.581 -19.028  0.00  0.00    +0.020 C 
ATOM      8  C   UNL     1      36.817 -19.371 -20.950  0.00  0.00    +0.106 C 
ATOM      9  C   UNL     1      32.791 -20.924 -20.187  0.00  0.00    +0.097 C 
ENDROOT
BRANCH   4  10
ATOM     10  C   UNL     1      35.497 -21.964 -17.782  0.00  0.00    +0.003 C 
ATOM     11  C   UNL     1      34.826 -22.786 -16.874  0.00  0.00    +0.013 C 
ATOM     12  C   UNL     1      35.522 -23.374 -15.818  0.00  0.00    +0.054 C 
ATOM     13  C   UNL     1      36.864 -21.733 -17.633  0.00  0.00    -0.002 C 
ATOM     14  C   UNL     1      36.889 -23.141 -15.669  0.00  0.00    +0.015 C 
ATOM     15  C   UNL     1      37.561 -22.320 -16.577  0.00  0.00    +0.001 C 
BRANCH  12  17
ATOM     16  O   UNL     1      32.938 -22.843 -14.626  0.00  0.00    -0.275 OA
ATOM     17  N   UNL     1      34.852 -24.194 -14.909  0.00  0.00    -0.257 N 
ATOM     18  C   UNL     1      35.477 -25.499 -14.533  0.00  0.00    +0.120 C 
ATOM     19  C   UNL     1      33.550 -23.887 -14.384  0.00  0.00    +0.230 C 
ATOM     20  C   UNL     1      32.870 -24.917 -13.513  0.00  0.00    +0.095 C 
ENDBRANCH  12  17
ENDBRANCH   4  10
BRANCH   6  22
ATOM     21  O   UNL     1      35.316 -18.964 -23.937  0.00  0.00    -0.290 OA
ATOM     22  C   UNL     1      35.319 -18.447 -22.803  0.00  0.00    +0.191 C 
BRANCH  22  24
ATOM     23  S   UNL     1      34.891 -16.082 -24.055  0.00  0.00    -0.084 S 
ATOM     24  C   UNL     1      35.020 -17.003 -22.649  0.00  0.00    +0.065 C 
ATOM     25  C   UNL     1      34.836 -16.333 -21.499  0.00  0.00    +0.010 C 
ATOM     26  C   UNL     1      34.569 -14.960 -21.767  0.00  0.00    +0.008 C 
ATOM     27  C   UNL     1      34.569 -14.686 -23.117  0.00  0.00    +0.036 C 
ENDBRANCH  22  24
ENDBRANCH   6  22
TORSDOF 4
ENDMDL
MODEL 9
REMARK VINA RESULT:     -10.5      3.913      6.820
REMARK  Name = 6450813
REMARK  4 active torsions:
REMARK  status: ('A' for Active; 'I' for Inactive)
REMARK    1  A    between atoms: C_4  and  C_10
REMARK    2  A    between atoms: C_6  and  C_22
REMARK    3  A    between atoms: C_12  and  N_17
REMARK    4  A    between atoms: C_22  and  C_24
REMARK                            x       y       z     vdW  Elec       q    Type
REMARK                         _______ _______ _______ _____ _____    ______ ____
ROOT
ATOM      1  N   UNL     1      34.534 -21.246 -19.202  0.00  0.00    -0.191 N 
ATOM      2  N   UNL     1      33.204 -21.135 -19.475  0.00  0.00    -0.179 NA
ATOM      3  N   UNL     1      36.659 -20.550 -20.105  0.00  0.00    -0.231 NA
ATOM      4  C   UNL     1      35.143 -21.929 -18.135  0.00  0.00    +0.143 C 
ATOM      5  C   UNL     1      35.298 -20.574 -20.160  0.00  0.00    +0.141 C 
ATOM      6  C   UNL     1      34.408 -20.020 -21.053  0.00  0.00    +0.161 C 
ATOM      7  C   UNL     1      36.484 -21.931 -18.042  0.00  0.00    +0.020 C 
ATOM      8  C   UNL     1      33.146 -20.397 -20.583  0.00  0.00    +0.106 C 
ATOM      9  C   UNL     1      37.196 -21.189 -19.112  0.00  0.00    +0.097 C 
ENDROOT
BRANCH   4  10
ATOM     10  C   UNL     1      34.350 -22.630 -17.109  0.00  0.00    +0.003 C 
ATOM     11  C   UNL     1      34.980 -23.168 -15.986  0.00  0.00    +0.013 C 
ATOM     12  C   UNL     1      34.230 -23.831 -15.015  0.00  0.00    +0.054 C 
ATOM     13  C   UNL     1      32.969 -22.756 -17.260  0.00  0.00    -0.002 C 
ATOM     14  C   UNL     1      32.849 -23.957 -15.167  0.00  0.00    +0.015 C 
ATOM     15  C   UNL     1      32.218 -23.420 -16.289  0.00  0.00    +0.001 C 
BRANCH  12  17
ATOM     16  O   UNL     1      36.529 -25.591 -15.029  0.00  0.00    -0.275 OA
ATOM     17  N   UNL     1      34.859 -24.370 -13.892  0.00  0.00    -0.257 N 
ATOM     18  C   UNL     1      34.355 -23.984 -12.539  0.00  0.00    +0.120 C 
ATOM     19  C   UNL     1      36.024 -25.210 -13.970  0.00  0.00    +0.230 C 
ATOM     20  C   UNL     1      36.695 -25.621 -12.680  0.00  0.00    +0.095 C 
ENDBRANCH  12  17
ENDBRANCH   4  10
BRANCH   6  22
ATOM     21  O   UNL     1      35.017 -19.762 -23.302  0.00  0.00    -0.290 OA
ATOM     22  C   UNL     1      34.747 -19.238 -22.204  0.00  0.00    +0.191 C 
BRANCH  22  24
ATOM     23  S   UNL     1      34.932 -16.851 -23.473  0.00  0.00    -0.084 S 
ATOM     24  C   UNL     1      34.767 -17.763 -22.064  0.00  0.00    +0.065 C 
ATOM     25  C   UNL     1      34.666 -17.056 -20.926  0.00  0.00    +0.010 C 
ATOM     26  C   UNL     1      34.728 -15.661 -21.206  0.00  0.00    +0.008 C 
ATOM     27  C   UNL     1      34.872 -15.408 -22.552  0.00  0.00    +0.036 C 
ENDBRANCH  22  24
ENDBRANCH   6  22
TORSDOF 4
ENDMDL
