MODEL 1
REMARK VINA RESULT:     -13.4      0.000      0.000
REMARK  Name = 11581936
REMARK  5 active torsions:
REMARK  status: ('A' for Active; 'I' for Inactive)
REMARK    1  A    between atoms: C_1  and  C_9
REMARK    2  A    between atoms: C_4  and  O_19
REMARK    3  A    between atoms: C_10  and  C_14
REMARK    4  A    between atoms: O_19  and  C_20
REMARK    5  A    between atoms: C_20  and  C_22
REMARK                            x       y       z     vdW  Elec       q    Type
REMARK                         _______ _______ _______ _____ _____    ______ ____
ROOT
ATOM      1  C   UNL     1      33.796 -21.949 -18.399  0.00  0.00    +0.019 C 
ATOM      2  C   UNL     1      35.151 -22.109 -18.687  0.00  0.00    +0.005 C 
ATOM      3  C   UNL     1      33.009 -21.110 -19.189  0.00  0.00    +0.005 C 
ATOM      4  C   UNL     1      34.929 -20.597 -20.548  0.00  0.00    +0.139 C 
ATOM      5  C   UNL     1      35.719 -21.430 -19.765  0.00  0.00    +0.037 C 
ATOM      6  C   UNL     1      33.577 -20.432 -20.268  0.00  0.00    +0.037 C 
ENDROOT
BRANCH   1   9
ATOM      7  N   UNL     1      31.719 -23.515 -16.085  0.00  0.00    -0.208 N 
ATOM      8  N   UNL     1      31.887 -22.847 -17.239  0.00  0.00    -0.178 NA
ATOM      9  C   UNL     1      33.210 -22.647 -17.289  0.00  0.00    +0.100 C 
ATOM     10  C   UNL     1      33.877 -23.188 -16.170  0.00  0.00    +0.036 C 
ATOM     11  C   UNL     1      32.880 -23.745 -15.407  0.00  0.00    +0.086 C 
ATOM     12  C   UNL     1      30.394 -23.915 -15.676  0.00  0.00    +0.140 C 
BRANCH  10  14
ATOM     13  N   UNL     1      37.965 -23.261 -15.082  0.00  0.00    -0.242 NA
ATOM     14  C   UNL     1      35.261 -23.213 -15.802  0.00  0.00    +0.006 C 
ATOM     15  C   UNL     1      36.059 -22.089 -15.996  0.00  0.00    +0.021 C 
ATOM     16  C   UNL     1      35.818 -24.361 -15.247  0.00  0.00    +0.021 C 
ATOM     17  C   UNL     1      37.391 -22.164 -15.623  0.00  0.00    +0.099 C 
ATOM     18  C   UNL     1      37.161 -24.335 -14.907  0.00  0.00    +0.099 C 
ENDBRANCH  10  14
ENDBRANCH   1   9
BRANCH   4  19
ATOM     19  O   UNL     1      35.487 -19.930 -21.608  0.00  0.00    -0.468 OA
BRANCH  19  20
ATOM     20  C   UNL     1      36.224 -18.752 -21.307  0.00  0.00    +0.264 C 
BRANCH  20  22
ATOM     21  N   UNL     1      35.393 -17.482 -23.193  0.00  0.00    -0.406 NA
ATOM     22  C   UNL     1      35.498 -17.565 -21.846  0.00  0.00    +0.152 C 
ATOM     23  C   UNL     1      34.184 -15.417 -22.903  0.00  0.00    +0.026 C 
ATOM     24  C   UNL     1      34.744 -16.424 -23.716  0.00  0.00    +0.113 C 
ATOM     25  C   UNL     1      34.983 -16.630 -20.971  0.00  0.00    +0.031 C 
ATOM     26  C   UNL     1      34.316 -15.541 -21.514  0.00  0.00    +0.005 C 
ATOM     27  C   UNL     1      33.516 -14.326 -23.484  0.00  0.00    +0.002 C 
ATOM     28  C   UNL     1      34.613 -16.300 -25.097  0.00  0.00    +0.085 C 
ATOM     29  C   UNL     1      33.398 -14.227 -24.868  0.00  0.00    -0.004 C 
ATOM     30  C   UNL     1      33.948 -15.215 -25.675  0.00  0.00    -0.019 C 
ENDBRANCH  20  22
ENDBRANCH  19  20
ENDBRANCH   4  19
TORSDOF 5
ENDMDL
MODEL 2
REMARK VINA RESULT:     -13.4      0.840      1.909
REMARK  Name = 11581936
REMARK  5 active torsions:
REMARK  status: ('A' for Active; 'I' for Inactive)
REMARK    1  A    between atoms: C_1  and  C_9
REMARK    2  A    between atoms: C_4  and  O_19
REMARK    3  A    between atoms: C_10  and  C_14
REMARK    4  A    between atoms: O_19  and  C_20
REMARK    5  A    between atoms: C_20  and  C_22
REMARK                            x       y       z     vdW  Elec       q    Type
REMARK                         _______ _______ _______ _____ _____    ______ ____
ROOT
ATOM      1  C   UNL     1      33.789 -22.001 -18.329  0.00  0.00    +0.019 C 
ATOM      2  C   UNL     1      33.025 -21.165 -19.143  0.00  0.00    +0.005 C 
ATOM      3  C   UNL     1      35.148 -22.177 -18.589  0.00  0.00    +0.005 C 
ATOM      4  C   UNL     1      34.977 -20.685 -20.470  0.00  0.00    +0.139 C 
ATOM      5  C   UNL     1      33.622 -20.505 -20.217  0.00  0.00    +0.037 C 
ATOM      6  C   UNL     1      35.745 -21.516 -19.663  0.00  0.00    +0.037 C 
ENDROOT
BRANCH   1   9
ATOM      7  N   UNL     1      31.652 -23.515 -16.035  0.00  0.00    -0.208 N 
ATOM      8  N   UNL     1      31.849 -22.859 -17.191  0.00  0.00    -0.178 NA
ATOM      9  C   UNL     1      33.176 -22.681 -17.223  0.00  0.00    +0.100 C 
ATOM     10  C   UNL     1      33.817 -23.225 -16.089  0.00  0.00    +0.036 C 
ATOM     11  C   UNL     1      32.799 -23.759 -15.338  0.00  0.00    +0.086 C 
ATOM     12  C   UNL     1      30.315 -23.890 -15.643  0.00  0.00    +0.140 C 
BRANCH  10  14
ATOM     13  N   UNL     1      37.886 -23.356 -14.939  0.00  0.00    -0.242 NA
ATOM     14  C   UNL     1      35.194 -23.270 -15.701  0.00  0.00    +0.006 C 
ATOM     15  C   UNL     1      35.976 -22.119 -15.755  0.00  0.00    +0.021 C 
ATOM     16  C   UNL     1      35.761 -24.464 -15.265  0.00  0.00    +0.021 C 
ATOM     17  C   UNL     1      37.303 -22.215 -15.368  0.00  0.00    +0.099 C 
ATOM     18  C   UNL     1      37.098 -24.455 -14.899  0.00  0.00    +0.099 C 
ENDBRANCH  10  14
ENDBRANCH   1   9
BRANCH   4  19
ATOM     19  O   UNL     1      35.563 -20.035 -21.525  0.00  0.00    -0.468 OA
BRANCH  19  20
ATOM     20  C   UNL     1      36.308 -18.863 -21.222  0.00  0.00    +0.264 C 
BRANCH  20  22
ATOM     21  N   UNL     1      34.964 -16.893 -20.804  0.00  0.00    -0.406 NA
ATOM     22  C   UNL     1      35.576 -17.666 -21.731  0.00  0.00    +0.152 C 
ATOM     23  C   UNL     1      34.217 -15.460 -22.592  0.00  0.00    +0.026 C 
ATOM     24  C   UNL     1      34.294 -15.804 -21.226  0.00  0.00    +0.113 C 
ATOM     25  C   UNL     1      35.556 -17.410 -23.087  0.00  0.00    +0.031 C 
ATOM     26  C   UNL     1      34.864 -16.288 -23.518  0.00  0.00    +0.005 C 
ATOM     27  C   UNL     1      33.507 -14.317 -22.996  0.00  0.00    +0.002 C 
ATOM     28  C   UNL     1      33.650 -14.981 -20.306  0.00  0.00    +0.085 C 
ATOM     29  C   UNL     1      32.872 -13.511 -22.055  0.00  0.00    -0.004 C 
ATOM     30  C   UNL     1      32.944 -13.844 -20.708  0.00  0.00    -0.019 C 
ENDBRANCH  20  22
ENDBRANCH  19  20
ENDBRANCH   4  19
TORSDOF 5
ENDMDL
MODEL 3
REMARK VINA RESULT:     -13.2      1.007      2.066
REMARK  Name = 11581936
REMARK  5 active torsions:
REMARK  status: ('A' for Active; 'I' for Inactive)
REMARK    1  A    between atoms: C_1  and  C_9
REMARK    2  A    between atoms: C_4  and  O_19
REMARK    3  A    between atoms: C_10  and  C_14
REMARK    4  A    between atoms: O_19  and  C_20
REMARK    5  A    between atoms: C_20  and  C_22
REMARK                            x       y       z     vdW  Elec       q    Type
REMARK                         _______ _______ _______ _____ _____    ______ ____
ROOT
ATOM      1  C   UNL     1      33.589 -22.220 -17.965  0.00  0.00    +0.019 C 
ATOM      2  C   UNL     1      32.890 -21.431 -18.877  0.00  0.00    +0.005 C 
ATOM      3  C   UNL     1      34.965 -22.401 -18.109  0.00  0.00    +0.005 C 
ATOM      4  C   UNL     1      34.938 -21.006 -20.071  0.00  0.00    +0.139 C 
ATOM      5  C   UNL     1      33.567 -20.822 -19.934  0.00  0.00    +0.037 C 
ATOM      6  C   UNL     1      35.642 -21.791 -19.165  0.00  0.00    +0.037 C 
ENDROOT
BRANCH   1   9
ATOM      7  N   UNL     1      31.275 -23.544 -15.726  0.00  0.00    -0.208 N 
ATOM      8  N   UNL     1      31.555 -22.903 -16.873  0.00  0.00    -0.178 NA
ATOM      9  C   UNL     1      32.893 -22.847 -16.876  0.00  0.00    +0.100 C 
ATOM     10  C   UNL     1      33.458 -23.452 -15.734  0.00  0.00    +0.036 C 
ATOM     11  C   UNL     1      32.380 -23.896 -15.007  0.00  0.00    +0.086 C 
ATOM     12  C   UNL     1      29.902 -23.798 -15.364  0.00  0.00    +0.140 C 
BRANCH  10  14
ATOM     13  N   UNL     1      37.474 -23.962 -14.505  0.00  0.00    -0.242 NA
ATOM     14  C   UNL     1      34.816 -23.624 -15.317  0.00  0.00    +0.006 C 
ATOM     15  C   UNL     1      35.364 -24.901 -15.220  0.00  0.00    +0.021 C 
ATOM     16  C   UNL     1      35.602 -22.517 -15.007  0.00  0.00    +0.021 C 
ATOM     17  C   UNL     1      36.684 -25.014 -14.814  0.00  0.00    +0.099 C 
ATOM     18  C   UNL     1      36.910 -22.737 -14.610  0.00  0.00    +0.099 C 
ENDBRANCH  10  14
ENDBRANCH   1   9
BRANCH   4  19
ATOM     19  O   UNL     1      35.603 -20.408 -21.110  0.00  0.00    -0.468 OA
BRANCH  19  20
ATOM     20  C   UNL     1      36.302 -19.205 -20.814  0.00  0.00    +0.264 C 
BRANCH  20  22
ATOM     21  N   UNL     1      35.196 -17.052 -20.796  0.00  0.00    -0.406 NA
ATOM     22  C   UNL     1      35.668 -18.072 -21.549  0.00  0.00    +0.152 C 
ATOM     23  C   UNL     1      34.495 -15.964 -22.829  0.00  0.00    +0.026 C 
ATOM     24  C   UNL     1      34.617 -16.011 -21.425  0.00  0.00    +0.113 C 
ATOM     25  C   UNL     1      35.593 -18.114 -22.927  0.00  0.00    +0.031 C 
ATOM     26  C   UNL     1      34.997 -17.041 -23.571  0.00  0.00    +0.005 C 
ATOM     27  C   UNL     1      33.884 -14.862 -23.451  0.00  0.00    +0.002 C 
ATOM     28  C   UNL     1      34.119 -14.940 -20.687  0.00  0.00    +0.085 C 
ATOM     29  C   UNL     1      33.393 -13.805 -22.690  0.00  0.00    -0.004 C 
ATOM     30  C   UNL     1      33.511 -13.844 -21.306  0.00  0.00    -0.019 C 
ENDBRANCH  20  22
ENDBRANCH  19  20
ENDBRANCH   4  19
TORSDOF 5
ENDMDL
MODEL 4
REMARK VINA RESULT:     -12.6      1.553      3.849
REMARK  Name = 11581936
REMARK  5 active torsions:
REMARK  status: ('A' for Active; 'I' for Inactive)
REMARK    1  A    between atoms: C_1  and  C_9
REMARK    2  A    between atoms: C_4  and  O_19
REMARK    3  A    between atoms: C_10  and  C_14
REMARK    4  A    between atoms: O_19  and  C_20
REMARK    5  A    between atoms: C_20  and  C_22
REMARK                            x       y       z     vdW  Elec       q    Type
REMARK                         _______ _______ _______ _____ _____    ______ ____
ROOT
ATOM      1  C   UNL     1      34.644 -22.931 -16.676  0.00  0.00    +0.019 C 
ATOM      2  C   UNL     1      35.822 -22.365 -17.162  0.00  0.00    +0.005 C 
ATOM      3  C   UNL     1      33.461 -22.818 -17.407  0.00  0.00    +0.005 C 
ATOM      4  C   UNL     1      34.635 -21.577 -19.104  0.00  0.00    +0.139 C 
ATOM      5  C   UNL     1      35.817 -21.686 -18.380  0.00  0.00    +0.037 C 
ATOM      6  C   UNL     1      33.456 -22.140 -18.625  0.00  0.00    +0.037 C 
ENDROOT
BRANCH   1   9
ATOM      7  N   UNL     1      35.416 -24.634 -13.739  0.00  0.00    -0.208 N 
ATOM      8  N   UNL     1      35.804 -24.032 -14.876  0.00  0.00    -0.178 NA
ATOM      9  C   UNL     1      34.648 -23.631 -15.421  0.00  0.00    +0.100 C 
ATOM     10  C   UNL     1      33.533 -23.979 -14.631  0.00  0.00    +0.036 C 
ATOM     11  C   UNL     1      34.066 -24.629 -13.545  0.00  0.00    +0.086 C 
ATOM     12  C   UNL     1      36.405 -25.208 -12.859  0.00  0.00    +0.140 C 
BRANCH  10  14
ATOM     13  N   UNL     1      29.385 -23.339 -15.168  0.00  0.00    -0.242 NA
ATOM     14  C   UNL     1      32.129 -23.763 -14.812  0.00  0.00    +0.006 C 
ATOM     15  C   UNL     1      31.555 -22.546 -14.456  0.00  0.00    +0.021 C 
ATOM     16  C   UNL     1      31.327 -24.768 -15.347  0.00  0.00    +0.021 C 
ATOM     17  C   UNL     1      30.193 -22.386 -14.652  0.00  0.00    +0.099 C 
ATOM     18  C   UNL     1      29.975 -24.509 -15.503  0.00  0.00    +0.099 C 
ENDBRANCH  10  14
ENDBRANCH   1   9
BRANCH   4  19
ATOM     19  O   UNL     1      34.630 -20.910 -20.301  0.00  0.00    -0.468 OA
BRANCH  19  20
ATOM     20  C   UNL     1      35.809 -20.190 -20.637  0.00  0.00    +0.264 C 
BRANCH  20  22
ATOM     21  N   UNL     1      35.207 -17.854 -20.849  0.00  0.00    -0.406 NA
ATOM     22  C   UNL     1      35.447 -19.021 -21.491  0.00  0.00    +0.152 C 
ATOM     23  C   UNL     1      34.777 -16.840 -22.992  0.00  0.00    +0.026 C 
ATOM     24  C   UNL     1      34.877 -16.777 -21.587  0.00  0.00    +0.113 C 
ATOM     25  C   UNL     1      35.374 -19.178 -22.861  0.00  0.00    +0.031 C 
ATOM     26  C   UNL     1      35.034 -18.067 -23.618  0.00  0.00    +0.005 C 
ATOM     27  C   UNL     1      34.429 -15.696 -23.730  0.00  0.00    +0.002 C 
ATOM     28  C   UNL     1      34.622 -15.558 -20.965  0.00  0.00    +0.085 C 
ATOM     29  C   UNL     1      34.179 -14.488 -23.084  0.00  0.00    -0.004 C 
ATOM     30  C   UNL     1      34.276 -14.420 -21.699  0.00  0.00    -0.019 C 
ENDBRANCH  20  22
ENDBRANCH  19  20
ENDBRANCH   4  19
TORSDOF 5
ENDMDL
MODEL 5
REMARK VINA RESULT:     -12.0      8.039     14.825
REMARK  Name = 11581936
REMARK  5 active torsions:
REMARK  status: ('A' for Active; 'I' for Inactive)
REMARK    1  A    between atoms: C_1  and  C_9
REMARK    2  A    between atoms: C_4  and  O_19
REMARK    3  A    between atoms: C_10  and  C_14
REMARK    4  A    between atoms: O_19  and  C_20
REMARK    5  A    between atoms: C_20  and  C_22
REMARK                            x       y       z     vdW  Elec       q    Type
REMARK                         _______ _______ _______ _____ _____    ______ ____
ROOT
ATOM      1  C   UNL     1      31.501  -6.506 -22.045  0.00  0.00    +0.019 C 
ATOM      2  C   UNL     1      32.040  -6.749 -20.782  0.00  0.00    +0.005 C 
ATOM      3  C   UNL     1      31.120  -7.574 -22.858  0.00  0.00    +0.005 C 
ATOM      4  C   UNL     1      31.814  -9.118 -21.146  0.00  0.00    +0.139 C 
ATOM      5  C   UNL     1      32.196  -8.060 -20.331  0.00  0.00    +0.037 C 
ATOM      6  C   UNL     1      31.276  -8.885 -22.407  0.00  0.00    +0.037 C 
ENDROOT
BRANCH   1   9
ATOM      7  N   UNL     1      30.566  -3.204 -22.630  0.00  0.00    -0.208 N 
ATOM      8  N   UNL     1      30.426  -4.354 -21.949  0.00  0.00    -0.178 NA
ATOM      9  C   UNL     1      31.340  -5.157 -22.510  0.00  0.00    +0.100 C 
ATOM     10  C   UNL     1      32.055  -4.516 -23.543  0.00  0.00    +0.036 C 
ATOM     11  C   UNL     1      31.528  -3.248 -23.595  0.00  0.00    +0.086 C 
ATOM     12  C   UNL     1      29.731  -2.073 -22.303  0.00  0.00    +0.140 C 
BRANCH  10  14
ATOM     13  N   UNL     1      35.151  -5.862 -26.092  0.00  0.00    -0.242 NA
ATOM     14  C   UNL     1      33.102  -4.972 -24.406  0.00  0.00    +0.006 C 
ATOM     15  C   UNL     1      33.228  -4.454 -25.692  0.00  0.00    +0.021 C 
ATOM     16  C   UNL     1      34.005  -5.936 -23.965  0.00  0.00    +0.021 C 
ATOM     17  C   UNL     1      34.259  -4.928 -26.487  0.00  0.00    +0.099 C 
ATOM     18  C   UNL     1      35.001  -6.344 -24.837  0.00  0.00    +0.099 C 
ENDBRANCH  10  14
ENDBRANCH   1   9
BRANCH   4  19
ATOM     19  O   UNL     1      31.967 -10.406 -20.703  0.00  0.00    -0.468 OA
BRANCH  19  20
ATOM     20  C   UNL     1      31.342 -11.426 -21.471  0.00  0.00    +0.264 C 
BRANCH  20  22
ATOM     21  N   UNL     1      32.722 -13.054 -22.615  0.00  0.00    -0.406 NA
ATOM     22  C   UNL     1      32.186 -12.657 -21.437  0.00  0.00    +0.152 C 
ATOM     23  C   UNL     1      33.740 -14.902 -21.450  0.00  0.00    +0.026 C 
ATOM     24  C   UNL     1      33.489 -14.161 -22.623  0.00  0.00    +0.113 C 
ATOM     25  C   UNL     1      32.375 -13.317 -20.240  0.00  0.00    +0.031 C 
ATOM     26  C   UNL     1      33.166 -14.457 -20.252  0.00  0.00    +0.005 C 
ATOM     27  C   UNL     1      34.545 -16.053 -21.497  0.00  0.00    +0.002 C 
ATOM     28  C   UNL     1      34.061 -14.604 -23.813  0.00  0.00    +0.085 C 
ATOM     29  C   UNL     1      35.104 -16.475 -22.700  0.00  0.00    -0.004 C 
ATOM     30  C   UNL     1      34.861 -15.749 -23.860  0.00  0.00    -0.019 C 
ENDBRANCH  20  22
ENDBRANCH  19  20
ENDBRANCH   4  19
TORSDOF 5
ENDMDL
MODEL 6
REMARK VINA RESULT:     -12.0      1.082      3.346
REMARK  Name = 11581936
REMARK  5 active torsions:
REMARK  status: ('A' for Active; 'I' for Inactive)
REMARK    1  A    between atoms: C_1  and  C_9
REMARK    2  A    between atoms: C_4  and  O_19
REMARK    3  A    between atoms: C_10  and  C_14
REMARK    4  A    between atoms: O_19  and  C_20
REMARK    5  A    between atoms: C_20  and  C_22
REMARK                            x       y       z     vdW  Elec       q    Type
REMARK                         _______ _______ _______ _____ _____    ______ ____
ROOT
ATOM      1  C   UNL     1      35.446 -22.396 -17.386  0.00  0.00    +0.019 C 
ATOM      2  C   UNL     1      34.211 -22.349 -18.034  0.00  0.00    +0.005 C 
ATOM      3  C   UNL     1      36.547 -21.740 -17.934  0.00  0.00    +0.005 C 
ATOM      4  C   UNL     1      35.182 -20.992 -19.771  0.00  0.00    +0.139 C 
ATOM      5  C   UNL     1      34.080 -21.644 -19.230  0.00  0.00    +0.037 C 
ATOM      6  C   UNL     1      36.415 -21.035 -19.131  0.00  0.00    +0.037 C 
ENDROOT
BRANCH   1   9
ATOM      7  N   UNL     1      36.522 -24.160 -14.584  0.00  0.00    -0.208 N 
ATOM      8  N   UNL     1      36.788 -23.535 -15.744  0.00  0.00    -0.178 NA
ATOM      9  C   UNL     1      35.582 -23.121 -16.154  0.00  0.00    +0.100 C 
ATOM     10  C   UNL     1      34.557 -23.484 -15.255  0.00  0.00    +0.036 C 
ATOM     11  C   UNL     1      35.201 -24.157 -14.246  0.00  0.00    +0.086 C 
ATOM     12  C   UNL     1      37.598 -24.754 -13.828  0.00  0.00    +0.140 C 
BRANCH  10  14
ATOM     13  N   UNL     1      30.378 -22.824 -15.328  0.00  0.00    -0.242 NA
ATOM     14  C   UNL     1      33.143 -23.261 -15.280  0.00  0.00    +0.006 C 
ATOM     15  C   UNL     1      32.488 -22.780 -14.149  0.00  0.00    +0.021 C 
ATOM     16  C   UNL     1      32.411 -23.523 -16.435  0.00  0.00    +0.021 C 
ATOM     17  C   UNL     1      31.119 -22.581 -14.224  0.00  0.00    +0.099 C 
ATOM     18  C   UNL     1      31.046 -23.290 -16.408  0.00  0.00    +0.099 C 
ENDBRANCH  10  14
ENDBRANCH   1   9
BRANCH   4  19
ATOM     19  O   UNL     1      35.051 -20.299 -20.947  0.00  0.00    -0.468 OA
BRANCH  19  20
ATOM     20  C   UNL     1      36.091 -19.384 -21.268  0.00  0.00    +0.264 C 
BRANCH  20  22
ATOM     21  N   UNL     1      35.374 -17.964 -23.094  0.00  0.00    -0.406 NA
ATOM     22  C   UNL     1      35.491 -18.106 -21.753  0.00  0.00    +0.152 C 
ATOM     23  C   UNL     1      34.403 -15.792 -22.711  0.00  0.00    +0.026 C 
ATOM     24  C   UNL     1      34.837 -16.824 -23.569  0.00  0.00    +0.113 C 
ATOM     25  C   UNL     1      35.095 -17.153 -20.837  0.00  0.00    +0.031 C 
ATOM     26  C   UNL     1      34.542 -15.979 -21.330  0.00  0.00    +0.005 C 
ATOM     27  C   UNL     1      33.849 -14.615 -23.242  0.00  0.00    +0.002 C 
ATOM     28  C   UNL     1      34.698 -16.638 -24.942  0.00  0.00    +0.085 C 
ATOM     29  C   UNL     1      33.721 -14.454 -24.619  0.00  0.00    -0.004 C 
ATOM     30  C   UNL     1      34.147 -15.467 -25.470  0.00  0.00    -0.019 C 
ENDBRANCH  20  22
ENDBRANCH  19  20
ENDBRANCH   4  19
TORSDOF 5
ENDMDL
MODEL 7
REMARK VINA RESULT:     -11.4      1.400      2.319
REMARK  Name = 11581936
REMARK  5 active torsions:
REMARK  status: ('A' for Active; 'I' for Inactive)
REMARK    1  A    between atoms: C_1  and  C_9
REMARK    2  A    between atoms: C_4  and  O_19
REMARK    3  A    between atoms: C_10  and  C_14
REMARK    4  A    between atoms: O_19  and  C_20
REMARK    5  A    between atoms: C_20  and  C_22
REMARK                            x       y       z     vdW  Elec       q    Type
REMARK                         _______ _______ _______ _____ _____    ______ ____
ROOT
ATOM      1  C   UNL     1      34.373 -22.813 -16.738  0.00  0.00    +0.019 C 
ATOM      2  C   UNL     1      33.607 -22.624 -17.889  0.00  0.00    +0.005 C 
ATOM      3  C   UNL     1      35.708 -22.410 -16.714  0.00  0.00    +0.005 C 
ATOM      4  C   UNL     1      35.509 -21.631 -18.983  0.00  0.00    +0.139 C 
ATOM      5  C   UNL     1      34.179 -22.031 -19.015  0.00  0.00    +0.037 C 
ATOM      6  C   UNL     1      36.278 -21.816 -17.840  0.00  0.00    +0.037 C 
ENDROOT
BRANCH   1   9
ATOM      7  N   UNL     1      32.315 -23.928 -14.161  0.00  0.00    -0.208 N 
ATOM      8  N   UNL     1      32.496 -23.214 -15.285  0.00  0.00    -0.178 NA
ATOM      9  C   UNL     1      33.786 -23.423 -15.578  0.00  0.00    +0.100 C 
ATOM     10  C   UNL     1      34.418 -24.267 -14.642  0.00  0.00    +0.036 C 
ATOM     11  C   UNL     1      33.435 -24.578 -13.734  0.00  0.00    +0.086 C 
ATOM     12  C   UNL     1      31.019 -23.950 -13.527  0.00  0.00    +0.140 C 
BRANCH  10  14
ATOM     13  N   UNL     1      38.387 -25.709 -14.375  0.00  0.00    -0.242 NA
ATOM     14  C   UNL     1      35.761 -24.755 -14.550  0.00  0.00    +0.006 C 
ATOM     15  C   UNL     1      36.073 -26.039 -14.991  0.00  0.00    +0.021 C 
ATOM     16  C   UNL     1      36.766 -23.950 -14.022  0.00  0.00    +0.021 C 
ATOM     17  C   UNL     1      37.387 -26.464 -14.882  0.00  0.00    +0.099 C 
ATOM     18  C   UNL     1      38.049 -24.468 -13.956  0.00  0.00    +0.099 C 
ENDBRANCH  10  14
ENDBRANCH   1   9
BRANCH   4  19
ATOM     19  O   UNL     1      36.070 -21.048 -20.090  0.00  0.00    -0.468 OA
BRANCH  19  20
ATOM     20  C   UNL     1      35.237 -20.917 -21.235  0.00  0.00    +0.264 C 
BRANCH  20  22
ATOM     21  N   UNL     1      35.001 -19.229 -22.955  0.00  0.00    -0.406 NA
ATOM     22  C   UNL     1      35.174 -19.480 -21.637  0.00  0.00    +0.152 C 
ATOM     23  C   UNL     1      35.050 -16.875 -22.443  0.00  0.00    +0.026 C 
ATOM     24  C   UNL     1      34.939 -17.944 -23.355  0.00  0.00    +0.113 C 
ATOM     25  C   UNL     1      35.292 -18.501 -20.672  0.00  0.00    +0.031 C 
ATOM     26  C   UNL     1      35.228 -17.179 -21.088  0.00  0.00    +0.005 C 
ATOM     27  C   UNL     1      34.982 -15.546 -22.897  0.00  0.00    +0.002 C 
ATOM     28  C   UNL     1      34.762 -17.642 -24.703  0.00  0.00    +0.085 C 
ATOM     29  C   UNL     1      34.804 -15.271 -24.250  0.00  0.00    -0.004 C 
ATOM     30  C   UNL     1      34.694 -16.320 -25.154  0.00  0.00    -0.019 C 
ENDBRANCH  20  22
ENDBRANCH  19  20
ENDBRANCH   4  19
TORSDOF 5
ENDMDL
MODEL 8
REMARK VINA RESULT:     -11.4      2.255     10.011
REMARK  Name = 11581936
REMARK  5 active torsions:
REMARK  status: ('A' for Active; 'I' for Inactive)
REMARK    1  A    between atoms: C_1  and  C_9
REMARK    2  A    between atoms: C_4  and  O_19
REMARK    3  A    between atoms: C_10  and  C_14
REMARK    4  A    between atoms: O_19  and  C_20
REMARK    5  A    between atoms: C_20  and  C_22
REMARK                            x       y       z     vdW  Elec       q    Type
REMARK                         _______ _______ _______ _____ _____    ______ ____
ROOT
ATOM      1  C   UNL     1      34.580 -16.292 -23.070  0.00  0.00    +0.019 C 
ATOM      2  C   UNL     1      34.806 -16.021 -21.721  0.00  0.00    +0.005 C 
ATOM      3  C   UNL     1      34.810 -17.572 -23.574  0.00  0.00    +0.005 C 
ATOM      4  C   UNL     1      35.490 -18.306 -21.384  0.00  0.00    +0.139 C 
ATOM      5  C   UNL     1      35.263 -17.032 -20.875  0.00  0.00    +0.037 C 
ATOM      6  C   UNL     1      35.266 -18.583 -22.728  0.00  0.00    +0.037 C 
ENDROOT
BRANCH   1   9
ATOM      7  N   UNL     1      33.779 -14.191 -25.729  0.00  0.00    -0.208 N 
ATOM      8  N   UNL     1      34.359 -15.307 -25.256  0.00  0.00    -0.178 NA
ATOM      9  C   UNL     1      34.110 -15.252 -23.942  0.00  0.00    +0.100 C 
ATOM     10  C   UNL     1      33.373 -14.102 -23.584  0.00  0.00    +0.036 C 
ATOM     11  C   UNL     1      33.174 -13.435 -24.768  0.00  0.00    +0.086 C 
ATOM     12  C   UNL     1      33.838 -13.896 -27.140  0.00  0.00    +0.140 C 
BRANCH  10  14
ATOM     13  N   UNL     1      31.943 -12.714 -19.853  0.00  0.00    -0.242 NA
ATOM     14  C   UNL     1      32.890 -13.633 -22.321  0.00  0.00    +0.006 C 
ATOM     15  C   UNL     1      32.568 -12.289 -22.149  0.00  0.00    +0.021 C 
ATOM     16  C   UNL     1      32.736 -14.515 -21.256  0.00  0.00    +0.021 C 
ATOM     17  C   UNL     1      32.104 -11.885 -20.908  0.00  0.00    +0.099 C 
ATOM     18  C   UNL     1      32.265 -14.012 -20.055  0.00  0.00    +0.099 C 
ENDBRANCH  10  14
ENDBRANCH   1   9
BRANCH   4  19
ATOM     19  O   UNL     1      35.938 -19.299 -20.552  0.00  0.00    -0.468 OA
BRANCH  19  20
ATOM     20  C   UNL     1      35.409 -20.601 -20.767  0.00  0.00    +0.264 C 
BRANCH  20  22
ATOM     21  N   UNL     1      36.405 -21.325 -18.682  0.00  0.00    -0.406 NA
ATOM     22  C   UNL     1      35.297 -21.310 -19.458  0.00  0.00    +0.152 C 
ATOM     23  C   UNL     1      35.164 -22.592 -17.051  0.00  0.00    +0.026 C 
ATOM     24  C   UNL     1      36.342 -21.956 -17.494  0.00  0.00    +0.113 C 
ATOM     25  C   UNL     1      34.101 -21.904 -19.109  0.00  0.00    +0.031 C 
ATOM     26  C   UNL     1      34.039 -22.554 -17.884  0.00  0.00    +0.005 C 
ATOM     27  C   UNL     1      35.135 -23.242 -15.805  0.00  0.00    +0.002 C 
ATOM     28  C   UNL     1      37.460 -21.994 -16.665  0.00  0.00    +0.085 C 
ATOM     29  C   UNL     1      36.267 -23.265 -14.995  0.00  0.00    -0.004 C 
ATOM     30  C   UNL     1      37.431 -22.641 -15.426  0.00  0.00    -0.019 C 
ENDBRANCH  20  22
ENDBRANCH  19  20
ENDBRANCH   4  19
TORSDOF 5
ENDMDL
MODEL 9
REMARK VINA RESULT:     -11.4      3.372     10.530
REMARK  Name = 11581936
REMARK  5 active torsions:
REMARK  status: ('A' for Active; 'I' for Inactive)
REMARK    1  A    between atoms: C_1  and  C_9
REMARK    2  A    between atoms: C_4  and  O_19
REMARK    3  A    between atoms: C_10  and  C_14
REMARK    4  A    between atoms: O_19  and  C_20
REMARK    5  A    between atoms: C_20  and  C_22
REMARK                            x       y       z     vdW  Elec       q    Type
REMARK                         _______ _______ _______ _____ _____    ______ ____
ROOT
ATOM      1  C   UNL     1      33.522 -13.906 -22.253  0.00  0.00    +0.019 C 
ATOM      2  C   UNL     1      33.528 -14.432 -23.545  0.00  0.00    +0.005 C 
ATOM      3  C   UNL     1      34.220 -14.552 -21.233  0.00  0.00    +0.005 C 
ATOM      4  C   UNL     1      34.927 -16.242 -22.795  0.00  0.00    +0.139 C 
ATOM      5  C   UNL     1      34.233 -15.604 -23.816  0.00  0.00    +0.037 C 
ATOM      6  C   UNL     1      34.926 -15.724 -21.505  0.00  0.00    +0.037 C 
ENDROOT
BRANCH   1   9
ATOM      7  N   UNL     1      31.375 -11.427 -21.083  0.00  0.00    -0.208 N 
ATOM      8  N   UNL     1      31.805 -12.700 -21.072  0.00  0.00    -0.178 NA
ATOM      9  C   UNL     1      32.796 -12.699 -21.973  0.00  0.00    +0.100 C 
ATOM     10  C   UNL     1      32.991 -11.428 -22.552  0.00  0.00    +0.036 C 
ATOM     11  C   UNL     1      32.053 -10.624 -21.952  0.00  0.00    +0.086 C 
ATOM     12  C   UNL     1      30.288 -11.031 -20.221  0.00  0.00    +0.140 C 
BRANCH  10  14
ATOM     13  N   UNL     1      35.719 -10.048 -25.477  0.00  0.00    -0.242 NA
ATOM     14  C   UNL     1      33.915 -10.961 -23.541  0.00  0.00    +0.006 C 
ATOM     15  C   UNL     1      34.199 -11.740 -24.660  0.00  0.00    +0.021 C 
ATOM     16  C   UNL     1      34.536  -9.724 -23.394  0.00  0.00    +0.021 C 
ATOM     17  C   UNL     1      35.099 -11.243 -25.589  0.00  0.00    +0.099 C 
ATOM     18  C   UNL     1      35.421  -9.317 -24.379  0.00  0.00    +0.099 C 
ENDBRANCH  10  14
ENDBRANCH   1   9
BRANCH   4  19
ATOM     19  O   UNL     1      35.621 -17.394 -23.062  0.00  0.00    -0.468 OA
BRANCH  19  20
ATOM     20  C   UNL     1      34.874 -18.604 -23.071  0.00  0.00    +0.264 C 
BRANCH  20  22
ATOM     21  N   UNL     1      34.205 -20.064 -21.260  0.00  0.00    -0.406 NA
ATOM     22  C   UNL     1      35.223 -19.409 -21.864  0.00  0.00    +0.152 C 
ATOM     23  C   UNL     1      35.789 -20.900 -19.648  0.00  0.00    +0.026 C 
ATOM     24  C   UNL     1      34.482 -20.801 -20.167  0.00  0.00    +0.113 C 
ATOM     25  C   UNL     1      36.533 -19.446 -21.429  0.00  0.00    +0.031 C 
ATOM     26  C   UNL     1      36.814 -20.206 -20.303  0.00  0.00    +0.005 C 
ATOM     27  C   UNL     1      36.041 -21.678 -18.505  0.00  0.00    +0.002 C 
ATOM     28  C   UNL     1      33.463 -21.491 -19.516  0.00  0.00    +0.085 C 
ATOM     29  C   UNL     1      35.004 -22.358 -17.872  0.00  0.00    -0.004 C 
ATOM     30  C   UNL     1      33.714 -22.264 -18.378  0.00  0.00    -0.019 C 
ENDBRANCH  20  22
ENDBRANCH  19  20
ENDBRANCH   4  19
TORSDOF 5
ENDMDL
