MODEL 1
REMARK VINA RESULT:     -11.2      0.000      0.000
REMARK  Name = 54674461
REMARK  5 active torsions:
REMARK  status: ('A' for Active; 'I' for Inactive)
REMARK    1  A    between atoms: N_2  and  C_29
REMARK    2  A    between atoms: C_7  and  C_14
REMARK    3  A    between atoms: C_15  and  N_21
REMARK    4  A    between atoms: C_22  and  O_24
REMARK    5  A    between atoms: C_29  and  C_31
REMARK                            x       y       z     vdW  Elec       q    Type
REMARK                         _______ _______ _______ _____ _____    ______ ____
ROOT
ATOM      1  F   UNL     1      29.471 -22.916 -15.320  0.00  0.00    -0.207 F 
ATOM      2  N   UNL     1      34.667 -24.280 -15.316  0.00  0.00    -0.193 N 
ATOM      3  N   UNL     1      35.213 -23.638 -16.364  0.00  0.00    -0.168 NA
ATOM      4  N   UNL     1      32.532 -24.551 -14.210  0.00  0.00    -0.251 NA
ATOM      5  C   UNL     1      32.977 -23.182 -16.190  0.00  0.00    +0.133 C 
ATOM      6  C   UNL     1      33.332 -24.044 -15.165  0.00  0.00    +0.133 C 
ATOM      7  C   UNL     1      34.180 -22.971 -16.892  0.00  0.00    +0.172 C 
ATOM      8  C   UNL     1      31.641 -22.772 -16.271  0.00  0.00    +0.015 C 
ATOM      9  C   UNL     1      30.762 -23.266 -15.306  0.00  0.00    +0.139 C 
ATOM     10  C   UNL     1      31.252 -24.127 -14.329  0.00  0.00    +0.182 C 
ENDROOT
BRANCH   7  14
ATOM     11  N   UNL     1      33.261 -21.779 -18.724  0.00  0.00    -0.326 NA
ATOM     12  N   UNL     1      35.643 -21.827 -18.366  0.00  0.00    -0.326 NA
ATOM     13  N   UNL     1      32.347 -20.587 -20.556  0.00  0.00    -0.334 N 
ATOM     14  C   UNL     1      34.372 -22.146 -18.059  0.00  0.00    +0.156 C 
ATOM     15  C   UNL     1      34.729 -20.613 -20.233  0.00  0.00    +0.210 C 
ATOM     16  C   UNL     1      33.476 -21.009 -19.811  0.00  0.00    +0.193 C 
ATOM     17  C   UNL     1      35.786 -21.055 -19.465  0.00  0.00    +0.193 C 
ATOM     18  H   UNL     1      31.443 -20.858 -20.274  0.00  0.00    +0.144 HD
ATOM     19  H   UNL     1      32.466 -20.023 -21.353  0.00  0.00    +0.144 HD
ATOM     20  N   UNL     1      37.101 -20.685 -19.843  0.00  0.00    -0.334 N 
ATOM     21  H   UNL     1      37.870 -20.990 -19.310  0.00  0.00    +0.144 HD
ATOM     22  H   UNL     1      37.243 -20.125 -20.640  0.00  0.00    +0.144 HD
BRANCH  15  24
ATOM     23  O   UNL     1      35.697 -17.781 -20.506  0.00  0.00    -0.226 OA
ATOM     24  N   UNL     1      34.916 -19.817 -21.366  0.00  0.00    -0.258 N 
ATOM     25  C   UNL     1      35.369 -18.504 -21.439  0.00  0.00    +0.402 C 
ATOM     26  H   UNL     1      34.698 -20.242 -22.227  0.00  0.00    +0.154 HD
BRANCH  25  27
ATOM     27  O   UNL     1      35.402 -18.110 -22.750  0.00  0.00    -0.431 OA
ATOM     28  C   UNL     1      35.037 -16.748 -23.006  0.00  0.00    +0.257 C 
ENDBRANCH  25  27
ENDBRANCH  15  24
ENDBRANCH   7  14
BRANCH   2  29
ATOM     29  C   UNL     1      35.496 -25.121 -14.486  0.00  0.00    +0.146 C 
BRANCH  29  31
ATOM     30  F   UNL     1      37.741 -23.391 -14.465  0.00  0.00    -0.204 F 
ATOM     31  C   UNL     1      35.991 -24.429 -13.241  0.00  0.00    +0.027 C 
ATOM     32  C   UNL     1      37.104 -23.589 -13.302  0.00  0.00    +0.138 C 
ATOM     33  C   UNL     1      35.335 -24.629 -12.026  0.00  0.00    -0.000 C 
ATOM     34  C   UNL     1      37.559 -22.950 -12.150  0.00  0.00    +0.029 C 
ATOM     35  C   UNL     1      35.791 -23.989 -10.873  0.00  0.00    -0.000 C 
ATOM     36  C   UNL     1      36.903 -23.150 -10.935  0.00  0.00    +0.002 C 
ENDBRANCH  29  31
ENDBRANCH   2  29
TORSDOF 5
ENDMDL
MODEL 2
REMARK VINA RESULT:     -11.0      1.280      2.249
REMARK  Name = 54674461
REMARK  5 active torsions:
REMARK  status: ('A' for Active; 'I' for Inactive)
REMARK    1  A    between atoms: N_2  and  C_29
REMARK    2  A    between atoms: C_7  and  C_14
REMARK    3  A    between atoms: C_15  and  N_21
REMARK    4  A    between atoms: C_22  and  O_24
REMARK    5  A    between atoms: C_29  and  C_31
REMARK                            x       y       z     vdW  Elec       q    Type
REMARK                         _______ _______ _______ _____ _____    ______ ____
ROOT
ATOM      1  F   UNL     1      28.581 -22.728 -15.880  0.00  0.00    -0.207 F 
ATOM      2  N   UNL     1      33.669 -24.077 -14.809  0.00  0.00    -0.193 N 
ATOM      3  N   UNL     1      34.402 -23.556 -15.810  0.00  0.00    -0.168 NA
ATOM      4  N   UNL     1      31.369 -24.224 -14.072  0.00  0.00    -0.251 NA
ATOM      5  C   UNL     1      32.180 -23.086 -16.084  0.00  0.00    +0.133 C 
ATOM      6  C   UNL     1      32.333 -23.827 -14.922  0.00  0.00    +0.133 C 
ATOM      7  C   UNL     1      33.491 -22.954 -16.582  0.00  0.00    +0.172 C 
ATOM      8  C   UNL     1      30.886 -22.690 -16.444  0.00  0.00    +0.015 C 
ATOM      9  C   UNL     1      29.843 -23.072 -15.599  0.00  0.00    +0.139 C 
ATOM     10  C   UNL     1      30.138 -23.817 -14.462  0.00  0.00    +0.182 C 
ENDROOT
BRANCH   7  14
ATOM     11  N   UNL     1      35.223 -22.220 -18.026  0.00  0.00    -0.326 NA
ATOM     12  N   UNL     1      32.917 -21.738 -18.534  0.00  0.00    -0.326 NA
ATOM     13  N   UNL     1      36.948 -21.485 -19.472  0.00  0.00    -0.334 N 
ATOM     14  C   UNL     1      33.899 -22.266 -17.781  0.00  0.00    +0.156 C 
ATOM     15  C   UNL     1      34.661 -20.982 -20.012  0.00  0.00    +0.210 C 
ATOM     16  C   UNL     1      35.570 -21.568 -19.155  0.00  0.00    +0.193 C 
ATOM     17  C   UNL     1      33.335 -21.099 -19.648  0.00  0.00    +0.193 C 
ATOM     18  H   UNL     1      37.616 -21.895 -18.875  0.00  0.00    +0.144 HD
ATOM     19  H   UNL     1      37.239 -21.018 -20.288  0.00  0.00    +0.144 HD
ATOM     20  N   UNL     1      32.349 -20.518 -20.483  0.00  0.00    -0.334 N 
ATOM     21  H   UNL     1      31.397 -20.589 -20.244  0.00  0.00    +0.144 HD
ATOM     22  H   UNL     1      32.617 -20.043 -21.303  0.00  0.00    +0.144 HD
BRANCH  15  24
ATOM     23  O   UNL     1      36.402 -18.561 -20.383  0.00  0.00    -0.226 OA
ATOM     24  N   UNL     1      35.056 -20.311 -21.172  0.00  0.00    -0.258 N 
ATOM     25  C   UNL     1      35.869 -19.188 -21.290  0.00  0.00    +0.402 C 
ATOM     26  H   UNL     1      34.715 -20.682 -22.018  0.00  0.00    +0.154 HD
BRANCH  25  27
ATOM     27  O   UNL     1      35.999 -18.862 -22.613  0.00  0.00    -0.431 OA
ATOM     28  C   UNL     1      34.920 -19.258 -23.467  0.00  0.00    +0.257 C 
ENDBRANCH  25  27
ENDBRANCH  15  24
ENDBRANCH   7  14
BRANCH   2  29
ATOM     29  C   UNL     1      34.325 -24.818 -13.757  0.00  0.00    +0.146 C 
BRANCH  29  31
ATOM     30  F   UNL     1      36.270 -22.981 -12.821  0.00  0.00    -0.204 F 
ATOM     31  C   UNL     1      35.804 -24.997 -13.987  0.00  0.00    +0.027 C 
ATOM     32  C   UNL     1      36.708 -24.053 -13.497  0.00  0.00    +0.138 C 
ATOM     33  C   UNL     1      36.270 -26.109 -14.688  0.00  0.00    -0.000 C 
ATOM     34  C   UNL     1      38.076 -24.221 -13.710  0.00  0.00    +0.029 C 
ATOM     35  C   UNL     1      37.639 -26.277 -14.901  0.00  0.00    -0.000 C 
ATOM     36  C   UNL     1      38.542 -25.333 -14.413  0.00  0.00    +0.002 C 
ENDBRANCH  29  31
ENDBRANCH   2  29
TORSDOF 5
ENDMDL
MODEL 3
REMARK VINA RESULT:     -10.9      1.368      4.613
REMARK  Name = 54674461
REMARK  5 active torsions:
REMARK  status: ('A' for Active; 'I' for Inactive)
REMARK    1  A    between atoms: N_2  and  C_29
REMARK    2  A    between atoms: C_7  and  C_14
REMARK    3  A    between atoms: C_15  and  N_21
REMARK    4  A    between atoms: C_22  and  O_24
REMARK    5  A    between atoms: C_29  and  C_31
REMARK                            x       y       z     vdW  Elec       q    Type
REMARK                         _______ _______ _______ _____ _____    ______ ____
ROOT
ATOM      1  F   UNL     1      37.744 -23.228 -13.771  0.00  0.00    -0.207 F 
ATOM      2  N   UNL     1      32.694 -24.035 -15.415  0.00  0.00    -0.193 N 
ATOM      3  N   UNL     1      32.598 -23.426 -16.610  0.00  0.00    -0.168 NA
ATOM      4  N   UNL     1      34.308 -24.437 -13.658  0.00  0.00    -0.251 NA
ATOM      5  C   UNL     1      34.699 -23.195 -15.732  0.00  0.00    +0.133 C 
ATOM      6  C   UNL     1      33.928 -23.929 -14.844  0.00  0.00    +0.133 C 
ATOM      7  C   UNL     1      33.821 -22.917 -16.799  0.00  0.00    +0.172 C 
ATOM      8  C   UNL     1      36.030 -22.935 -15.387  0.00  0.00    +0.015 C 
ATOM      9  C   UNL     1      36.483 -23.438 -14.166  0.00  0.00    +0.139 C 
ATOM     10  C   UNL     1      35.602 -24.160 -13.368  0.00  0.00    +0.182 C 
ENDROOT
BRANCH   7  14
ATOM     11  N   UNL     1      33.068 -21.660 -18.663  0.00  0.00    -0.326 NA
ATOM     12  N   UNL     1      35.419 -22.072 -18.333  0.00  0.00    -0.326 NA
ATOM     13  N   UNL     1      32.321 -20.404 -20.527  0.00  0.00    -0.334 N 
ATOM     14  C   UNL     1      34.119 -22.175 -17.998  0.00  0.00    +0.156 C 
ATOM     15  C   UNL     1      34.674 -20.795 -20.233  0.00  0.00    +0.210 C 
ATOM     16  C   UNL     1      33.383 -20.973 -19.781  0.00  0.00    +0.193 C 
ATOM     17  C   UNL     1      35.662 -21.373 -19.462  0.00  0.00    +0.193 C 
ATOM     18  H   UNL     1      31.390 -20.517 -20.224  0.00  0.00    +0.144 HD
ATOM     19  H   UNL     1      32.513 -19.895 -21.347  0.00  0.00    +0.144 HD
ATOM     20  N   UNL     1      37.011 -21.230 -19.870  0.00  0.00    -0.334 N 
ATOM     21  H   UNL     1      37.733 -21.633 -19.336  0.00  0.00    +0.144 HD
ATOM     22  H   UNL     1      37.226 -20.727 -20.689  0.00  0.00    +0.144 HD
BRANCH  15  24
ATOM     23  O   UNL     1      35.571 -17.954 -20.621  0.00  0.00    -0.226 OA
ATOM     24  N   UNL     1      34.963 -20.080 -21.398  0.00  0.00    -0.258 N 
ATOM     25  C   UNL     1      35.378 -18.758 -21.524  0.00  0.00    +0.402 C 
ATOM     26  H   UNL     1      34.861 -20.578 -22.241  0.00  0.00    +0.154 HD
BRANCH  25  27
ATOM     27  O   UNL     1      35.549 -18.463 -22.849  0.00  0.00    -0.431 OA
ATOM     28  C   UNL     1      35.053 -17.189 -23.279  0.00  0.00    +0.257 C 
ENDBRANCH  25  27
ENDBRANCH  15  24
ENDBRANCH   7  14
BRANCH   2  29
ATOM     29  C   UNL     1      31.543 -24.713 -14.867  0.00  0.00    +0.146 C 
BRANCH  29  31
ATOM     30  F   UNL     1      30.740 -22.193 -13.848  0.00  0.00    -0.204 F 
ATOM     31  C   UNL     1      30.235 -24.056 -15.231  0.00  0.00    +0.027 C 
ATOM     32  C   UNL     1      29.902 -22.813 -14.692  0.00  0.00    +0.138 C 
ATOM     33  C   UNL     1      29.356 -24.692 -16.108  0.00  0.00    -0.000 C 
ATOM     34  C   UNL     1      28.692 -22.207 -15.030  0.00  0.00    +0.029 C 
ATOM     35  C   UNL     1      28.146 -24.086 -16.445  0.00  0.00    -0.000 C 
ATOM     36  C   UNL     1      27.813 -22.844 -15.906  0.00  0.00    +0.002 C 
ENDBRANCH  29  31
ENDBRANCH   2  29
TORSDOF 5
ENDMDL
MODEL 4
REMARK VINA RESULT:     -10.9      1.364      4.833
REMARK  Name = 54674461
REMARK  5 active torsions:
REMARK  status: ('A' for Active; 'I' for Inactive)
REMARK    1  A    between atoms: N_2  and  C_29
REMARK    2  A    between atoms: C_7  and  C_14
REMARK    3  A    between atoms: C_15  and  N_21
REMARK    4  A    between atoms: C_22  and  O_24
REMARK    5  A    between atoms: C_29  and  C_31
REMARK                            x       y       z     vdW  Elec       q    Type
REMARK                         _______ _______ _______ _____ _____    ______ ____
ROOT
ATOM      1  F   UNL     1      37.740 -23.175 -13.776  0.00  0.00    -0.207 F 
ATOM      2  N   UNL     1      32.707 -24.035 -15.446  0.00  0.00    -0.193 N 
ATOM      3  N   UNL     1      32.612 -23.427 -16.642  0.00  0.00    -0.168 NA
ATOM      4  N   UNL     1      34.316 -24.419 -13.680  0.00  0.00    -0.251 NA
ATOM      5  C   UNL     1      34.705 -23.175 -15.753  0.00  0.00    +0.133 C 
ATOM      6  C   UNL     1      33.937 -23.915 -14.868  0.00  0.00    +0.133 C 
ATOM      7  C   UNL     1      33.830 -22.906 -16.824  0.00  0.00    +0.172 C 
ATOM      8  C   UNL     1      36.032 -22.901 -15.400  0.00  0.00    +0.015 C 
ATOM      9  C   UNL     1      36.483 -23.398 -14.177  0.00  0.00    +0.139 C 
ATOM     10  C   UNL     1      35.605 -24.128 -13.383  0.00  0.00    +0.182 C 
ENDROOT
BRANCH   7  14
ATOM     11  N   UNL     1      35.427 -22.062 -18.361  0.00  0.00    -0.326 NA
ATOM     12  N   UNL     1      33.076 -21.640 -18.681  0.00  0.00    -0.326 NA
ATOM     13  N   UNL     1      37.017 -21.217 -19.899  0.00  0.00    -0.334 N 
ATOM     14  C   UNL     1      34.127 -22.162 -18.022  0.00  0.00    +0.156 C 
ATOM     15  C   UNL     1      34.681 -20.773 -20.252  0.00  0.00    +0.210 C 
ATOM     16  C   UNL     1      35.669 -21.358 -19.486  0.00  0.00    +0.193 C 
ATOM     17  C   UNL     1      33.390 -20.948 -19.797  0.00  0.00    +0.193 C 
ATOM     18  H   UNL     1      37.739 -21.626 -19.369  0.00  0.00    +0.144 HD
ATOM     19  H   UNL     1      37.232 -20.712 -20.716  0.00  0.00    +0.144 HD
ATOM     20  N   UNL     1      32.327 -20.371 -20.536  0.00  0.00    -0.334 N 
ATOM     21  H   UNL     1      31.398 -20.483 -20.230  0.00  0.00    +0.144 HD
ATOM     22  H   UNL     1      32.519 -19.858 -21.354  0.00  0.00    +0.144 HD
BRANCH  15  24
ATOM     23  O   UNL     1      35.577 -17.928 -20.616  0.00  0.00    -0.226 OA
ATOM     24  N   UNL     1      34.969 -20.047 -21.410  0.00  0.00    -0.258 N 
ATOM     25  C   UNL     1      35.383 -18.724 -21.526  0.00  0.00    +0.402 C 
ATOM     26  H   UNL     1      34.865 -20.538 -22.258  0.00  0.00    +0.154 HD
BRANCH  25  27
ATOM     27  O   UNL     1      35.552 -18.417 -22.849  0.00  0.00    -0.431 OA
ATOM     28  C   UNL     1      35.055 -17.140 -23.266  0.00  0.00    +0.257 C 
ENDBRANCH  25  27
ENDBRANCH  15  24
ENDBRANCH   7  14
BRANCH   2  29
ATOM     29  C   UNL     1      31.560 -24.724 -14.904  0.00  0.00    +0.146 C 
BRANCH  29  31
ATOM     30  F   UNL     1      30.789 -22.208 -13.850  0.00  0.00    -0.204 F 
ATOM     31  C   UNL     1      30.250 -24.057 -15.239  0.00  0.00    +0.027 C 
ATOM     32  C   UNL     1      29.934 -22.816 -14.684  0.00  0.00    +0.138 C 
ATOM     33  C   UNL     1      29.353 -24.681 -16.106  0.00  0.00    -0.000 C 
ATOM     34  C   UNL     1      28.722 -22.201 -14.996  0.00  0.00    +0.029 C 
ATOM     35  C   UNL     1      28.140 -24.065 -16.418  0.00  0.00    -0.000 C 
ATOM     36  C   UNL     1      27.824 -22.826 -15.862  0.00  0.00    +0.002 C 
ENDBRANCH  29  31
ENDBRANCH   2  29
TORSDOF 5
ENDMDL
MODEL 5
REMARK VINA RESULT:     -10.7      3.971      7.652
REMARK  Name = 54674461
REMARK  5 active torsions:
REMARK  status: ('A' for Active; 'I' for Inactive)
REMARK    1  A    between atoms: N_2  and  C_29
REMARK    2  A    between atoms: C_7  and  C_14
REMARK    3  A    between atoms: C_15  and  N_21
REMARK    4  A    between atoms: C_22  and  O_24
REMARK    5  A    between atoms: C_29  and  C_31
REMARK                            x       y       z     vdW  Elec       q    Type
REMARK                         _______ _______ _______ _____ _____    ______ ____
ROOT
ATOM      1  F   UNL     1      30.759 -23.986 -12.425  0.00  0.00    -0.207 F 
ATOM      2  N   UNL     1      33.144 -22.826 -17.097  0.00  0.00    -0.193 N 
ATOM      3  N   UNL     1      34.433 -23.176 -16.945  0.00  0.00    -0.168 NA
ATOM      4  N   UNL     1      31.066 -22.803 -15.859  0.00  0.00    -0.251 NA
ATOM      5  C   UNL     1      33.233 -23.597 -15.042  0.00  0.00    +0.133 C 
ATOM      6  C   UNL     1      32.380 -23.055 -15.990  0.00  0.00    +0.133 C 
ATOM      7  C   UNL     1      34.482 -23.645 -15.693  0.00  0.00    +0.172 C 
ATOM      8  C   UNL     1      32.699 -23.931 -13.792  0.00  0.00    +0.015 C 
ATOM      9  C   UNL     1      31.338 -23.691 -13.595  0.00  0.00    +0.139 C 
ATOM     10  C   UNL     1      30.595 -23.141 -14.635  0.00  0.00    +0.182 C 
ENDROOT
BRANCH   7  14
ATOM     11  N   UNL     1      36.850 -23.548 -15.612  0.00  0.00    -0.326 NA
ATOM     12  N   UNL     1      35.640 -25.113 -14.234  0.00  0.00    -0.326 NA
ATOM     13  N   UNL     1      39.215 -23.456 -15.527  0.00  0.00    -0.334 N 
ATOM     14  C   UNL     1      35.726 -24.129 -15.149  0.00  0.00    +0.156 C 
ATOM     15  C   UNL     1      38.044 -25.031 -14.139  0.00  0.00    +0.210 C 
ATOM     16  C   UNL     1      37.996 -24.026 -15.083  0.00  0.00    +0.193 C 
ATOM     17  C   UNL     1      36.823 -25.543 -13.748  0.00  0.00    +0.193 C 
ATOM     18  H   UNL     1      39.206 -22.737 -16.200  0.00  0.00    +0.144 HD
ATOM     19  H   UNL     1      40.071 -23.778 -15.162  0.00  0.00    +0.144 HD
ATOM     20  N   UNL     1      36.801 -26.579 -12.782  0.00  0.00    -0.334 N 
ATOM     21  H   UNL     1      35.942 -26.959 -12.488  0.00  0.00    +0.144 HD
ATOM     22  H   UNL     1      37.645 -26.919 -12.406  0.00  0.00    +0.144 HD
BRANCH  15  24
ATOM     23  O   UNL     1      40.478 -26.143 -15.507  0.00  0.00    -0.226 OA
ATOM     24  N   UNL     1      39.250 -25.504 -13.615  0.00  0.00    -0.258 N 
ATOM     25  C   UNL     1      40.352 -26.011 -14.296  0.00  0.00    +0.402 C 
ATOM     26  H   UNL     1      39.331 -25.473 -12.634  0.00  0.00    +0.154 HD
BRANCH  25  27
ATOM     27  O   UNL     1      41.321 -26.358 -13.392  0.00  0.00    -0.431 OA
ATOM     28  C   UNL     1      41.721 -27.733 -13.397  0.00  0.00    +0.257 C 
ENDBRANCH  25  27
ENDBRANCH  15  24
ENDBRANCH   7  14
BRANCH   2  29
ATOM     29  C   UNL     1      32.702 -22.266 -18.352  0.00  0.00    +0.146 C 
BRANCH  29  31
ATOM     30  F   UNL     1      32.220 -20.175 -20.204  0.00  0.00    -0.204 F 
ATOM     31  C   UNL     1      33.802 -21.572 -19.117  0.00  0.00    +0.027 C 
ATOM     32  C   UNL     1      33.493 -20.549 -20.014  0.00  0.00    +0.138 C 
ATOM     33  C   UNL     1      35.130 -21.954 -18.926  0.00  0.00    -0.000 C 
ATOM     34  C   UNL     1      34.512 -19.909 -20.719  0.00  0.00    +0.029 C 
ATOM     35  C   UNL     1      36.149 -21.314 -19.632  0.00  0.00    -0.000 C 
ATOM     36  C   UNL     1      35.840 -20.292 -20.529  0.00  0.00    +0.002 C 
ENDBRANCH  29  31
ENDBRANCH   2  29
TORSDOF 5
ENDMDL
MODEL 6
REMARK VINA RESULT:     -10.4      1.932      5.127
REMARK  Name = 54674461
REMARK  5 active torsions:
REMARK  status: ('A' for Active; 'I' for Inactive)
REMARK    1  A    between atoms: N_2  and  C_29
REMARK    2  A    between atoms: C_7  and  C_14
REMARK    3  A    between atoms: C_15  and  N_21
REMARK    4  A    between atoms: C_22  and  O_24
REMARK    5  A    between atoms: C_29  and  C_31
REMARK                            x       y       z     vdW  Elec       q    Type
REMARK                         _______ _______ _______ _____ _____    ______ ____
ROOT
ATOM      1  F   UNL     1      38.072 -23.752 -11.201  0.00  0.00    -0.207 F 
ATOM      2  N   UNL     1      33.379 -24.393 -13.735  0.00  0.00    -0.193 N 
ATOM      3  N   UNL     1      33.542 -23.838 -14.949  0.00  0.00    -0.168 NA
ATOM      4  N   UNL     1      34.613 -24.787 -11.691  0.00  0.00    -0.251 NA
ATOM      5  C   UNL     1      35.452 -23.667 -13.700  0.00  0.00    +0.133 C 
ATOM      6  C   UNL     1      34.489 -24.319 -12.945  0.00  0.00    +0.133 C 
ATOM      7  C   UNL     1      34.805 -23.398 -14.923  0.00  0.00    +0.172 C 
ATOM      8  C   UNL     1      36.708 -23.455 -13.120  0.00  0.00    +0.015 C 
ATOM      9  C   UNL     1      36.897 -23.920 -11.818  0.00  0.00    +0.139 C 
ATOM     10  C   UNL     1      35.843 -24.559 -11.173  0.00  0.00    +0.182 C 
ENDROOT
BRANCH   7  14
ATOM     11  N   UNL     1      36.388 -21.888 -15.839  0.00  0.00    -0.326 NA
ATOM     12  N   UNL     1      34.803 -23.014 -17.263  0.00  0.00    -0.326 NA
ATOM     13  N   UNL     1      37.966 -20.381 -16.758  0.00  0.00    -0.334 N 
ATOM     14  C   UNL     1      35.363 -22.731 -16.072  0.00  0.00    +0.156 C 
ATOM     15  C   UNL     1      36.400 -21.483 -18.211  0.00  0.00    +0.210 C 
ATOM     16  C   UNL     1      36.884 -21.280 -16.935  0.00  0.00    +0.193 C 
ATOM     17  C   UNL     1      35.348 -22.370 -18.316  0.00  0.00    +0.193 C 
ATOM     18  H   UNL     1      38.329 -20.219 -15.857  0.00  0.00    +0.144 HD
ATOM     19  H   UNL     1      38.355 -19.920 -17.536  0.00  0.00    +0.144 HD
ATOM     20  N   UNL     1      34.801 -22.625 -19.598  0.00  0.00    -0.334 N 
ATOM     21  H   UNL     1      34.050 -23.253 -19.697  0.00  0.00    +0.144 HD
ATOM     22  H   UNL     1      35.172 -22.171 -20.390  0.00  0.00    +0.144 HD
BRANCH  15  24
ATOM     23  O   UNL     1      35.108 -19.701 -20.257  0.00  0.00    -0.226 OA
ATOM     24  N   UNL     1      36.937 -20.833 -19.324  0.00  0.00    -0.258 N 
ATOM     25  C   UNL     1      36.292 -20.014 -20.246  0.00  0.00    +0.402 C 
ATOM     26  H   UNL     1      37.900 -20.972 -19.477  0.00  0.00    +0.154 HD
BRANCH  25  27
ATOM     27  O   UNL     1      37.196 -19.584 -21.179  0.00  0.00    -0.431 OA
ATOM     28  C   UNL     1      36.742 -18.557 -22.069  0.00  0.00    +0.257 C 
ENDBRANCH  25  27
ENDBRANCH  15  24
ENDBRANCH   7  14
BRANCH   2  29
ATOM     29  C   UNL     1      32.109 -24.987 -13.388  0.00  0.00    +0.146 C 
BRANCH  29  31
ATOM     30  F   UNL     1      30.127 -26.466 -14.773  0.00  0.00    -0.204 F 
ATOM     31  C   UNL     1      30.938 -24.342 -14.086  0.00  0.00    +0.027 C 
ATOM     32  C   UNL     1      29.998 -25.132 -14.750  0.00  0.00    +0.138 C 
ATOM     33  C   UNL     1      30.795 -22.955 -14.068  0.00  0.00    -0.000 C 
ATOM     34  C   UNL     1      28.916 -24.533 -15.394  0.00  0.00    +0.029 C 
ATOM     35  C   UNL     1      29.712 -22.357 -14.713  0.00  0.00    -0.000 C 
ATOM     36  C   UNL     1      28.773 -23.145 -15.377  0.00  0.00    +0.002 C 
ENDBRANCH  29  31
ENDBRANCH   2  29
TORSDOF 5
ENDMDL
MODEL 7
REMARK VINA RESULT:      -9.9      1.281      2.192
REMARK  Name = 54674461
REMARK  5 active torsions:
REMARK  status: ('A' for Active; 'I' for Inactive)
REMARK    1  A    between atoms: N_2  and  C_29
REMARK    2  A    between atoms: C_7  and  C_14
REMARK    3  A    between atoms: C_15  and  N_21
REMARK    4  A    between atoms: C_22  and  O_24
REMARK    5  A    between atoms: C_29  and  C_31
REMARK                            x       y       z     vdW  Elec       q    Type
REMARK                         _______ _______ _______ _____ _____    ______ ____
ROOT
ATOM      1  F   UNL     1      31.118 -23.940 -15.403  0.00  0.00    -0.207 F 
ATOM      2  N   UNL     1      36.469 -23.537 -15.664  0.00  0.00    -0.193 N 
ATOM      3  N   UNL     1      36.724 -22.761 -16.732  0.00  0.00    -0.168 NA
ATOM      4  N   UNL     1      34.596 -24.479 -14.456  0.00  0.00    -0.251 NA
ATOM      5  C   UNL     1      34.473 -23.056 -16.446  0.00  0.00    +0.133 C 
ATOM      6  C   UNL     1      35.139 -23.747 -15.446  0.00  0.00    +0.133 C 
ATOM      7  C   UNL     1      35.506 -22.471 -17.204  0.00  0.00    +0.172 C 
ATOM      8  C   UNL     1      33.074 -23.105 -16.457  0.00  0.00    +0.015 C 
ATOM      9  C   UNL     1      32.452 -23.849 -15.454  0.00  0.00    +0.139 C 
ATOM     10  C   UNL     1      33.243 -24.496 -14.509  0.00  0.00    +0.182 C 
ENDROOT
BRANCH   7  14
ATOM     11  N   UNL     1      36.484 -21.060 -18.840  0.00  0.00    -0.326 NA
ATOM     12  N   UNL     1      34.119 -21.522 -18.876  0.00  0.00    -0.326 NA
ATOM     13  N   UNL     1      37.455 -19.650 -20.477  0.00  0.00    -0.334 N 
ATOM     14  C   UNL     1      35.361 -21.638 -18.372  0.00  0.00    +0.156 C 
ATOM     15  C   UNL     1      35.092 -20.085 -20.545  0.00  0.00    +0.210 C 
ATOM     16  C   UNL     1      36.312 -20.287 -19.932  0.00  0.00    +0.193 C 
ATOM     17  C   UNL     1      34.019 -20.734 -19.967  0.00  0.00    +0.193 C 
ATOM     18  H   UNL     1      38.336 -19.779 -20.057  0.00  0.00    +0.144 HD
ATOM     19  H   UNL     1      37.368 -19.080 -21.274  0.00  0.00    +0.144 HD
ATOM     20  N   UNL     1      32.736 -20.568 -20.546  0.00  0.00    -0.334 N 
ATOM     21  H   UNL     1      31.956 -21.021 -20.151  0.00  0.00    +0.144 HD
ATOM     22  H   UNL     1      32.625 -19.999 -21.342  0.00  0.00    +0.144 HD
BRANCH  15  24
ATOM     23  O   UNL     1      35.345 -17.109 -20.870  0.00  0.00    -0.226 OA
ATOM     24  N   UNL     1      34.950 -19.275 -21.674  0.00  0.00    -0.258 N 
ATOM     25  C   UNL     1      35.079 -17.893 -21.772  0.00  0.00    +0.402 C 
ATOM     26  H   UNL     1      34.731 -19.744 -22.512  0.00  0.00    +0.154 HD
BRANCH  25  27
ATOM     27  O   UNL     1      34.859 -17.510 -23.067  0.00  0.00    -0.431 OA
ATOM     28  C   UNL     1      34.910 -16.101 -23.323  0.00  0.00    +0.257 C 
ENDBRANCH  25  27
ENDBRANCH  15  24
ENDBRANCH   7  14
BRANCH   2  29
ATOM     29  C   UNL     1      37.566 -24.055 -14.882  0.00  0.00    +0.146 C 
BRANCH  29  31
ATOM     30  F   UNL     1      37.043 -26.446 -13.453  0.00  0.00    -0.204 F 
ATOM     31  C   UNL     1      37.283 -24.084 -13.401  0.00  0.00    +0.027 C 
ATOM     32  C   UNL     1      37.033 -25.298 -12.760  0.00  0.00    +0.138 C 
ATOM     33  C   UNL     1      37.270 -22.896 -12.671  0.00  0.00    -0.000 C 
ATOM     34  C   UNL     1      36.772 -25.323 -11.391  0.00  0.00    +0.029 C 
ATOM     35  C   UNL     1      37.008 -22.921 -11.301  0.00  0.00    -0.000 C 
ATOM     36  C   UNL     1      36.758 -24.134 -10.661  0.00  0.00    +0.002 C 
ENDBRANCH  29  31
ENDBRANCH   2  29
TORSDOF 5
ENDMDL
MODEL 8
REMARK VINA RESULT:      -8.9      9.157     14.062
REMARK  Name = 54674461
REMARK  5 active torsions:
REMARK  status: ('A' for Active; 'I' for Inactive)
REMARK    1  A    between atoms: N_2  and  C_29
REMARK    2  A    between atoms: C_7  and  C_14
REMARK    3  A    between atoms: C_15  and  N_21
REMARK    4  A    between atoms: C_22  and  O_24
REMARK    5  A    between atoms: C_29  and  C_31
REMARK                            x       y       z     vdW  Elec       q    Type
REMARK                         _______ _______ _______ _____ _____    ______ ____
ROOT
ATOM      1  F   UNL     1      31.531 -11.073 -17.299  0.00  0.00    -0.207 F 
ATOM      2  N   UNL     1      32.101  -9.300 -22.337  0.00  0.00    -0.193 N 
ATOM      3  N   UNL     1      32.515 -10.361 -23.052  0.00  0.00    -0.168 NA
ATOM      4  N   UNL     1      31.493  -8.709 -20.072  0.00  0.00    -0.251 NA
ATOM      5  C   UNL     1      32.210 -10.916 -20.853  0.00  0.00    +0.133 C 
ATOM      6  C   UNL     1      31.903  -9.574 -21.016  0.00  0.00    +0.133 C 
ATOM      7  C   UNL     1      32.579 -11.342 -22.145  0.00  0.00    +0.172 C 
ATOM      8  C   UNL     1      32.090 -11.466 -19.571  0.00  0.00    +0.015 C 
ATOM      9  C   UNL     1      31.668 -10.616 -18.549  0.00  0.00    +0.139 C 
ATOM     10  C   UNL     1      31.393  -9.286 -18.850  0.00  0.00    +0.182 C 
ENDROOT
BRANCH   7  14
ATOM     11  N   UNL     1      32.742 -13.021 -23.811  0.00  0.00    -0.326 NA
ATOM     12  N   UNL     1      33.588 -13.414 -21.590  0.00  0.00    -0.326 NA
ATOM     13  N   UNL     1      32.908 -14.701 -25.472  0.00  0.00    -0.334 N 
ATOM     14  C   UNL     1      32.993 -12.665 -22.537  0.00  0.00    +0.156 C 
ATOM     15  C   UNL     1      33.761 -15.132 -23.267  0.00  0.00    +0.210 C 
ATOM     16  C   UNL     1      33.141 -14.266 -24.144  0.00  0.00    +0.193 C 
ATOM     17  C   UNL     1      33.961 -14.648 -21.990  0.00  0.00    +0.193 C 
ATOM     18  H   UNL     1      32.467 -14.100 -26.116  0.00  0.00    +0.144 HD
ATOM     19  H   UNL     1      33.187 -15.602 -25.751  0.00  0.00    +0.144 HD
ATOM     20  N   UNL     1      34.592 -15.487 -21.038  0.00  0.00    -0.334 N 
ATOM     21  H   UNL     1      34.744 -15.163 -20.121  0.00  0.00    +0.144 HD
ATOM     22  H   UNL     1      34.876 -16.395 -21.295  0.00  0.00    +0.144 HD
BRANCH  15  24
ATOM     23  O   UNL     1      35.344 -16.079 -25.639  0.00  0.00    -0.226 OA
ATOM     24  N   UNL     1      34.159 -16.417 -23.645  0.00  0.00    -0.258 N 
ATOM     25  C   UNL     1      34.896 -16.804 -24.760  0.00  0.00    +0.402 C 
ATOM     26  H   UNL     1      33.881 -17.145 -23.043  0.00  0.00    +0.154 HD
BRANCH  25  27
ATOM     27  O   UNL     1      35.060 -18.163 -24.743  0.00  0.00    -0.431 OA
ATOM     28  C   UNL     1      34.924 -18.797 -23.465  0.00  0.00    +0.257 C 
ENDBRANCH  25  27
ENDBRANCH  15  24
ENDBRANCH   7  14
BRANCH   2  29
ATOM     29  C   UNL     1      31.913  -8.028 -22.995  0.00  0.00    +0.146 C 
BRANCH  29  31
ATOM     30  F   UNL     1      32.004  -5.805 -24.750  0.00  0.00    -0.204 F 
ATOM     31  C   UNL     1      33.202  -7.403 -23.466  0.00  0.00    +0.027 C 
ATOM     32  C   UNL     1      33.174  -6.309 -24.331  0.00  0.00    +0.138 C 
ATOM     33  C   UNL     1      34.424  -7.920 -23.036  0.00  0.00    -0.000 C 
ATOM     34  C   UNL     1      34.367  -5.732 -24.764  0.00  0.00    +0.029 C 
ATOM     35  C   UNL     1      35.618  -7.343 -23.470  0.00  0.00    -0.000 C 
ATOM     36  C   UNL     1      35.590  -6.249 -24.335  0.00  0.00    +0.002 C 
ENDBRANCH  29  31
ENDBRANCH   2  29
TORSDOF 5
ENDMDL
MODEL 9
REMARK VINA RESULT:      -8.9      4.369      8.044
REMARK  Name = 54674461
REMARK  5 active torsions:
REMARK  status: ('A' for Active; 'I' for Inactive)
REMARK    1  A    between atoms: N_2  and  C_29
REMARK    2  A    between atoms: C_7  and  C_14
REMARK    3  A    between atoms: C_15  and  N_21
REMARK    4  A    between atoms: C_22  and  O_24
REMARK    5  A    between atoms: C_29  and  C_31
REMARK                            x       y       z     vdW  Elec       q    Type
REMARK                         _______ _______ _______ _____ _____    ______ ____
ROOT
ATOM      1  F   UNL     1      34.193 -22.165 -19.138  0.00  0.00    -0.207 F 
ATOM      2  N   UNL     1      32.128 -23.690 -14.419  0.00  0.00    -0.193 N 
ATOM      3  N   UNL     1      33.146 -24.244 -13.737  0.00  0.00    -0.168 NA
ATOM      4  N   UNL     1      31.669 -22.648 -16.554  0.00  0.00    -0.251 NA
ATOM      5  C   UNL     1      33.829 -23.522 -15.799  0.00  0.00    +0.133 C 
ATOM      6  C   UNL     1      32.479 -23.241 -15.658  0.00  0.00    +0.133 C 
ATOM      7  C   UNL     1      34.179 -24.138 -14.581  0.00  0.00    +0.172 C 
ATOM      8  C   UNL     1      34.453 -23.159 -16.998  0.00  0.00    +0.015 C 
ATOM      9  C   UNL     1      33.664 -22.539 -17.967  0.00  0.00    +0.139 C 
ATOM     10  C   UNL     1      32.317 -22.317 -17.696  0.00  0.00    +0.182 C 
ENDROOT
BRANCH   7  14
ATOM     11  N   UNL     1      36.098 -23.981 -13.197  0.00  0.00    -0.326 NA
ATOM     12  N   UNL     1      35.943 -25.693 -14.886  0.00  0.00    -0.326 NA
ATOM     13  N   UNL     1      38.018 -23.828 -11.818  0.00  0.00    -0.334 N 
ATOM     14  C   UNL     1      35.478 -24.632 -14.200  0.00  0.00    +0.156 C 
ATOM     15  C   UNL     1      37.901 -25.548 -13.492  0.00  0.00    +0.210 C 
ATOM     16  C   UNL     1      37.312 -24.468 -12.868  0.00  0.00    +0.193 C 
ATOM     17  C   UNL     1      37.163 -26.128 -14.505  0.00  0.00    +0.193 C 
ATOM     18  H   UNL     1      37.618 -23.054 -11.358  0.00  0.00    +0.144 HD
ATOM     19  H   UNL     1      38.905 -24.156 -11.549  0.00  0.00    +0.144 HD
ATOM     20  N   UNL     1      37.709 -27.242 -15.189  0.00  0.00    -0.334 N 
ATOM     21  H   UNL     1      37.201 -27.671 -15.915  0.00  0.00    +0.144 HD
ATOM     22  H   UNL     1      38.597 -27.585 -14.939  0.00  0.00    +0.144 HD
BRANCH  15  24
ATOM     23  O   UNL     1      40.497 -25.590 -15.004  0.00  0.00    -0.226 OA
ATOM     24  N   UNL     1      39.162 -26.024 -13.127  0.00  0.00    -0.258 N 
ATOM     25  C   UNL     1      40.339 -26.020 -13.868  0.00  0.00    +0.402 C 
ATOM     26  H   UNL     1      39.227 -26.414 -12.225  0.00  0.00    +0.154 HD
BRANCH  25  27
ATOM     27  O   UNL     1      41.342 -26.584 -13.126  0.00  0.00    -0.431 OA
ATOM     28  C   UNL     1      41.730 -27.911 -13.500  0.00  0.00    +0.257 C 
ENDBRANCH  25  27
ENDBRANCH  15  24
ENDBRANCH   7  14
BRANCH   2  29
ATOM     29  C   UNL     1      30.819 -23.623 -13.813  0.00  0.00    +0.146 C 
BRANCH  29  31
ATOM     30  F   UNL     1      30.083 -25.849 -15.406  0.00  0.00    -0.204 F 
ATOM     31  C   UNL     1      29.696 -23.580 -14.819  0.00  0.00    +0.027 C 
ATOM     32  C   UNL     1      29.387 -24.715 -15.571  0.00  0.00    +0.138 C 
ATOM     33  C   UNL     1      28.966 -22.406 -14.998  0.00  0.00    -0.000 C 
ATOM     34  C   UNL     1      28.349 -24.673 -16.501  0.00  0.00    +0.029 C 
ATOM     35  C   UNL     1      27.928 -22.364 -15.929  0.00  0.00    -0.000 C 
ATOM     36  C   UNL     1      27.619 -23.497 -16.680  0.00  0.00    +0.002 C 
ENDBRANCH  29  31
ENDBRANCH   2  29
TORSDOF 5
ENDMDL
