MODEL 1
REMARK VINA RESULT:     -12.6      0.000      0.000
REMARK  Name = 46926973
REMARK  4 active torsions:
REMARK  status: ('A' for Active; 'I' for Inactive)
REMARK    1  A    between atoms: C_4  and  C_17
REMARK    2  A    between atoms: C_6  and  C_13
REMARK    3  A    between atoms: C_17  and  C_19
REMARK    4  A    between atoms: C_21  and  C_26
REMARK                            x       y       z     vdW  Elec       q    Type
REMARK                         _______ _______ _______ _____ _____    ______ ____
ROOT
ATOM      1  O   UNL     1      36.793 -18.861 -22.501  0.00  0.00    -0.274 OA
ATOM      2  N   UNL     1      34.509 -19.253 -22.100  0.00  0.00    -0.269 N 
ATOM      3  N   UNL     1      33.330 -20.485 -20.460  0.00  0.00    -0.229 NA
ATOM      4  C   UNL     1      35.608 -18.713 -22.782  0.00  0.00    +0.232 C 
ATOM      5  C   UNL     1      34.515 -20.070 -20.963  0.00  0.00    +0.134 C 
ATOM      6  C   UNL     1      34.566 -21.657 -18.744  0.00  0.00    +0.038 C 
ATOM      7  C   UNL     1      35.747 -20.401 -20.421  0.00  0.00    +0.035 C 
ATOM      8  C   UNL     1      35.764 -21.211 -19.291  0.00  0.00    +0.006 C 
ATOM      9  C   UNL     1      33.387 -21.271 -19.361  0.00  0.00    +0.102 C 
ATOM     10  H   UNL     1      33.622 -19.031 -22.466  0.00  0.00    +0.156 HD
ENDROOT
BRANCH   6  13
ATOM     11  N   UNL     1      35.697 -22.545 -16.863  0.00  0.00    -0.241 NA
ATOM     12  N   UNL     1      33.424 -24.000 -16.103  0.00  0.00    -0.239 NA
ATOM     13  C   UNL     1      34.551 -22.500 -17.572  0.00  0.00    +0.102 C 
ATOM     14  C   UNL     1      33.434 -23.214 -17.198  0.00  0.00    +0.118 C 
ATOM     15  C   UNL     1      35.686 -23.330 -15.768  0.00  0.00    +0.119 C 
ATOM     16  C   UNL     1      34.570 -24.045 -15.394  0.00  0.00    +0.120 C 
ENDBRANCH   6  13
BRANCH   4  17
ATOM     17  C   UNL     1      35.153 -17.878 -23.969  0.00  0.00    +0.113 C 
BRANCH  17  19
ATOM     18  N   UNL     1      33.608 -14.431 -24.237  0.00  0.00    -0.244 NA
ATOM     19  C   UNL     1      34.662 -16.506 -23.583  0.00  0.00    +0.006 C 
ATOM     20  C   UNL     1      34.332 -14.768 -21.955  0.00  0.00    -0.004 C 
ATOM     21  C   UNL     1      33.752 -14.011 -22.960  0.00  0.00    +0.077 C 
ATOM     22  C   UNL     1      34.793 -16.039 -22.281  0.00  0.00    -0.005 C 
ATOM     23  C   UNL     1      34.068 -15.671 -24.516  0.00  0.00    +0.095 C 
ATOM     24  C   UNL     1      34.474 -14.268 -20.558  0.00  0.00    +0.033 C 
BRANCH  21  26
ATOM     25  N   UNL     1      32.264 -10.104 -22.248  0.00  0.00    -0.248 NA
ATOM     26  C   UNL     1      33.245 -12.679 -22.717  0.00  0.00    +0.020 C 
ATOM     27  C   UNL     1      32.264 -12.470 -21.753  0.00  0.00    +0.016 C 
ATOM     28  C   UNL     1      33.735 -11.602 -23.447  0.00  0.00    +0.022 C 
ATOM     29  C   UNL     1      31.812 -11.175 -21.559  0.00  0.00    +0.059 C 
ATOM     30  C   UNL     1      33.217 -10.346 -23.177  0.00  0.00    +0.098 C 
ATOM     31  C   UNL     1      30.760 -10.913 -20.532  0.00  0.00    +0.052 C 
ENDBRANCH  21  26
ENDBRANCH  17  19
ENDBRANCH   4  17
TORSDOF 4
ENDMDL
MODEL 2
REMARK VINA RESULT:     -12.5      1.424      2.188
REMARK  Name = 46926973
REMARK  4 active torsions:
REMARK  status: ('A' for Active; 'I' for Inactive)
REMARK    1  A    between atoms: C_4  and  C_17
REMARK    2  A    between atoms: C_6  and  C_13
REMARK    3  A    between atoms: C_17  and  C_19
REMARK    4  A    between atoms: C_21  and  C_26
REMARK                            x       y       z     vdW  Elec       q    Type
REMARK                         _______ _______ _______ _____ _____    ______ ____
ROOT
ATOM      1  O   UNL     1      33.920 -20.066 -21.673  0.00  0.00    -0.274 OA
ATOM      2  N   UNL     1      36.021 -20.026 -20.617  0.00  0.00    -0.269 N 
ATOM      3  N   UNL     1      36.868 -21.003 -18.636  0.00  0.00    -0.229 NA
ATOM      4  C   UNL     1      35.091 -19.705 -21.615  0.00  0.00    +0.232 C 
ATOM      5  C   UNL     1      35.827 -20.818 -19.479  0.00  0.00    +0.134 C 
ATOM      6  C   UNL     1      35.412 -22.370 -17.273  0.00  0.00    +0.038 C 
ATOM      7  C   UNL     1      34.569 -21.367 -19.290  0.00  0.00    +0.035 C 
ATOM      8  C   UNL     1      34.365 -22.156 -18.163  0.00  0.00    +0.006 C 
ATOM      9  C   UNL     1      36.632 -21.776 -17.552  0.00  0.00    +0.102 C 
ATOM     10  H   UNL     1      36.923 -19.649 -20.731  0.00  0.00    +0.156 HD
ENDROOT
BRANCH   6  13
ATOM     11  N   UNL     1      36.361 -23.575 -15.470  0.00  0.00    -0.241 NA
ATOM     12  N   UNL     1      33.820 -24.300 -14.533  0.00  0.00    -0.239 NA
ATOM     13  C   UNL     1      35.232 -23.184 -16.094  0.00  0.00    +0.102 C 
ATOM     14  C   UNL     1      33.984 -23.540 -15.634  0.00  0.00    +0.118 C 
ATOM     15  C   UNL     1      36.197 -24.334 -14.369  0.00  0.00    +0.119 C 
ATOM     16  C   UNL     1      34.949 -24.691 -13.908  0.00  0.00    +0.120 C 
ENDBRANCH   6  13
BRANCH   4  17
ATOM     17  C   UNL     1      35.721 -18.817 -22.678  0.00  0.00    +0.113 C 
BRANCH  17  19
ATOM     18  N   UNL     1      34.541 -15.414 -21.512  0.00  0.00    -0.244 NA
ATOM     19  C   UNL     1      35.149 -17.424 -22.710  0.00  0.00    +0.006 C 
ATOM     20  C   UNL     1      34.185 -15.568 -23.898  0.00  0.00    -0.004 C 
ATOM     21  C   UNL     1      34.123 -14.896 -22.689  0.00  0.00    +0.077 C 
ATOM     22  C   UNL     1      34.709 -16.857 -23.900  0.00  0.00    -0.005 C 
ATOM     23  C   UNL     1      35.044 -16.667 -21.553  0.00  0.00    +0.095 C 
ATOM     24  C   UNL     1      33.713 -14.963 -25.176  0.00  0.00    +0.033 C 
BRANCH  21  26
ATOM     25  N   UNL     1      32.571 -10.960 -22.391  0.00  0.00    -0.248 NA
ATOM     26  C   UNL     1      33.594 -13.554 -22.587  0.00  0.00    +0.020 C 
ATOM     27  C   UNL     1      32.606 -13.262 -21.653  0.00  0.00    +0.016 C 
ATOM     28  C   UNL     1      34.071 -12.551 -23.424  0.00  0.00    +0.022 C 
ATOM     29  C   UNL     1      32.132 -11.960 -21.596  0.00  0.00    +0.059 C 
ATOM     30  C   UNL     1      33.531 -11.282 -23.288  0.00  0.00    +0.098 C 
ATOM     31  C   UNL     1      31.072 -11.611 -20.605  0.00  0.00    +0.052 C 
ENDBRANCH  21  26
ENDBRANCH  17  19
ENDBRANCH   4  17
TORSDOF 4
ENDMDL
MODEL 3
REMARK VINA RESULT:     -12.3      1.991      3.708
REMARK  Name = 46926973
REMARK  4 active torsions:
REMARK  status: ('A' for Active; 'I' for Inactive)
REMARK    1  A    between atoms: C_4  and  C_17
REMARK    2  A    between atoms: C_6  and  C_13
REMARK    3  A    between atoms: C_17  and  C_19
REMARK    4  A    between atoms: C_21  and  C_26
REMARK                            x       y       z     vdW  Elec       q    Type
REMARK                         _______ _______ _______ _____ _____    ______ ____
ROOT
ATOM      1  O   UNL     1      33.549 -20.510 -20.613  0.00  0.00    -0.274 OA
ATOM      2  N   UNL     1      35.274 -21.237 -19.189  0.00  0.00    -0.269 N 
ATOM      3  N   UNL     1      35.309 -22.470 -17.170  0.00  0.00    -0.229 NA
ATOM      4  C   UNL     1      34.736 -20.595 -20.313  0.00  0.00    +0.232 C 
ATOM      5  C   UNL     1      34.590 -21.916 -18.173  0.00  0.00    +0.134 C 
ATOM      6  C   UNL     1      33.225 -23.233 -16.212  0.00  0.00    +0.038 C 
ATOM      7  C   UNL     1      33.209 -21.978 -18.263  0.00  0.00    +0.035 C 
ATOM      8  C   UNL     1      32.521 -22.650 -17.259  0.00  0.00    +0.006 C 
ATOM      9  C   UNL     1      34.605 -23.115 -16.213  0.00  0.00    +0.102 C 
ATOM     10  H   UNL     1      36.255 -21.208 -19.104  0.00  0.00    +0.156 HD
ENDROOT
BRANCH   6  13
ATOM     11  N   UNL     1      31.242 -24.226 -15.383  0.00  0.00    -0.241 NA
ATOM     12  N   UNL     1      32.526 -24.952 -12.999  0.00  0.00    -0.239 NA
ATOM     13  C   UNL     1      32.539 -23.938 -15.155  0.00  0.00    +0.102 C 
ATOM     14  C   UNL     1      33.170 -24.295 -13.984  0.00  0.00    +0.118 C 
ATOM     15  C   UNL     1      30.599 -24.884 -14.398  0.00  0.00    +0.119 C 
ATOM     16  C   UNL     1      31.229 -25.240 -13.227  0.00  0.00    +0.120 C 
ENDBRANCH   6  13
BRANCH   4  17
ATOM     17  C   UNL     1      35.836 -19.984 -21.167  0.00  0.00    +0.113 C 
BRANCH  17  19
ATOM     18  N   UNL     1      34.922 -17.576 -23.942  0.00  0.00    -0.244 NA
ATOM     19  C   UNL     1      35.415 -18.719 -21.870  0.00  0.00    +0.006 C 
ATOM     20  C   UNL     1      34.754 -16.407 -21.832  0.00  0.00    -0.004 C 
ATOM     21  C   UNL     1      34.661 -16.468 -23.213  0.00  0.00    +0.077 C 
ATOM     22  C   UNL     1      35.139 -17.560 -21.156  0.00  0.00    -0.005 C 
ATOM     23  C   UNL     1      35.293 -18.676 -23.250  0.00  0.00    +0.095 C 
ATOM     24  C   UNL     1      34.459 -15.165 -21.063  0.00  0.00    +0.033 C 
BRANCH  21  26
ATOM     25  N   UNL     1      33.513 -13.105 -25.529  0.00  0.00    -0.248 NA
ATOM     26  C   UNL     1      34.270 -15.321 -24.003  0.00  0.00    +0.020 C 
ATOM     27  C   UNL     1      34.337 -14.043 -23.459  0.00  0.00    +0.016 C 
ATOM     28  C   UNL     1      33.825 -15.492 -25.309  0.00  0.00    +0.022 C 
ATOM     29  C   UNL     1      33.951 -12.978 -24.257  0.00  0.00    +0.059 C 
ATOM     30  C   UNL     1      33.461 -14.363 -26.024  0.00  0.00    +0.098 C 
ATOM     31  C   UNL     1      34.010 -11.591 -23.706  0.00  0.00    +0.052 C 
ENDBRANCH  21  26
ENDBRANCH  17  19
ENDBRANCH   4  17
TORSDOF 4
ENDMDL
MODEL 4
REMARK VINA RESULT:     -12.2      2.493     11.081
REMARK  Name = 46926973
REMARK  4 active torsions:
REMARK  status: ('A' for Active; 'I' for Inactive)
REMARK    1  A    between atoms: C_4  and  C_17
REMARK    2  A    between atoms: C_6  and  C_13
REMARK    3  A    between atoms: C_17  and  C_19
REMARK    4  A    between atoms: C_21  and  C_26
REMARK                            x       y       z     vdW  Elec       q    Type
REMARK                         _______ _______ _______ _____ _____    ______ ____
ROOT
ATOM      1  O   UNL     1      32.947 -14.233 -22.653  0.00  0.00    -0.274 OA
ATOM      2  N   UNL     1      34.325 -12.635 -23.693  0.00  0.00    -0.269 N 
ATOM      3  N   UNL     1      34.329 -10.270 -23.738  0.00  0.00    -0.229 NA
ATOM      4  C   UNL     1      33.903 -13.930 -23.360  0.00  0.00    +0.232 C 
ATOM      5  C   UNL     1      33.760 -11.416 -23.300  0.00  0.00    +0.134 C 
ATOM      6  C   UNL     1      32.634  -9.059 -22.510  0.00  0.00    +0.038 C 
ATOM      7  C   UNL     1      32.645 -11.464 -22.478  0.00  0.00    +0.035 C 
ATOM      8  C   UNL     1      32.077 -10.258 -22.082  0.00  0.00    +0.006 C 
ATOM      9  C   UNL     1      33.749  -9.118 -23.331  0.00  0.00    +0.102 C 
ATOM     10  H   UNL     1      35.117 -12.576 -24.275  0.00  0.00    +0.156 HD
ENDROOT
BRANCH   6  13
ATOM     11  N   UNL     1      31.053  -7.336 -22.878  0.00  0.00    -0.241 NA
ATOM     12  N   UNL     1      32.003  -5.904 -20.662  0.00  0.00    -0.239 NA
ATOM     13  C   UNL     1      32.068  -7.791 -22.116  0.00  0.00    +0.102 C 
ATOM     14  C   UNL     1      32.534  -7.087 -21.027  0.00  0.00    +0.118 C 
ATOM     15  C   UNL     1      30.521  -6.153 -22.512  0.00  0.00    +0.119 C 
ATOM     16  C   UNL     1      30.988  -5.449 -21.424  0.00  0.00    +0.120 C 
ENDBRANCH   6  13
BRANCH   4  17
ATOM     17  C   UNL     1      34.804 -14.975 -24.000  0.00  0.00    +0.113 C 
BRANCH  17  19
ATOM     18  N   UNL     1      35.140 -17.291 -21.024  0.00  0.00    -0.244 NA
ATOM     19  C   UNL     1      34.923 -16.240 -23.190  0.00  0.00    +0.006 C 
ATOM     20  C   UNL     1      35.042 -18.637 -23.030  0.00  0.00    -0.004 C 
ATOM     21  C   UNL     1      35.143 -18.486 -21.657  0.00  0.00    +0.077 C 
ATOM     22  C   UNL     1      34.930 -17.487 -23.804  0.00  0.00    -0.005 C 
ATOM     23  C   UNL     1      35.030 -16.197 -21.808  0.00  0.00    +0.095 C 
ATOM     24  C   UNL     1      35.050 -19.972 -23.692  0.00  0.00    +0.033 C 
BRANCH  21  26
ATOM     25  N   UNL     1      35.498 -21.819 -19.058  0.00  0.00    -0.248 NA
ATOM     26  C   UNL     1      35.264 -19.622 -20.771  0.00  0.00    +0.020 C 
ATOM     27  C   UNL     1      34.124 -20.239 -20.267  0.00  0.00    +0.016 C 
ATOM     28  C   UNL     1      36.521 -20.103 -20.420  0.00  0.00    +0.022 C 
ATOM     29  C   UNL     1      34.295 -21.325 -19.422  0.00  0.00    +0.059 C 
ATOM     30  C   UNL     1      36.583 -21.194 -19.568  0.00  0.00    +0.098 C 
ATOM     31  C   UNL     1      33.093 -22.011 -18.861  0.00  0.00    +0.052 C 
ENDBRANCH  21  26
ENDBRANCH  17  19
ENDBRANCH   4  17
TORSDOF 4
ENDMDL
MODEL 5
REMARK VINA RESULT:     -11.9      1.739      2.972
REMARK  Name = 46926973
REMARK  4 active torsions:
REMARK  status: ('A' for Active; 'I' for Inactive)
REMARK    1  A    between atoms: C_4  and  C_17
REMARK    2  A    between atoms: C_6  and  C_13
REMARK    3  A    between atoms: C_17  and  C_19
REMARK    4  A    between atoms: C_21  and  C_26
REMARK                            x       y       z     vdW  Elec       q    Type
REMARK                         _______ _______ _______ _____ _____    ______ ____
ROOT
ATOM      1  O   UNL     1      37.507 -19.314 -20.596  0.00  0.00    -0.274 OA
ATOM      2  N   UNL     1      35.630 -20.715 -20.378  0.00  0.00    -0.269 N 
ATOM      3  N   UNL     1      34.876 -22.173 -18.675  0.00  0.00    -0.229 NA
ATOM      4  C   UNL     1      36.460 -19.790 -21.026  0.00  0.00    +0.232 C 
ATOM      5  C   UNL     1      35.805 -21.295 -19.115  0.00  0.00    +0.134 C 
ATOM      6  C   UNL     1      36.177 -22.404 -16.650  0.00  0.00    +0.038 C 
ATOM      7  C   UNL     1      36.929 -20.927 -18.393  0.00  0.00    +0.035 C 
ATOM      8  C   UNL     1      37.112 -21.498 -17.138  0.00  0.00    +0.006 C 
ATOM      9  C   UNL     1      35.087 -22.706 -17.450  0.00  0.00    +0.102 C 
ATOM     10  H   UNL     1      34.824 -20.990 -20.871  0.00  0.00    +0.156 HD
ENDROOT
BRANCH   6  13
ATOM     11  N   UNL     1      35.201 -23.371 -14.722  0.00  0.00    -0.241 NA
ATOM     12  N   UNL     1      37.726 -23.786 -13.575  0.00  0.00    -0.239 NA
ATOM     13  C   UNL     1      36.339 -23.013 -15.351  0.00  0.00    +0.102 C 
ATOM     14  C   UNL     1      37.579 -23.217 -14.788  0.00  0.00    +0.118 C 
ATOM     15  C   UNL     1      35.349 -23.940 -13.509  0.00  0.00    +0.119 C 
ATOM     16  C   UNL     1      36.589 -24.144 -12.945  0.00  0.00    +0.120 C 
ENDBRANCH   6  13
BRANCH   4  17
ATOM     17  C   UNL     1      35.896 -19.415 -22.388  0.00  0.00    +0.113 C 
BRANCH  17  19
ATOM     18  N   UNL     1      34.553 -16.066 -21.242  0.00  0.00    -0.244 NA
ATOM     19  C   UNL     1      35.317 -18.025 -22.434  0.00  0.00    +0.006 C 
ATOM     20  C   UNL     1      34.477 -16.132 -23.658  0.00  0.00    -0.004 C 
ATOM     21  C   UNL     1      34.269 -15.506 -22.440  0.00  0.00    +0.077 C 
ATOM     22  C   UNL     1      35.012 -17.416 -23.646  0.00  0.00    -0.005 C 
ATOM     23  C   UNL     1      35.070 -17.314 -21.271  0.00  0.00    +0.095 C 
ATOM     24  C   UNL     1      34.150 -15.482 -24.959  0.00  0.00    +0.033 C 
BRANCH  21  26
ATOM     25  N   UNL     1      32.649 -11.595 -22.181  0.00  0.00    -0.248 NA
ATOM     26  C   UNL     1      33.717 -14.173 -22.352  0.00  0.00    +0.020 C 
ATOM     27  C   UNL     1      34.184 -13.166 -23.190  0.00  0.00    +0.016 C 
ATOM     28  C   UNL     1      32.716 -13.892 -21.428  0.00  0.00    +0.022 C 
ATOM     29  C   UNL     1      33.622 -11.906 -23.066  0.00  0.00    +0.059 C 
ATOM     30  C   UNL     1      32.220 -12.598 -21.383  0.00  0.00    +0.098 C 
ATOM     31  C   UNL     1      34.100 -10.801 -23.949  0.00  0.00    +0.052 C 
ENDBRANCH  21  26
ENDBRANCH  17  19
ENDBRANCH   4  17
TORSDOF 4
ENDMDL
MODEL 6
REMARK VINA RESULT:     -11.5      2.925      5.310
REMARK  Name = 46926973
REMARK  4 active torsions:
REMARK  status: ('A' for Active; 'I' for Inactive)
REMARK    1  A    between atoms: C_4  and  C_17
REMARK    2  A    between atoms: C_6  and  C_13
REMARK    3  A    between atoms: C_17  and  C_19
REMARK    4  A    between atoms: C_21  and  C_26
REMARK                            x       y       z     vdW  Elec       q    Type
REMARK                         _______ _______ _______ _____ _____    ______ ____
ROOT
ATOM      1  O   UNL     1      34.248 -13.252 -21.978  0.00  0.00    -0.274 OA
ATOM      2  N   UNL     1      34.650 -14.876 -23.630  0.00  0.00    -0.269 N 
ATOM      3  N   UNL     1      35.022 -17.211 -23.563  0.00  0.00    -0.229 NA
ATOM      4  C   UNL     1      34.400 -13.584 -23.150  0.00  0.00    +0.232 C 
ATOM      5  C   UNL     1      34.780 -16.061 -22.895  0.00  0.00    +0.134 C 
ATOM      6  C   UNL     1      35.024 -18.350 -21.430  0.00  0.00    +0.038 C 
ATOM      7  C   UNL     1      34.649 -15.975 -21.518  0.00  0.00    +0.035 C 
ATOM      8  C   UNL     1      34.776 -17.146 -20.779  0.00  0.00    +0.006 C 
ATOM      9  C   UNL     1      35.139 -18.329 -22.810  0.00  0.00    +0.102 C 
ATOM     10  H   UNL     1      34.745 -14.962 -24.607  0.00  0.00    +0.156 HD
ENDROOT
BRANCH   6  13
ATOM     11  N   UNL     1      36.420 -19.937 -20.363  0.00  0.00    -0.241 NA
ATOM     12  N   UNL     1      34.204 -21.499 -19.648  0.00  0.00    -0.239 NA
ATOM     13  C   UNL     1      35.161 -19.582 -20.690  0.00  0.00    +0.102 C 
ATOM     14  C   UNL     1      34.073 -20.350 -20.338  0.00  0.00    +0.118 C 
ATOM     15  C   UNL     1      36.551 -21.086 -19.672  0.00  0.00    +0.119 C 
ATOM     16  C   UNL     1      35.463 -21.854 -19.321  0.00  0.00    +0.120 C 
ENDBRANCH   6  13
BRANCH   4  17
ATOM     17  C   UNL     1      34.331 -12.583 -24.293  0.00  0.00    +0.113 C 
BRANCH  17  19
ATOM     18  N   UNL     1      32.376  -9.685 -22.840  0.00  0.00    -0.244 NA
ATOM     19  C   UNL     1      33.979 -11.187 -23.847  0.00  0.00    +0.006 C 
ATOM     20  C   UNL     1      34.520  -8.858 -23.592  0.00  0.00    -0.004 C 
ATOM     21  C   UNL     1      33.271  -8.687 -23.017  0.00  0.00    +0.077 C 
ATOM     22  C   UNL     1      34.872 -10.136 -24.012  0.00  0.00    -0.005 C 
ATOM     23  C   UNL     1      32.754 -10.912 -23.260  0.00  0.00    +0.095 C 
ATOM     24  C   UNL     1      35.479  -7.732 -23.771  0.00  0.00    +0.033 C 
BRANCH  21  26
ATOM     25  N   UNL     1      31.934  -4.902 -21.648  0.00  0.00    -0.248 NA
ATOM     26  C   UNL     1      32.815  -7.397 -22.550  0.00  0.00    +0.020 C 
ATOM     27  C   UNL     1      32.537  -6.383 -23.461  0.00  0.00    +0.016 C 
ATOM     28  C   UNL     1      32.653  -7.164 -21.189  0.00  0.00    +0.022 C 
ATOM     29  C   UNL     1      32.103  -5.165 -22.963  0.00  0.00    +0.059 C 
ATOM     30  C   UNL     1      32.214  -5.911 -20.793  0.00  0.00    +0.098 C 
ATOM     31  C   UNL     1      31.795  -4.054 -23.911  0.00  0.00    +0.052 C 
ENDBRANCH  21  26
ENDBRANCH  17  19
ENDBRANCH   4  17
TORSDOF 4
ENDMDL
MODEL 7
REMARK VINA RESULT:     -11.5      1.456      2.462
REMARK  Name = 46926973
REMARK  4 active torsions:
REMARK  status: ('A' for Active; 'I' for Inactive)
REMARK    1  A    between atoms: C_4  and  C_17
REMARK    2  A    between atoms: C_6  and  C_13
REMARK    3  A    between atoms: C_17  and  C_19
REMARK    4  A    between atoms: C_21  and  C_26
REMARK                            x       y       z     vdW  Elec       q    Type
REMARK                         _______ _______ _______ _____ _____    ______ ____
ROOT
ATOM      1  O   UNL     1      33.830 -20.160 -21.555  0.00  0.00    -0.274 OA
ATOM      2  N   UNL     1      36.007 -20.061 -20.671  0.00  0.00    -0.269 N 
ATOM      3  N   UNL     1      37.026 -20.980 -18.744  0.00  0.00    -0.229 NA
ATOM      4  C   UNL     1      34.996 -19.777 -21.598  0.00  0.00    +0.232 C 
ATOM      5  C   UNL     1      35.918 -20.832 -19.505  0.00  0.00    +0.134 C 
ATOM      6  C   UNL     1      35.709 -22.343 -17.243  0.00  0.00    +0.038 C 
ATOM      7  C   UNL     1      34.690 -21.398 -19.206  0.00  0.00    +0.035 C 
ATOM      8  C   UNL     1      34.591 -22.166 -18.051  0.00  0.00    +0.006 C 
ATOM      9  C   UNL     1      36.892 -21.734 -17.630  0.00  0.00    +0.102 C 
ATOM     10  H   UNL     1      36.890 -19.671 -20.863  0.00  0.00    +0.156 HD
ENDROOT
BRANCH   6  13
ATOM     11  N   UNL     1      34.459 -23.743 -15.800  0.00  0.00    -0.241 NA
ATOM     12  N   UNL     1      36.640 -23.999 -14.056  0.00  0.00    -0.239 NA
ATOM     13  C   UNL     1      35.638 -23.134 -16.038  0.00  0.00    +0.102 C 
ATOM     14  C   UNL     1      36.710 -23.260 -15.181  0.00  0.00    +0.118 C 
ATOM     15  C   UNL     1      34.391 -24.483 -14.675  0.00  0.00    +0.119 C 
ATOM     16  C   UNL     1      35.461 -24.608 -13.818  0.00  0.00    +0.120 C 
ENDBRANCH   6  13
BRANCH   4  17
ATOM     17  C   UNL     1      35.522 -18.902 -22.725  0.00  0.00    +0.113 C 
BRANCH  17  19
ATOM     18  N   UNL     1      34.268 -15.500 -23.817  0.00  0.00    -0.244 NA
ATOM     19  C   UNL     1      35.032 -17.479 -22.657  0.00  0.00    +0.006 C 
ATOM     20  C   UNL     1      34.436 -15.513 -21.405  0.00  0.00    -0.004 C 
ATOM     21  C   UNL     1      34.141 -14.901 -22.612  0.00  0.00    +0.077 C 
ATOM     22  C   UNL     1      34.889 -16.828 -21.437  0.00  0.00    -0.005 C 
ATOM     23  C   UNL     1      34.711 -16.777 -23.808  0.00  0.00    +0.095 C 
ATOM     24  C   UNL     1      34.284 -14.817 -20.096  0.00  0.00    +0.033 C 
BRANCH  21  26
ATOM     25  N   UNL     1      32.743 -10.901 -22.810  0.00  0.00    -0.248 NA
ATOM     26  C   UNL     1      33.665 -13.537 -22.680  0.00  0.00    +0.020 C 
ATOM     27  C   UNL     1      34.371 -12.586 -23.409  0.00  0.00    +0.016 C 
ATOM     28  C   UNL     1      32.499 -13.171 -22.016  0.00  0.00    +0.022 C 
ATOM     29  C   UNL     1      33.872 -11.293 -23.442  0.00  0.00    +0.059 C 
ATOM     30  C   UNL     1      32.084 -11.853 -22.111  0.00  0.00    +0.098 C 
ATOM     31  C   UNL     1      34.603 -10.246 -24.214  0.00  0.00    +0.052 C 
ENDBRANCH  21  26
ENDBRANCH  17  19
ENDBRANCH   4  17
TORSDOF 4
ENDMDL
MODEL 8
REMARK VINA RESULT:     -11.3      2.499     10.360
REMARK  Name = 46926973
REMARK  4 active torsions:
REMARK  status: ('A' for Active; 'I' for Inactive)
REMARK    1  A    between atoms: C_4  and  C_17
REMARK    2  A    between atoms: C_6  and  C_13
REMARK    3  A    between atoms: C_17  and  C_19
REMARK    4  A    between atoms: C_21  and  C_26
REMARK                            x       y       z     vdW  Elec       q    Type
REMARK                         _______ _______ _______ _____ _____    ______ ____
ROOT
ATOM      1  O   UNL     1      35.694 -21.829 -21.052  0.00  0.00    -0.274 OA
ATOM      2  N   UNL     1      35.777 -19.755 -19.948  0.00  0.00    -0.269 N 
ATOM      3  N   UNL     1      35.378 -17.526 -20.635  0.00  0.00    -0.229 NA
ATOM      4  C   UNL     1      35.888 -21.148 -20.050  0.00  0.00    +0.232 C 
ATOM      5  C   UNL     1      35.426 -18.841 -20.949  0.00  0.00    +0.134 C 
ATOM      6  C   UNL     1      34.734 -17.090 -22.924  0.00  0.00    +0.038 C 
ATOM      7  C   UNL     1      35.146 -19.348 -22.208  0.00  0.00    +0.035 C 
ATOM      8  C   UNL     1      34.796 -18.449 -23.209  0.00  0.00    +0.006 C 
ATOM      9  C   UNL     1      35.033 -16.683 -21.634  0.00  0.00    +0.102 C 
ATOM     10  H   UNL     1      35.969 -19.371 -19.062  0.00  0.00    +0.156 HD
ENDROOT
BRANCH   6  13
ATOM     11  N   UNL     1      33.828 -14.980 -23.502  0.00  0.00    -0.241 NA
ATOM     12  N   UNL     1      34.236 -15.480 -26.230  0.00  0.00    -0.239 NA
ATOM     13  C   UNL     1      34.374 -16.131 -23.942  0.00  0.00    +0.102 C 
ATOM     14  C   UNL     1      34.574 -16.377 -25.283  0.00  0.00    +0.118 C 
ATOM     15  C   UNL     1      33.491 -14.084 -24.450  0.00  0.00    +0.119 C 
ATOM     16  C   UNL     1      33.690 -14.329 -25.790  0.00  0.00    +0.120 C 
ENDBRANCH   6  13
BRANCH   4  17
ATOM     17  C   UNL     1      36.293 -21.759 -18.718  0.00  0.00    +0.113 C 
BRANCH  17  19
ATOM     18  N   UNL     1      32.745 -22.650 -17.741  0.00  0.00    -0.244 NA
ATOM     19  C   UNL     1      35.123 -22.250 -17.904  0.00  0.00    +0.006 C 
ATOM     20  C   UNL     1      34.203 -23.182 -15.887  0.00  0.00    -0.004 C 
ATOM     21  C   UNL     1      32.958 -23.118 -16.491  0.00  0.00    +0.077 C 
ATOM     22  C   UNL     1      35.302 -22.737 -16.615  0.00  0.00    -0.005 C 
ATOM     23  C   UNL     1      33.836 -22.227 -18.417  0.00  0.00    +0.095 C 
ATOM     24  C   UNL     1      34.397 -23.704 -14.505  0.00  0.00    +0.033 C 
BRANCH  21  26
ATOM     25  N   UNL     1      29.438 -24.404 -14.503  0.00  0.00    -0.248 NA
ATOM     26  C   UNL     1      31.758 -23.556 -15.813  0.00  0.00    +0.020 C 
ATOM     27  C   UNL     1      30.530 -22.981 -16.124  0.00  0.00    +0.016 C 
ATOM     28  C   UNL     1      31.826 -24.555 -14.848  0.00  0.00    +0.022 C 
ATOM     29  C   UNL     1      29.410 -23.436 -15.446  0.00  0.00    +0.059 C 
ATOM     30  C   UNL     1      30.648 -24.939 -14.227  0.00  0.00    +0.098 C 
ATOM     31  C   UNL     1      28.077 -22.841 -15.754  0.00  0.00    +0.052 C 
ENDBRANCH  21  26
ENDBRANCH  17  19
ENDBRANCH   4  17
TORSDOF 4
ENDMDL
MODEL 9
REMARK VINA RESULT:     -11.0      1.561      2.697
REMARK  Name = 46926973
REMARK  4 active torsions:
REMARK  status: ('A' for Active; 'I' for Inactive)
REMARK    1  A    between atoms: C_4  and  C_17
REMARK    2  A    between atoms: C_6  and  C_13
REMARK    3  A    between atoms: C_17  and  C_19
REMARK    4  A    between atoms: C_21  and  C_26
REMARK                            x       y       z     vdW  Elec       q    Type
REMARK                         _______ _______ _______ _____ _____    ______ ____
ROOT
ATOM      1  O   UNL     1      37.287 -19.920 -20.015  0.00  0.00    -0.274 OA
ATOM      2  N   UNL     1      35.221 -20.982 -20.377  0.00  0.00    -0.269 N 
ATOM      3  N   UNL     1      33.825 -22.333 -19.028  0.00  0.00    -0.229 NA
ATOM      4  C   UNL     1      36.328 -20.197 -20.728  0.00  0.00    +0.232 C 
ATOM      5  C   UNL     1      34.965 -21.618 -19.156  0.00  0.00    +0.134 C 
ATOM      6  C   UNL     1      34.497 -22.838 -16.761  0.00  0.00    +0.038 C 
ATOM      7  C   UNL     1      35.904 -21.468 -18.149  0.00  0.00    +0.035 C 
ATOM      8  C   UNL     1      35.659 -22.094 -16.932  0.00  0.00    +0.006 C 
ATOM      9  C   UNL     1      33.620 -22.927 -17.830  0.00  0.00    +0.102 C 
ATOM     10  H   UNL     1      34.538 -21.102 -21.077  0.00  0.00    +0.156 HD
ENDROOT
BRANCH   6  13
ATOM     11  N   UNL     1      32.910 -23.623 -15.189  0.00  0.00    -0.241 NA
ATOM     12  N   UNL     1      34.946 -24.594 -13.523  0.00  0.00    -0.239 NA
ATOM     13  C   UNL     1      34.214 -23.500 -15.509  0.00  0.00    +0.102 C 
ATOM     14  C   UNL     1      35.214 -23.977 -14.691  0.00  0.00    +0.118 C 
ATOM     15  C   UNL     1      32.643 -24.241 -14.021  0.00  0.00    +0.119 C 
ATOM     16  C   UNL     1      33.643 -24.717 -13.203  0.00  0.00    +0.120 C 
ENDBRANCH   6  13
BRANCH   4  17
ATOM     17  C   UNL     1      36.207 -19.696 -22.158  0.00  0.00    +0.113 C 
BRANCH  17  19
ATOM     18  N   UNL     1      34.769 -16.341 -21.149  0.00  0.00    -0.244 NA
ATOM     19  C   UNL     1      35.599 -18.321 -22.262  0.00  0.00    +0.006 C 
ATOM     20  C   UNL     1      34.745 -16.487 -23.562  0.00  0.00    -0.004 C 
ATOM     21  C   UNL     1      34.498 -15.827 -22.369  0.00  0.00    +0.077 C 
ATOM     22  C   UNL     1      35.306 -17.758 -23.498  0.00  0.00    -0.005 C 
ATOM     23  C   UNL     1      35.314 -17.578 -21.127  0.00  0.00    +0.095 C 
ATOM     24  C   UNL     1      34.431 -15.886 -24.889  0.00  0.00    +0.033 C 
BRANCH  21  26
ATOM     25  N   UNL     1      32.792 -11.945 -22.269  0.00  0.00    -0.248 NA
ATOM     26  C   UNL     1      33.916 -14.504 -22.335  0.00  0.00    +0.020 C 
ATOM     27  C   UNL     1      33.030 -14.156 -21.321  0.00  0.00    +0.016 C 
ATOM     28  C   UNL     1      34.241 -13.573 -23.316  0.00  0.00    +0.022 C 
ATOM     29  C   UNL     1      32.501 -12.875 -21.333  0.00  0.00    +0.059 C 
ATOM     30  C   UNL     1      33.657 -12.319 -23.239  0.00  0.00    +0.098 C 
ATOM     31  C   UNL     1      31.546 -12.468 -20.261  0.00  0.00    +0.052 C 
ENDBRANCH  21  26
ENDBRANCH  17  19
ENDBRANCH   4  17
TORSDOF 4
ENDMDL
