MODEL 1
REMARK VINA RESULT:     -12.4      0.000      0.000
REMARK  Name = 60870
REMARK  7 active torsions:
REMARK  status: ('A' for Active; 'I' for Inactive)
REMARK    1  A    between atoms: C_2  and  C_4
REMARK    2  A    between atoms: C_2  and  C_18
REMARK    3  A    between atoms: C_3  and  C_9
REMARK    4  A    between atoms: C_9  and  C_14
REMARK    5  A    between atoms: C_18  and  C_19
REMARK    6  A    between atoms: C_19  and  C_22
REMARK    7  A    between atoms: C_24  and  C_26
REMARK                            x       y       z     vdW  Elec       q    Type
REMARK                         _______ _______ _______ _____ _____    ______ ____
ROOT
ATOM      1  O   UNL     1      35.100 -19.483 -22.730  0.00  0.00    -0.291 OA
ATOM      2  C   UNL     1      34.915 -19.203 -21.528  0.00  0.00    +0.173 C 
ENDROOT
BRANCH   2   4
ATOM      3  C   UNL     1      33.982 -22.221 -18.718  0.00  0.00    -0.021 C 
ATOM      4  C   UNL     1      34.594 -20.242 -20.562  0.00  0.00    +0.035 C 
ATOM      5  C   UNL     1      32.957 -21.483 -19.291  0.00  0.00    -0.004 C 
ATOM      6  C   UNL     1      35.307 -21.987 -19.052  0.00  0.00    -0.004 C 
ATOM      7  C   UNL     1      33.265 -20.488 -20.219  0.00  0.00    +0.003 C 
ATOM      8  C   UNL     1      35.615 -20.992 -19.979  0.00  0.00    +0.003 C 
BRANCH   3   9
ATOM      9  C   UNL     1      33.649 -23.298 -17.717  0.00  0.00    +0.047 C 
BRANCH   9  14
ATOM     10  S   UNL     1      34.225 -23.482 -15.030  0.00  0.00    -0.048 S 
ATOM     11  O   UNL     1      30.875 -22.668 -16.763  0.00  0.00    -0.274 OA
ATOM     12  O   UNL     1      32.871 -24.615 -13.082  0.00  0.00    -0.263 OA
ATOM     13  N   UNL     1      31.685 -23.675 -14.846  0.00  0.00    -0.246 N 
ATOM     14  C   UNL     1      33.259 -22.719 -16.369  0.00  0.00    +0.137 C 
ATOM     15  C   UNL     1      31.809 -23.003 -16.044  0.00  0.00    +0.239 C 
ATOM     16  C   UNL     1      32.812 -24.021 -14.148  0.00  0.00    +0.279 C 
ATOM     17  H   UNL     1      30.795 -23.904 -14.496  0.00  0.00    +0.158 HD
ENDBRANCH   9  14
ENDBRANCH   3   9
ENDBRANCH   2   4
BRANCH   2  18
ATOM     18  C   UNL     1      35.033 -17.737 -21.070  0.00  0.00    +0.076 C 
BRANCH  18  19
ATOM     19  C   UNL     1      35.527 -16.791 -22.168  0.00  0.00    +0.066 C 
BRANCH  19  22
ATOM     20  O   UNL     1      33.261 -14.154 -23.283  0.00  0.00    -0.449 OA
ATOM     21  N   UNL     1      34.177 -14.888 -21.349  0.00  0.00    -0.373 NA
ATOM     22  C   UNL     1      34.588 -15.645 -22.398  0.00  0.00    +0.130 C 
ATOM     23  C   UNL     1      34.053 -15.226 -23.568  0.00  0.00    +0.216 C 
ATOM     24  C   UNL     1      33.389 -14.014 -21.936  0.00  0.00    +0.277 C 
ATOM     25  C   UNL     1      34.131 -15.642 -24.973  0.00  0.00    +0.055 C 
BRANCH  24  26
ATOM     26  C   UNL     1      32.640 -12.932 -21.359  0.00  0.00    +0.066 C 
ATOM     27  C   UNL     1      32.283 -11.829 -22.139  0.00  0.00    +0.006 C 
ATOM     28  C   UNL     1      32.266 -12.976 -20.013  0.00  0.00    +0.006 C 
ATOM     29  C   UNL     1      31.557 -10.777 -21.578  0.00  0.00    +0.000 C 
ATOM     30  C   UNL     1      31.540 -11.925 -19.452  0.00  0.00    +0.000 C 
ATOM     31  C   UNL     1      31.186 -10.826 -20.235  0.00  0.00    +0.000 C 
ENDBRANCH  24  26
ENDBRANCH  19  22
ENDBRANCH  18  19
ENDBRANCH   2  18
TORSDOF 7
ENDMDL
MODEL 2
REMARK VINA RESULT:     -11.7      2.878      5.098
REMARK  Name = 60870
REMARK  7 active torsions:
REMARK  status: ('A' for Active; 'I' for Inactive)
REMARK    1  A    between atoms: C_2  and  C_4
REMARK    2  A    between atoms: C_2  and  C_18
REMARK    3  A    between atoms: C_3  and  C_9
REMARK    4  A    between atoms: C_9  and  C_14
REMARK    5  A    between atoms: C_18  and  C_19
REMARK    6  A    between atoms: C_19  and  C_22
REMARK    7  A    between atoms: C_24  and  C_26
REMARK                            x       y       z     vdW  Elec       q    Type
REMARK                         _______ _______ _______ _____ _____    ______ ____
ROOT
ATOM      1  O   UNL     1      34.437 -15.659 -25.898  0.00  0.00    -0.291 OA
ATOM      2  C   UNL     1      34.142 -15.432 -24.707  0.00  0.00    +0.173 C 
ENDROOT
BRANCH   2   4
ATOM      3  C   UNL     1      35.391 -18.050 -21.631  0.00  0.00    -0.021 C 
ATOM      4  C   UNL     1      34.573 -16.332 -23.649  0.00  0.00    +0.035 C 
ATOM      5  C   UNL     1      35.365 -18.502 -22.942  0.00  0.00    -0.004 C 
ATOM      6  C   UNL     1      35.016 -16.754 -21.312  0.00  0.00    -0.004 C 
ATOM      7  C   UNL     1      34.953 -17.638 -23.957  0.00  0.00    +0.003 C 
ATOM      8  C   UNL     1      34.605 -15.889 -22.327  0.00  0.00    +0.003 C 
BRANCH   3   9
ATOM      9  C   UNL     1      35.837 -18.983 -20.534  0.00  0.00    +0.047 C 
BRANCH   9  14
ATOM     10  S   UNL     1      33.451 -20.345 -20.339  0.00  0.00    -0.048 S 
ATOM     11  O   UNL     1      37.038 -21.578 -19.624  0.00  0.00    -0.274 OA
ATOM     12  O   UNL     1      32.584 -21.979 -18.472  0.00  0.00    -0.263 OA
ATOM     13  N   UNL     1      34.864 -21.930 -18.918  0.00  0.00    -0.246 N 
ATOM     14  C   UNL     1      35.237 -20.369 -20.689  0.00  0.00    +0.137 C 
ATOM     15  C   UNL     1      35.837 -21.345 -19.702  0.00  0.00    +0.239 C 
ATOM     16  C   UNL     1      33.555 -21.561 -19.083  0.00  0.00    +0.279 C 
ATOM     17  H   UNL     1      35.108 -22.606 -18.247  0.00  0.00    +0.158 HD
ENDBRANCH   9  14
ENDBRANCH   3   9
ENDBRANCH   2   4
BRANCH   2  18
ATOM     18  C   UNL     1      33.314 -14.179 -24.362  0.00  0.00    +0.076 C 
BRANCH  18  19
ATOM     19  C   UNL     1      34.152 -13.031 -23.792  0.00  0.00    +0.066 C 
BRANCH  19  22
ATOM     20  O   UNL     1      32.026 -11.200 -21.455  0.00  0.00    -0.449 OA
ATOM     21  N   UNL     1      33.294 -10.769 -23.278  0.00  0.00    -0.373 NA
ATOM     22  C   UNL     1      33.334 -12.088 -22.961  0.00  0.00    +0.130 C 
ATOM     23  C   UNL     1      32.582 -12.372 -21.872  0.00  0.00    +0.216 C 
ATOM     24  C   UNL     1      32.500 -10.289 -22.348  0.00  0.00    +0.277 C 
ATOM     25  C   UNL     1      32.259 -13.576 -21.099  0.00  0.00    +0.055 C 
BRANCH  24  26
ATOM     26  C   UNL     1      32.059  -8.938 -22.135  0.00  0.00    +0.066 C 
ATOM     27  C   UNL     1      32.326  -8.293 -20.924  0.00  0.00    +0.006 C 
ATOM     28  C   UNL     1      31.358  -8.262 -23.138  0.00  0.00    +0.006 C 
ATOM     29  C   UNL     1      31.896  -6.982 -20.717  0.00  0.00    +0.000 C 
ATOM     30  C   UNL     1      30.928  -6.950 -22.931  0.00  0.00    +0.000 C 
ATOM     31  C   UNL     1      31.197  -6.311 -21.720  0.00  0.00    +0.000 C 
ENDBRANCH  24  26
ENDBRANCH  19  22
ENDBRANCH  18  19
ENDBRANCH   2  18
TORSDOF 7
ENDMDL
MODEL 3
REMARK VINA RESULT:     -11.7      3.676     11.193
REMARK  Name = 60870
REMARK  7 active torsions:
REMARK  status: ('A' for Active; 'I' for Inactive)
REMARK    1  A    between atoms: C_2  and  C_4
REMARK    2  A    between atoms: C_2  and  C_18
REMARK    3  A    between atoms: C_3  and  C_9
REMARK    4  A    between atoms: C_9  and  C_14
REMARK    5  A    between atoms: C_18  and  C_19
REMARK    6  A    between atoms: C_19  and  C_22
REMARK    7  A    between atoms: C_24  and  C_26
REMARK                            x       y       z     vdW  Elec       q    Type
REMARK                         _______ _______ _______ _____ _____    ______ ____
ROOT
ATOM      1  O   UNL     1      33.476 -24.167 -18.112  0.00  0.00    -0.291 OA
ATOM      2  C   UNL     1      33.333 -22.938 -17.942  0.00  0.00    +0.173 C 
ENDROOT
BRANCH   2   4
ATOM      3  C   UNL     1      35.125 -20.166 -20.585  0.00  0.00    -0.021 C 
ATOM      4  C   UNL     1      33.950 -21.985 -18.853  0.00  0.00    +0.035 C 
ATOM      5  C   UNL     1      35.928 -21.032 -19.858  0.00  0.00    -0.004 C 
ATOM      6  C   UNL     1      33.744 -20.195 -20.461  0.00  0.00    -0.004 C 
ATOM      7  C   UNL     1      35.337 -21.947 -18.986  0.00  0.00    +0.003 C 
ATOM      8  C   UNL     1      33.153 -21.110 -19.589  0.00  0.00    +0.003 C 
BRANCH   3   9
ATOM      9  C   UNL     1      35.764 -19.179 -21.527  0.00  0.00    +0.047 C 
BRANCH   9  14
ATOM     10  S   UNL     1      34.782 -18.559 -24.025  0.00  0.00    -0.048 S 
ATOM     11  O   UNL     1      35.093 -16.323 -20.895  0.00  0.00    -0.274 OA
ATOM     12  O   UNL     1      35.162 -16.424 -25.511  0.00  0.00    -0.263 OA
ATOM     13  N   UNL     1      35.147 -16.169 -23.201  0.00  0.00    -0.246 N 
ATOM     14  C   UNL     1      34.732 -18.309 -22.223  0.00  0.00    +0.137 C 
ATOM     15  C   UNL     1      35.009 -16.839 -22.004  0.00  0.00    +0.239 C 
ATOM     16  C   UNL     1      35.060 -16.867 -24.377  0.00  0.00    +0.279 C 
ATOM     17  H   UNL     1      35.305 -15.198 -23.212  0.00  0.00    +0.158 HD
ENDBRANCH   9  14
ENDBRANCH   3   9
ENDBRANCH   2   4
BRANCH   2  18
ATOM     18  C   UNL     1      32.491 -22.434 -16.755  0.00  0.00    +0.076 C 
BRANCH  18  19
ATOM     19  C   UNL     1      31.819 -23.559 -15.962  0.00  0.00    +0.066 C 
BRANCH  19  22
ATOM     20  O   UNL     1      33.172 -24.582 -12.728  0.00  0.00    -0.449 OA
ATOM     21  N   UNL     1      33.932 -23.755 -14.692  0.00  0.00    -0.373 NA
ATOM     22  C   UNL     1      32.585 -23.918 -14.724  0.00  0.00    +0.130 C 
ATOM     23  C   UNL     1      32.105 -24.413 -13.559  0.00  0.00    +0.216 C 
ATOM     24  C   UNL     1      34.228 -24.166 -13.479  0.00  0.00    +0.277 C 
ATOM     25  C   UNL     1      30.785 -24.780 -13.033  0.00  0.00    +0.055 C 
BRANCH  24  26
ATOM     26  C   UNL     1      35.507 -24.241 -12.829  0.00  0.00    +0.066 C 
ATOM     27  C   UNL     1      36.600 -24.810 -13.489  0.00  0.00    +0.006 C 
ATOM     28  C   UNL     1      35.666 -23.748 -11.530  0.00  0.00    +0.006 C 
ATOM     29  C   UNL     1      37.841 -24.884 -12.857  0.00  0.00    +0.000 C 
ATOM     30  C   UNL     1      36.907 -23.822 -10.898  0.00  0.00    +0.000 C 
ATOM     31  C   UNL     1      37.995 -24.390 -11.562  0.00  0.00    +0.000 C 
ENDBRANCH  24  26
ENDBRANCH  19  22
ENDBRANCH  18  19
ENDBRANCH   2  18
TORSDOF 7
ENDMDL
MODEL 4
REMARK VINA RESULT:     -11.7      4.969     11.776
REMARK  Name = 60870
REMARK  7 active torsions:
REMARK  status: ('A' for Active; 'I' for Inactive)
REMARK    1  A    between atoms: C_2  and  C_4
REMARK    2  A    between atoms: C_2  and  C_18
REMARK    3  A    between atoms: C_3  and  C_9
REMARK    4  A    between atoms: C_9  and  C_14
REMARK    5  A    between atoms: C_18  and  C_19
REMARK    6  A    between atoms: C_19  and  C_22
REMARK    7  A    between atoms: C_24  and  C_26
REMARK                            x       y       z     vdW  Elec       q    Type
REMARK                         _______ _______ _______ _____ _____    ______ ____
ROOT
ATOM      1  O   UNL     1      33.141 -14.237 -24.559  0.00  0.00    -0.291 OA
ATOM      2  C   UNL     1      33.306 -13.761 -23.418  0.00  0.00    +0.173 C 
ENDROOT
BRANCH   2   4
ATOM      3  C   UNL     1      33.181  -9.583 -22.781  0.00  0.00    -0.021 C 
ATOM      4  C   UNL     1      33.264 -12.324 -23.198  0.00  0.00    +0.035 C 
ATOM      5  C   UNL     1      32.343 -10.409 -22.048  0.00  0.00    -0.004 C 
ATOM      6  C   UNL     1      34.061 -10.103 -23.718  0.00  0.00    -0.004 C 
ATOM      7  C   UNL     1      32.384 -11.788 -22.258  0.00  0.00    +0.003 C 
ATOM      8  C   UNL     1      34.103 -11.482 -23.928  0.00  0.00    +0.003 C 
BRANCH   3   9
ATOM      9  C   UNL     1      33.138  -8.094 -22.554  0.00  0.00    +0.047 C 
BRANCH   9  14
ATOM     10  S   UNL     1      30.770  -6.709 -22.808  0.00  0.00    -0.048 S 
ATOM     11  O   UNL     1      33.064  -7.089 -19.727  0.00  0.00    -0.274 OA
ATOM     12  O   UNL     1      30.106  -4.318 -21.941  0.00  0.00    -0.263 OA
ATOM     13  N   UNL     1      31.602  -5.570 -20.678  0.00  0.00    -0.246 N 
ATOM     14  C   UNL     1      31.908  -7.675 -21.767  0.00  0.00    +0.137 C 
ATOM     15  C   UNL     1      32.273  -6.773 -20.609  0.00  0.00    +0.239 C 
ATOM     16  C   UNL     1      30.765  -5.326 -21.735  0.00  0.00    +0.279 C 
ATOM     17  H   UNL     1      31.724  -4.893 -19.975  0.00  0.00    +0.158 HD
ENDBRANCH   9  14
ENDBRANCH   3   9
ENDBRANCH   2   4
BRANCH   2  18
ATOM     18  C   UNL     1      33.554 -14.714 -22.233  0.00  0.00    +0.076 C 
BRANCH  18  19
ATOM     19  C   UNL     1      34.962 -15.315 -22.217  0.00  0.00    +0.066 C 
BRANCH  19  22
ATOM     20  O   UNL     1      34.912 -18.933 -22.708  0.00  0.00    -0.449 OA
ATOM     21  N   UNL     1      34.929 -17.462 -20.990  0.00  0.00    -0.373 NA
ATOM     22  C   UNL     1      34.940 -16.814 -22.182  0.00  0.00    +0.130 C 
ATOM     23  C   UNL     1      34.930 -17.674 -23.228  0.00  0.00    +0.216 C 
ATOM     24  C   UNL     1      34.912 -18.722 -21.364  0.00  0.00    +0.277 C 
ATOM     25  C   UNL     1      34.935 -17.556 -24.690  0.00  0.00    +0.055 C 
BRANCH  24  26
ATOM     26  C   UNL     1      34.894 -19.911 -20.558  0.00  0.00    +0.066 C 
ATOM     27  C   UNL     1      33.678 -20.478 -20.166  0.00  0.00    +0.006 C 
ATOM     28  C   UNL     1      36.094 -20.507 -20.159  0.00  0.00    +0.006 C 
ATOM     29  C   UNL     1      33.661 -21.632 -19.382  0.00  0.00    +0.000 C 
ATOM     30  C   UNL     1      36.077 -21.661 -19.375  0.00  0.00    +0.000 C 
ATOM     31  C   UNL     1      34.861 -22.223 -18.987  0.00  0.00    +0.000 C 
ENDBRANCH  24  26
ENDBRANCH  19  22
ENDBRANCH  18  19
ENDBRANCH   2  18
TORSDOF 7
ENDMDL
MODEL 5
REMARK VINA RESULT:     -11.5      3.429      6.381
REMARK  Name = 60870
REMARK  7 active torsions:
REMARK  status: ('A' for Active; 'I' for Inactive)
REMARK    1  A    between atoms: C_2  and  C_4
REMARK    2  A    between atoms: C_2  and  C_18
REMARK    3  A    between atoms: C_3  and  C_9
REMARK    4  A    between atoms: C_9  and  C_14
REMARK    5  A    between atoms: C_18  and  C_19
REMARK    6  A    between atoms: C_19  and  C_22
REMARK    7  A    between atoms: C_24  and  C_26
REMARK                            x       y       z     vdW  Elec       q    Type
REMARK                         _______ _______ _______ _____ _____    ______ ____
ROOT
ATOM      1  O   UNL     1      32.480 -23.138 -16.727  0.00  0.00    -0.291 OA
ATOM      2  C   UNL     1      33.713 -23.081 -16.911  0.00  0.00    +0.173 C 
ENDROOT
BRANCH   2   4
ATOM      3  C   UNL     1      36.399 -23.345 -13.656  0.00  0.00    -0.021 C 
ATOM      4  C   UNL     1      34.637 -23.173 -15.791  0.00  0.00    +0.035 C 
ATOM      5  C   UNL     1      35.105 -23.824 -13.512  0.00  0.00    -0.004 C 
ATOM      6  C   UNL     1      36.827 -22.781 -14.849  0.00  0.00    -0.004 C 
ATOM      7  C   UNL     1      34.219 -23.737 -14.587  0.00  0.00    +0.003 C 
ATOM      8  C   UNL     1      35.941 -22.695 -15.923  0.00  0.00    +0.003 C 
BRANCH   3   9
ATOM      9  C   UNL     1      37.356 -23.439 -12.496  0.00  0.00    +0.047 C 
BRANCH   9  14
ATOM     10  S   UNL     1      38.582 -25.345 -14.062  0.00  0.00    -0.048 S 
ATOM     11  O   UNL     1      36.447 -25.797 -10.878  0.00  0.00    -0.274 OA
ATOM     12  O   UNL     1      37.686 -27.664 -14.917  0.00  0.00    -0.263 OA
ATOM     13  N   UNL     1      36.956 -26.897 -12.848  0.00  0.00    -0.246 N 
ATOM     14  C   UNL     1      38.022 -24.802 -12.418  0.00  0.00    +0.137 C 
ATOM     15  C   UNL     1      37.055 -25.862 -11.941  0.00  0.00    +0.239 C 
ATOM     16  C   UNL     1      37.667 -26.837 -14.018  0.00  0.00    +0.279 C 
ATOM     17  H   UNL     1      36.380 -27.671 -12.657  0.00  0.00    +0.158 HD
ENDBRANCH   9  14
ENDBRANCH   3   9
ENDBRANCH   2   4
BRANCH   2  18
ATOM     18  C   UNL     1      34.254 -22.915 -18.344  0.00  0.00    +0.076 C 
BRANCH  18  19
ATOM     19  C   UNL     1      33.445 -21.930 -19.191  0.00  0.00    +0.066 C 
BRANCH  19  22
ATOM     20  O   UNL     1      36.008 -19.753 -20.615  0.00  0.00    -0.449 OA
ATOM     21  N   UNL     1      33.753 -19.937 -20.624  0.00  0.00    -0.373 NA
ATOM     22  C   UNL     1      34.317 -20.917 -19.873  0.00  0.00    +0.130 C 
ATOM     23  C   UNL     1      35.667 -20.829 -19.852  0.00  0.00    +0.216 C 
ATOM     24  C   UNL     1      34.808 -19.273 -21.041  0.00  0.00    +0.277 C 
ATOM     25  C   UNL     1      36.764 -21.583 -19.234  0.00  0.00    +0.055 C 
BRANCH  24  26
ATOM     26  C   UNL     1      34.879 -18.111 -21.884  0.00  0.00    +0.066 C 
ATOM     27  C   UNL     1      34.880 -16.832 -21.321  0.00  0.00    +0.006 C 
ATOM     28  C   UNL     1      34.944 -18.255 -23.273  0.00  0.00    +0.006 C 
ATOM     29  C   UNL     1      34.947 -15.704 -22.140  0.00  0.00    +0.000 C 
ATOM     30  C   UNL     1      35.011 -17.127 -24.092  0.00  0.00    +0.000 C 
ATOM     31  C   UNL     1      35.012 -15.852 -23.525  0.00  0.00    +0.000 C 
ENDBRANCH  24  26
ENDBRANCH  19  22
ENDBRANCH  18  19
ENDBRANCH   2  18
TORSDOF 7
ENDMDL
MODEL 6
REMARK VINA RESULT:     -11.4      3.085     10.263
REMARK  Name = 60870
REMARK  7 active torsions:
REMARK  status: ('A' for Active; 'I' for Inactive)
REMARK    1  A    between atoms: C_2  and  C_4
REMARK    2  A    between atoms: C_2  and  C_18
REMARK    3  A    between atoms: C_3  and  C_9
REMARK    4  A    between atoms: C_9  and  C_14
REMARK    5  A    between atoms: C_18  and  C_19
REMARK    6  A    between atoms: C_19  and  C_22
REMARK    7  A    between atoms: C_24  and  C_26
REMARK                            x       y       z     vdW  Elec       q    Type
REMARK                         _______ _______ _______ _____ _____    ______ ____
ROOT
ATOM      1  O   UNL     1      37.426 -20.931 -18.029  0.00  0.00    -0.291 OA
ATOM      2  C   UNL     1      36.363 -21.192 -18.630  0.00  0.00    +0.173 C 
ENDROOT
BRANCH   2   4
ATOM      3  C   UNL     1      35.288 -19.082 -22.133  0.00  0.00    -0.021 C 
ATOM      4  C   UNL     1      35.994 -20.467 -19.836  0.00  0.00    +0.035 C 
ATOM      5  C   UNL     1      36.594 -19.015 -21.671  0.00  0.00    -0.004 C 
ATOM      6  C   UNL     1      34.329 -19.830 -21.467  0.00  0.00    -0.004 C 
ATOM      7  C   UNL     1      36.949 -19.712 -20.516  0.00  0.00    +0.003 C 
ATOM      8  C   UNL     1      34.684 -20.527 -20.311  0.00  0.00    +0.003 C 
BRANCH   3   9
ATOM      9  C   UNL     1      34.905 -18.331 -23.382  0.00  0.00    +0.047 C 
BRANCH   9  14
ATOM     10  S   UNL     1      34.598 -16.084 -21.820  0.00  0.00    -0.048 S 
ATOM     11  O   UNL     1      34.980 -16.366 -25.650  0.00  0.00    -0.274 OA
ATOM     12  O   UNL     1      33.096 -13.958 -22.188  0.00  0.00    -0.263 OA
ATOM     13  N   UNL     1      33.967 -15.028 -24.059  0.00  0.00    -0.246 N 
ATOM     14  C   UNL     1      35.297 -16.866 -23.306  0.00  0.00    +0.137 C 
ATOM     15  C   UNL     1      34.747 -16.085 -24.479  0.00  0.00    +0.239 C 
ATOM     16  C   UNL     1      33.759 -14.837 -22.718  0.00  0.00    +0.279 C 
ATOM     17  H   UNL     1      33.563 -14.417 -24.715  0.00  0.00    +0.158 HD
ENDBRANCH   9  14
ENDBRANCH   3   9
ENDBRANCH   2   4
BRANCH   2  18
ATOM     18  C   UNL     1      35.440 -22.297 -18.083  0.00  0.00    +0.076 C 
BRANCH  18  19
ATOM     19  C   UNL     1      35.769 -22.712 -16.647  0.00  0.00    +0.066 C 
BRANCH  19  22
ATOM     20  O   UNL     1      33.196 -24.050 -14.428  0.00  0.00    -0.449 OA
ATOM     21  N   UNL     1      33.323 -23.013 -16.434  0.00  0.00    -0.373 NA
ATOM     22  C   UNL     1      34.559 -23.189 -15.901  0.00  0.00    +0.130 C 
ATOM     23  C   UNL     1      34.510 -23.809 -14.698  0.00  0.00    +0.216 C 
ATOM     24  C   UNL     1      32.550 -23.545 -15.514  0.00  0.00    +0.277 C 
ATOM     25  C   UNL     1      35.488 -24.245 -13.696  0.00  0.00    +0.055 C 
BRANCH  24  26
ATOM     26  C   UNL     1      31.119 -23.670 -15.487  0.00  0.00    +0.066 C 
ATOM     27  C   UNL     1      30.317 -22.719 -16.124  0.00  0.00    +0.006 C 
ATOM     28  C   UNL     1      30.520 -24.744 -14.822  0.00  0.00    +0.006 C 
ATOM     29  C   UNL     1      28.928 -22.840 -16.097  0.00  0.00    +0.000 C 
ATOM     30  C   UNL     1      29.130 -24.865 -14.795  0.00  0.00    +0.000 C 
ATOM     31  C   UNL     1      28.335 -23.913 -15.432  0.00  0.00    +0.000 C 
ENDBRANCH  24  26
ENDBRANCH  19  22
ENDBRANCH  18  19
ENDBRANCH   2  18
TORSDOF 7
ENDMDL
MODEL 7
REMARK VINA RESULT:     -11.4      3.684     10.694
REMARK  Name = 60870
REMARK  7 active torsions:
REMARK  status: ('A' for Active; 'I' for Inactive)
REMARK    1  A    between atoms: C_2  and  C_4
REMARK    2  A    between atoms: C_2  and  C_18
REMARK    3  A    between atoms: C_3  and  C_9
REMARK    4  A    between atoms: C_9  and  C_14
REMARK    5  A    between atoms: C_18  and  C_19
REMARK    6  A    between atoms: C_19  and  C_22
REMARK    7  A    between atoms: C_24  and  C_26
REMARK                            x       y       z     vdW  Elec       q    Type
REMARK                         _______ _______ _______ _____ _____    ______ ____
ROOT
ATOM      1  O   UNL     1      33.392 -20.691 -20.264  0.00  0.00    -0.291 OA
ATOM      2  C   UNL     1      34.528 -20.227 -20.491  0.00  0.00    +0.173 C 
ENDROOT
BRANCH   2   4
ATOM      3  C   UNL     1      35.039 -16.920 -23.075  0.00  0.00    -0.021 C 
ATOM      4  C   UNL     1      34.703 -19.089 -21.380  0.00  0.00    +0.035 C 
ATOM      5  C   UNL     1      34.922 -18.193 -23.613  0.00  0.00    -0.004 C 
ATOM      6  C   UNL     1      34.991 -16.713 -21.705  0.00  0.00    -0.004 C 
ATOM      7  C   UNL     1      34.753 -19.284 -22.760  0.00  0.00    +0.003 C 
ATOM      8  C   UNL     1      34.821 -17.804 -20.852  0.00  0.00    +0.003 C 
BRANCH   3   9
ATOM      9  C   UNL     1      35.221 -15.741 -23.996  0.00  0.00    +0.047 C 
BRANCH   9  14
ATOM     10  S   UNL     1      33.427 -15.132 -25.996  0.00  0.00    -0.048 S 
ATOM     11  O   UNL     1      34.402 -13.079 -22.876  0.00  0.00    -0.274 OA
ATOM     12  O   UNL     1      33.025 -12.874 -27.280  0.00  0.00    -0.263 OA
ATOM     13  N   UNL     1      33.704 -12.772 -25.059  0.00  0.00    -0.246 N 
ATOM     14  C   UNL     1      33.914 -15.009 -24.247  0.00  0.00    +0.137 C 
ATOM     15  C   UNL     1      34.044 -13.531 -23.959  0.00  0.00    +0.239 C 
ATOM     16  C   UNL     1      33.347 -13.398 -26.225  0.00  0.00    +0.279 C 
ATOM     17  H   UNL     1      33.718 -11.790 -25.009  0.00  0.00    +0.158 HD
ENDBRANCH   9  14
ENDBRANCH   3   9
ENDBRANCH   2   4
BRANCH   2  18
ATOM     18  C   UNL     1      35.754 -20.872 -19.816  0.00  0.00    +0.076 C 
BRANCH  18  19
ATOM     19  C   UNL     1      35.551 -22.348 -19.464  0.00  0.00    +0.066 C 
BRANCH  19  22
ATOM     20  O   UNL     1      35.094 -22.674 -15.856  0.00  0.00    -0.449 OA
ATOM     21  N   UNL     1      33.866 -22.905 -17.742  0.00  0.00    -0.373 NA
ATOM     22  C   UNL     1      35.140 -22.541 -18.035  0.00  0.00    +0.130 C 
ATOM     23  C   UNL     1      35.896 -22.396 -16.922  0.00  0.00    +0.216 C 
ATOM     24  C   UNL     1      33.896 -22.970 -16.430  0.00  0.00    +0.277 C 
ATOM     25  C   UNL     1      37.287 -22.031 -16.632  0.00  0.00    +0.055 C 
BRANCH  24  26
ATOM     26  C   UNL     1      32.844 -23.308 -15.511  0.00  0.00    +0.066 C 
ATOM     27  C   UNL     1      33.141 -23.955 -14.308  0.00  0.00    +0.006 C 
ATOM     28  C   UNL     1      31.516 -22.994 -15.815  0.00  0.00    +0.006 C 
ATOM     29  C   UNL     1      32.120 -24.284 -13.416  0.00  0.00    +0.000 C 
ATOM     30  C   UNL     1      30.495 -23.323 -14.924  0.00  0.00    +0.000 C 
ATOM     31  C   UNL     1      30.797 -23.968 -13.724  0.00  0.00    +0.000 C 
ENDBRANCH  24  26
ENDBRANCH  19  22
ENDBRANCH  18  19
ENDBRANCH   2  18
TORSDOF 7
ENDMDL
MODEL 8
REMARK VINA RESULT:     -11.4      2.862      4.395
REMARK  Name = 60870
REMARK  7 active torsions:
REMARK  status: ('A' for Active; 'I' for Inactive)
REMARK    1  A    between atoms: C_2  and  C_4
REMARK    2  A    between atoms: C_2  and  C_18
REMARK    3  A    between atoms: C_3  and  C_9
REMARK    4  A    between atoms: C_9  and  C_14
REMARK    5  A    between atoms: C_18  and  C_19
REMARK    6  A    between atoms: C_19  and  C_22
REMARK    7  A    between atoms: C_24  and  C_26
REMARK                            x       y       z     vdW  Elec       q    Type
REMARK                         _______ _______ _______ _____ _____    ______ ____
ROOT
ATOM      1  O   UNL     1      34.625 -16.529 -25.494  0.00  0.00    -0.291 OA
ATOM      2  C   UNL     1      34.744 -16.383 -24.260  0.00  0.00    +0.173 C 
ENDROOT
BRANCH   2   4
ATOM      3  C   UNL     1      35.328 -19.724 -21.734  0.00  0.00    -0.021 C 
ATOM      4  C   UNL     1      34.946 -17.533 -23.391  0.00  0.00    +0.035 C 
ATOM      5  C   UNL     1      34.981 -19.925 -23.062  0.00  0.00    -0.004 C 
ATOM      6  C   UNL     1      35.488 -18.445 -21.221  0.00  0.00    -0.004 C 
ATOM      7  C   UNL     1      34.789 -18.823 -23.895  0.00  0.00    +0.003 C 
ATOM      8  C   UNL     1      35.296 -17.343 -22.055  0.00  0.00    +0.003 C 
BRANCH   3   9
ATOM      9  C   UNL     1      35.537 -20.914 -20.834  0.00  0.00    +0.047 C 
BRANCH   9  14
ATOM     10  S   UNL     1      35.384 -21.964 -18.292  0.00  0.00    -0.048 S 
ATOM     11  O   UNL     1      32.577 -20.536 -20.523  0.00  0.00    -0.274 OA
ATOM     12  O   UNL     1      33.627 -23.616 -17.247  0.00  0.00    -0.263 OA
ATOM     13  N   UNL     1      32.902 -22.127 -18.877  0.00  0.00    -0.246 N 
ATOM     14  C   UNL     1      34.767 -20.784 -19.532  0.00  0.00    +0.137 C 
ATOM     15  C   UNL     1      33.303 -21.112 -19.721  0.00  0.00    +0.239 C 
ATOM     16  C   UNL     1      33.820 -22.712 -18.044  0.00  0.00    +0.279 C 
ATOM     17  H   UNL     1      31.966 -22.429 -18.873  0.00  0.00    +0.158 HD
ENDBRANCH   9  14
ENDBRANCH   3   9
ENDBRANCH   2   4
BRANCH   2  18
ATOM     18  C   UNL     1      34.677 -14.967 -23.658  0.00  0.00    +0.076 C 
BRANCH  18  19
ATOM     19  C   UNL     1      33.740 -14.024 -24.419  0.00  0.00    +0.066 C 
BRANCH  19  22
ATOM     20  O   UNL     1      33.020 -11.159 -22.272  0.00  0.00    -0.449 OA
ATOM     21  N   UNL     1      33.985 -11.567 -24.277  0.00  0.00    -0.373 NA
ATOM     22  C   UNL     1      33.547 -12.718 -23.708  0.00  0.00    +0.130 C 
ATOM     23  C   UNL     1      32.964 -12.501 -22.505  0.00  0.00    +0.216 C 
ATOM     24  C   UNL     1      33.644 -10.671 -23.378  0.00  0.00    +0.277 C 
ATOM     25  C   UNL     1      32.334 -13.331 -21.473  0.00  0.00    +0.055 C 
BRANCH  24  26
ATOM     26  C   UNL     1      33.836  -9.247 -23.394  0.00  0.00    +0.066 C 
ATOM     27  C   UNL     1      35.084  -8.708 -23.720  0.00  0.00    +0.006 C 
ATOM     28  C   UNL     1      32.776  -8.391 -23.079  0.00  0.00    +0.006 C 
ATOM     29  C   UNL     1      35.270  -7.325 -23.733  0.00  0.00    +0.000 C 
ATOM     30  C   UNL     1      32.962  -7.009 -23.093  0.00  0.00    +0.000 C 
ATOM     31  C   UNL     1      34.210  -6.476 -23.419  0.00  0.00    +0.000 C 
ENDBRANCH  24  26
ENDBRANCH  19  22
ENDBRANCH  18  19
ENDBRANCH   2  18
TORSDOF 7
ENDMDL
MODEL 9
REMARK VINA RESULT:     -11.3      2.756      3.800
REMARK  Name = 60870
REMARK  7 active torsions:
REMARK  status: ('A' for Active; 'I' for Inactive)
REMARK    1  A    between atoms: C_2  and  C_4
REMARK    2  A    between atoms: C_2  and  C_18
REMARK    3  A    between atoms: C_3  and  C_9
REMARK    4  A    between atoms: C_9  and  C_14
REMARK    5  A    between atoms: C_18  and  C_19
REMARK    6  A    between atoms: C_19  and  C_22
REMARK    7  A    between atoms: C_24  and  C_26
REMARK                            x       y       z     vdW  Elec       q    Type
REMARK                         _______ _______ _______ _____ _____    ______ ____
ROOT
ATOM      1  O   UNL     1      33.795 -20.930 -19.733  0.00  0.00    -0.291 OA
ATOM      2  C   UNL     1      35.021 -21.113 -19.590  0.00  0.00    +0.173 C 
ENDROOT
BRANCH   2   4
ATOM      3  C   UNL     1      36.551 -22.805 -16.030  0.00  0.00    -0.021 C 
ATOM      4  C   UNL     1      35.548 -21.696 -18.365  0.00  0.00    +0.035 C 
ATOM      5  C   UNL     1      35.223 -23.013 -16.367  0.00  0.00    -0.004 C 
ATOM      6  C   UNL     1      37.388 -22.053 -16.841  0.00  0.00    -0.004 C 
ATOM      7  C   UNL     1      34.718 -22.455 -17.542  0.00  0.00    +0.003 C 
ATOM      8  C   UNL     1      36.883 -21.495 -18.016  0.00  0.00    +0.003 C 
BRANCH   3   9
ATOM      9  C   UNL     1      37.097 -23.409 -14.761  0.00  0.00    +0.047 C 
BRANCH   9  14
ATOM     10  S   UNL     1      35.559 -23.777 -12.506  0.00  0.00    -0.048 S 
ATOM     11  O   UNL     1      37.293 -26.404 -14.739  0.00  0.00    -0.274 OA
ATOM     12  O   UNL     1      35.923 -25.374 -10.451  0.00  0.00    -0.263 OA
ATOM     13  N   UNL     1      36.671 -26.076 -12.536  0.00  0.00    -0.246 N 
ATOM     14  C   UNL     1      36.118 -24.382 -14.129  0.00  0.00    +0.137 C 
ATOM     15  C   UNL     1      36.764 -25.724 -13.867  0.00  0.00    +0.239 C 
ATOM     16  C   UNL     1      36.079 -25.213 -11.652  0.00  0.00    +0.279 C 
ATOM     17  H   UNL     1      37.028 -26.938 -12.225  0.00  0.00    +0.158 HD
ENDBRANCH   9  14
ENDBRANCH   3   9
ENDBRANCH   2   4
BRANCH   2  18
ATOM     18  C   UNL     1      35.981 -20.717 -20.728  0.00  0.00    +0.076 C 
BRANCH  18  19
ATOM     19  C   UNL     1      36.520 -19.289 -20.603  0.00  0.00    +0.066 C 
BRANCH  19  22
ATOM     20  O   UNL     1      34.550 -17.280 -22.929  0.00  0.00    -0.449 OA
ATOM     21  N   UNL     1      35.360 -17.116 -20.823  0.00  0.00    -0.373 NA
ATOM     22  C   UNL     1      35.706 -18.302 -21.385  0.00  0.00    +0.130 C 
ATOM     23  C   UNL     1      35.232 -18.425 -22.647  0.00  0.00    +0.216 C 
ATOM     24  C   UNL     1      34.673 -16.547 -21.789  0.00  0.00    +0.277 C 
ATOM     25  C   UNL     1      35.288 -19.445 -23.700  0.00  0.00    +0.055 C 
BRANCH  24  26
ATOM     26  C   UNL     1      34.030 -15.263 -21.815  0.00  0.00    +0.066 C 
ATOM     27  C   UNL     1      34.273 -14.375 -22.866  0.00  0.00    +0.006 C 
ATOM     28  C   UNL     1      33.158 -14.893 -20.786  0.00  0.00    +0.006 C 
ATOM     29  C   UNL     1      33.649 -13.127 -22.890  0.00  0.00    +0.000 C 
ATOM     30  C   UNL     1      32.535 -13.645 -20.810  0.00  0.00    +0.000 C 
ATOM     31  C   UNL     1      32.781 -12.762 -21.862  0.00  0.00    +0.000 C 
ENDBRANCH  24  26
ENDBRANCH  19  22
ENDBRANCH  18  19
ENDBRANCH   2  18
TORSDOF 7
ENDMDL
