MODEL 1
REMARK VINA RESULT:     -12.9      0.000      0.000
REMARK  Name = 51049992
REMARK  10 active torsions:
REMARK  status: ('A' for Active; 'I' for Inactive)
REMARK    1  A    between atoms: C_1  and  C_7
REMARK    2  A    between atoms: C_6  and  C_23
REMARK    3  A    between atoms: C_7  and  N_8
REMARK    4  A    between atoms: C_23  and  O_24
REMARK    5  A    between atoms: O_24  and  C_25
REMARK    6  A    between atoms: C_26  and  C_31
REMARK    7  A    between atoms: C_31  and  C_32
REMARK    8  A    between atoms: C_31  and  C_35
REMARK    9  A    between atoms: C_35  and  C_37
REMARK   10  A    between atoms: C_37  and  O_38
REMARK                            x       y       z     vdW  Elec       q    Type
REMARK                         _______ _______ _______ _____ _____    ______ ____
ROOT
ATOM      1  C   UNL     1      33.753 -13.814 -23.112  0.00  0.00    -0.043 C 
ATOM      2  C   UNL     1      33.836 -12.549 -23.694  0.00  0.00    -0.007 C 
ATOM      3  C   UNL     1      32.905 -14.026 -22.024  0.00  0.00    -0.007 C 
ATOM      4  C   UNL     1      33.071 -11.498 -23.190  0.00  0.00    -0.001 C 
ATOM      5  C   UNL     1      32.140 -12.975 -21.520  0.00  0.00    -0.001 C 
ATOM      6  C   UNL     1      32.223 -11.711 -22.103  0.00  0.00    +0.021 C 
ENDROOT
BRANCH   1   7
ATOM      7  C   UNL     1      34.579 -14.949 -23.656  0.00  0.00    -0.050 C 
BRANCH   7   8
ATOM      8  N   UNL     1      34.381 -16.181 -22.893  0.00  0.00    +0.390 N 
ATOM      9  C   UNL     1      35.217 -18.567 -21.377  0.00  0.00    +0.033 C 
ATOM     10  C   UNL     1      34.666 -17.299 -20.701  0.00  0.00    -0.015 C 
ATOM     11  C   UNL     1      34.738 -18.631 -22.838  0.00  0.00    -0.015 C 
ATOM     12  C   UNL     1      34.990 -17.321 -23.591  0.00  0.00    -0.076 C 
ATOM     13  C   UNL     1      34.921 -16.038 -21.535  0.00  0.00    -0.076 C 
ATOM     14  C   UNL     1      34.849 -19.819 -20.608  0.00  0.00    -0.019 C 
ATOM     15  C   UNL     1      36.740 -18.638 -21.282  0.00  0.00    -0.023 C 
ATOM     16  C   UNL     1      36.015 -20.464 -20.168  0.00  0.00    -0.004 C 
ATOM     17  C   UNL     1      37.175 -19.709 -20.600  0.00  0.00    -0.005 C 
ATOM     18  C   UNL     1      33.598 -20.343 -20.322  0.00  0.00    -0.004 C 
ATOM     19  C   UNL     1      35.956 -21.639 -19.437  0.00  0.00    -0.000 C 
ATOM     20  C   UNL     1      33.528 -21.528 -19.585  0.00  0.00    -0.000 C 
ATOM     21  C   UNL     1      34.697 -22.171 -19.146  0.00  0.00    -0.000 C 
ATOM     22  H   UNL     1      33.380 -16.362 -22.814  0.00  0.00    -0.079 HD
ENDBRANCH   7   8
ENDBRANCH   1   7
BRANCH   6  23
ATOM     23  C   UNL     1      31.402 -10.587 -21.567  0.00  0.00    +0.232 C 
BRANCH  23  24
ATOM     24  O   UNL     1      32.260  -9.607 -20.993  0.00  0.00    -0.471 OA
BRANCH  24  25
ATOM     25  C   UNL     1      32.251  -8.365 -21.570  0.00  0.00    +0.139 C 
ATOM     26  C   UNL     1      32.235  -5.835 -22.746  0.00  0.00    -0.010 C 
ATOM     27  C   UNL     1      31.904  -8.222 -22.914  0.00  0.00    +0.037 C 
ATOM     28  C   UNL     1      32.590  -7.242 -20.815  0.00  0.00    +0.037 C 
ATOM     29  C   UNL     1      31.895  -6.957 -23.501  0.00  0.00    -0.000 C 
ATOM     30  C   UNL     1      32.582  -5.977 -21.403  0.00  0.00    -0.000 C 
BRANCH  26  31
ATOM     31  C   UNL     1      32.226  -4.482 -23.374  0.00  0.00    +0.097 C 
BRANCH  31  32
ATOM     32  C   UNL     1      32.833  -4.503 -24.733  0.00  0.00    -0.087 C 
ATOM     33  C   UNL     1      33.334  -4.533 -25.825  0.00  0.00    -0.090 C 
ATOM     34  C   UNL     1      33.945  -4.568 -27.152  0.00  0.00    +0.090 C 
ENDBRANCH  31  32
BRANCH  31  35
ATOM     35  C   UNL     1      30.800  -3.871 -23.439  0.00  0.00    +0.127 C 
BRANCH  35  37
ATOM     36  O   UNL     1      29.617  -2.027 -22.363  0.00  0.00    -0.250 OA
ATOM     37  C   UNL     1      30.666  -2.534 -22.735  0.00  0.00    +0.315 C 
BRANCH  37  38
ATOM     38  O   UNL     1      31.879  -1.951 -22.546  0.00  0.00    -0.480 OA
ATOM     39  H   UNL     1      32.265  -1.940 -21.694  0.00  0.00    +0.295 HD
ENDBRANCH  37  38
ENDBRANCH  35  37
ENDBRANCH  31  35
ENDBRANCH  26  31
ENDBRANCH  24  25
ENDBRANCH  23  24
ENDBRANCH   6  23
TORSDOF 10
ENDMDL
MODEL 2
REMARK VINA RESULT:     -12.5      4.922      9.128
REMARK  Name = 51049992
REMARK  10 active torsions:
REMARK  status: ('A' for Active; 'I' for Inactive)
REMARK    1  A    between atoms: C_1  and  C_7
REMARK    2  A    between atoms: C_6  and  C_23
REMARK    3  A    between atoms: C_7  and  N_8
REMARK    4  A    between atoms: C_23  and  O_24
REMARK    5  A    between atoms: O_24  and  C_25
REMARK    6  A    between atoms: C_26  and  C_31
REMARK    7  A    between atoms: C_31  and  C_32
REMARK    8  A    between atoms: C_31  and  C_35
REMARK    9  A    between atoms: C_35  and  C_37
REMARK   10  A    between atoms: C_37  and  O_38
REMARK                            x       y       z     vdW  Elec       q    Type
REMARK                         _______ _______ _______ _____ _____    ______ ____
ROOT
ATOM      1  C   UNL     1      33.857 -21.842 -18.805  0.00  0.00    -0.043 C 
ATOM      2  C   UNL     1      32.938 -21.000 -19.431  0.00  0.00    -0.007 C 
ATOM      3  C   UNL     1      35.209 -21.774 -19.144  0.00  0.00    -0.007 C 
ATOM      4  C   UNL     1      33.371 -20.090 -20.395  0.00  0.00    -0.001 C 
ATOM      5  C   UNL     1      35.641 -20.864 -20.108  0.00  0.00    -0.001 C 
ATOM      6  C   UNL     1      34.723 -20.022 -20.733  0.00  0.00    +0.021 C 
ENDROOT
BRANCH   1   7
ATOM      7  C   UNL     1      33.389 -22.824 -17.764  0.00  0.00    -0.050 C 
BRANCH   7   8
ATOM      8  N   UNL     1      34.510 -23.425 -17.040  0.00  0.00    +0.390 N 
ATOM      9  C   UNL     1      36.220 -23.957 -14.699  0.00  0.00    +0.033 C 
ATOM     10  C   UNL     1      35.178 -24.964 -15.219  0.00  0.00    -0.015 C 
ATOM     11  C   UNL     1      36.627 -22.994 -15.829  0.00  0.00    -0.015 C 
ATOM     12  C   UNL     1      35.413 -22.382 -16.536  0.00  0.00    -0.076 C 
ATOM     13  C   UNL     1      34.019 -24.277 -15.949  0.00  0.00    -0.076 C 
ATOM     14  C   UNL     1      37.421 -24.653 -14.092  0.00  0.00    -0.019 C 
ATOM     15  C   UNL     1      35.708 -23.200 -13.474  0.00  0.00    -0.023 C 
ATOM     16  C   UNL     1      37.529 -24.311 -12.736  0.00  0.00    -0.004 C 
ATOM     17  C   UNL     1      36.453 -23.408 -12.378  0.00  0.00    -0.005 C 
ATOM     18  C   UNL     1      38.335 -25.510 -14.682  0.00  0.00    -0.004 C 
ATOM     19  C   UNL     1      38.549 -24.816 -11.945  0.00  0.00    -0.000 C 
ATOM     20  C   UNL     1      39.367 -26.025 -13.893  0.00  0.00    -0.000 C 
ATOM     21  C   UNL     1      39.473 -25.681 -12.536  0.00  0.00    -0.000 C 
ATOM     22  H   UNL     1      35.039 -24.013 -17.683  0.00  0.00    -0.079 HD
ENDBRANCH   7   8
ENDBRANCH   1   7
BRANCH   6  23
ATOM     23  C   UNL     1      35.186 -19.047 -21.762  0.00  0.00    +0.232 C 
BRANCH  23  24
ATOM     24  O   UNL     1      35.602 -17.846 -21.122  0.00  0.00    -0.471 OA
BRANCH  24  25
ATOM     25  C   UNL     1      35.007 -16.685 -21.541  0.00  0.00    +0.139 C 
ATOM     26  C   UNL     1      33.797 -14.321 -22.394  0.00  0.00    -0.010 C 
ATOM     27  C   UNL     1      34.926 -16.395 -22.903  0.00  0.00    +0.037 C 
ATOM     28  C   UNL     1      34.483 -15.793 -20.606  0.00  0.00    +0.037 C 
ATOM     29  C   UNL     1      34.321 -15.212 -23.329  0.00  0.00    -0.000 C 
ATOM     30  C   UNL     1      33.879 -14.610 -21.032  0.00  0.00    -0.000 C 
BRANCH  26  31
ATOM     31  C   UNL     1      33.150 -13.056 -22.849  0.00  0.00    +0.097 C 
BRANCH  31  32
ATOM     32  C   UNL     1      32.288 -12.467 -21.788  0.00  0.00    -0.087 C 
ATOM     33  C   UNL     1      31.592 -11.976 -20.940  0.00  0.00    -0.090 C 
ATOM     34  C   UNL     1      30.747 -11.378 -19.909  0.00  0.00    +0.090 C 
ENDBRANCH  31  32
BRANCH  31  35
ATOM     35  C   UNL     1      34.185 -12.006 -23.337  0.00  0.00    +0.127 C 
BRANCH  35  37
ATOM     36  O   UNL     1      33.656 -12.551 -25.656  0.00  0.00    -0.250 OA
ATOM     37  C   UNL     1      34.272 -11.875 -24.845  0.00  0.00    +0.315 C 
BRANCH  37  38
ATOM     38  O   UNL     1      35.129 -10.883 -25.206  0.00  0.00    -0.480 OA
ATOM     39  H   UNL     1      34.826  -9.999 -25.258  0.00  0.00    +0.295 HD
ENDBRANCH  37  38
ENDBRANCH  35  37
ENDBRANCH  31  35
ENDBRANCH  26  31
ENDBRANCH  24  25
ENDBRANCH  23  24
ENDBRANCH   6  23
TORSDOF 10
ENDMDL
MODEL 3
REMARK VINA RESULT:     -12.5      1.570      2.330
REMARK  Name = 51049992
REMARK  10 active torsions:
REMARK  status: ('A' for Active; 'I' for Inactive)
REMARK    1  A    between atoms: C_1  and  C_7
REMARK    2  A    between atoms: C_6  and  C_23
REMARK    3  A    between atoms: C_7  and  N_8
REMARK    4  A    between atoms: C_23  and  O_24
REMARK    5  A    between atoms: O_24  and  C_25
REMARK    6  A    between atoms: C_26  and  C_31
REMARK    7  A    between atoms: C_31  and  C_32
REMARK    8  A    between atoms: C_31  and  C_35
REMARK    9  A    between atoms: C_35  and  C_37
REMARK   10  A    between atoms: C_37  and  O_38
REMARK                            x       y       z     vdW  Elec       q    Type
REMARK                         _______ _______ _______ _____ _____    ______ ____
ROOT
ATOM      1  C   UNL     1      33.857 -13.981 -23.284  0.00  0.00    -0.043 C 
ATOM      2  C   UNL     1      34.036 -12.717 -23.848  0.00  0.00    -0.007 C 
ATOM      3  C   UNL     1      32.985 -14.145 -22.207  0.00  0.00    -0.007 C 
ATOM      4  C   UNL     1      33.346 -11.620 -23.334  0.00  0.00    -0.001 C 
ATOM      5  C   UNL     1      32.295 -13.048 -21.693  0.00  0.00    -0.001 C 
ATOM      6  C   UNL     1      32.475 -11.785 -22.257  0.00  0.00    +0.021 C 
ENDROOT
BRANCH   1   7
ATOM      7  C   UNL     1      34.602 -15.164 -23.838  0.00  0.00    -0.050 C 
BRANCH   7   8
ATOM      8  N   UNL     1      34.402 -16.364 -23.025  0.00  0.00    +0.390 N 
ATOM      9  C   UNL     1      35.233 -18.680 -21.402  0.00  0.00    +0.033 C 
ATOM     10  C   UNL     1      34.673 -17.386 -20.785  0.00  0.00    -0.015 C 
ATOM     11  C   UNL     1      34.765 -18.808 -22.863  0.00  0.00    -0.015 C 
ATOM     12  C   UNL     1      35.020 -17.531 -23.670  0.00  0.00    -0.076 C 
ATOM     13  C   UNL     1      34.932 -16.161 -21.670  0.00  0.00    -0.076 C 
ATOM     14  C   UNL     1      34.862 -19.899 -20.584  0.00  0.00    -0.019 C 
ATOM     15  C   UNL     1      36.756 -18.743 -21.293  0.00  0.00    -0.023 C 
ATOM     16  C   UNL     1      36.026 -20.521 -20.108  0.00  0.00    -0.004 C 
ATOM     17  C   UNL     1      37.188 -19.783 -20.563  0.00  0.00    -0.005 C 
ATOM     18  C   UNL     1      33.611 -20.414 -20.284  0.00  0.00    -0.004 C 
ATOM     19  C   UNL     1      35.965 -21.664 -19.328  0.00  0.00    -0.000 C 
ATOM     20  C   UNL     1      33.538 -21.567 -19.498  0.00  0.00    -0.000 C 
ATOM     21  C   UNL     1      34.705 -22.187 -19.024  0.00  0.00    -0.000 C 
ATOM     22  H   UNL     1      33.401 -16.543 -22.946  0.00  0.00    -0.079 HD
ENDBRANCH   7   8
ENDBRANCH   1   7
BRANCH   6  23
ATOM     23  C   UNL     1      31.734 -10.612 -21.711  0.00  0.00    +0.232 C 
BRANCH  23  24
ATOM     24  O   UNL     1      32.653  -9.567 -21.416  0.00  0.00    -0.471 OA
BRANCH  24  25
ATOM     25  C   UNL     1      32.698  -8.519 -22.296  0.00  0.00    +0.139 C 
ATOM     26  C   UNL     1      32.790  -6.381 -24.086  0.00  0.00    -0.010 C 
ATOM     27  C   UNL     1      33.928  -8.036 -22.745  0.00  0.00    +0.037 C 
ATOM     28  C   UNL     1      31.514  -7.931 -22.742  0.00  0.00    +0.037 C 
ATOM     29  C   UNL     1      33.974  -6.967 -23.640  0.00  0.00    -0.000 C 
ATOM     30  C   UNL     1      31.560  -6.862 -23.637  0.00  0.00    -0.000 C 
BRANCH  26  31
ATOM     31  C   UNL     1      32.838  -5.238 -25.043  0.00  0.00    +0.097 C 
BRANCH  31  32
ATOM     32  C   UNL     1      32.271  -3.997 -24.447  0.00  0.00    -0.087 C 
ATOM     33  C   UNL     1      31.812  -3.004 -23.950  0.00  0.00    -0.090 C 
ATOM     34  C   UNL     1      31.250  -1.797 -23.346  0.00  0.00    +0.090 C 
ENDBRANCH  31  32
BRANCH  31  35
ATOM     35  C   UNL     1      34.274  -4.967 -25.568  0.00  0.00    +0.127 C 
BRANCH  35  37
ATOM     36  O   UNL     1      34.598  -2.801 -26.646  0.00  0.00    -0.250 OA
ATOM     37  C   UNL     1      34.338  -3.993 -26.728  0.00  0.00    +0.315 C 
BRANCH  37  38
ATOM     38  O   UNL     1      34.079  -4.615 -27.909  0.00  0.00    -0.480 OA
ATOM     39  H   UNL     1      33.214  -4.600 -28.266  0.00  0.00    +0.295 HD
ENDBRANCH  37  38
ENDBRANCH  35  37
ENDBRANCH  31  35
ENDBRANCH  26  31
ENDBRANCH  24  25
ENDBRANCH  23  24
ENDBRANCH   6  23
TORSDOF 10
ENDMDL
MODEL 4
REMARK VINA RESULT:     -12.4      4.969      9.205
REMARK  Name = 51049992
REMARK  10 active torsions:
REMARK  status: ('A' for Active; 'I' for Inactive)
REMARK    1  A    between atoms: C_1  and  C_7
REMARK    2  A    between atoms: C_6  and  C_23
REMARK    3  A    between atoms: C_7  and  N_8
REMARK    4  A    between atoms: C_23  and  O_24
REMARK    5  A    between atoms: O_24  and  C_25
REMARK    6  A    between atoms: C_26  and  C_31
REMARK    7  A    between atoms: C_31  and  C_32
REMARK    8  A    between atoms: C_31  and  C_35
REMARK    9  A    between atoms: C_35  and  C_37
REMARK   10  A    between atoms: C_37  and  O_38
REMARK                            x       y       z     vdW  Elec       q    Type
REMARK                         _______ _______ _______ _____ _____    ______ ____
ROOT
ATOM      1  C   UNL     1      33.657 -21.826 -18.756  0.00  0.00    -0.043 C 
ATOM      2  C   UNL     1      35.032 -21.795 -18.992  0.00  0.00    -0.007 C 
ATOM      3  C   UNL     1      32.809 -20.976 -19.467  0.00  0.00    -0.007 C 
ATOM      4  C   UNL     1      35.558 -20.916 -19.938  0.00  0.00    -0.001 C 
ATOM      5  C   UNL     1      33.335 -20.096 -20.413  0.00  0.00    -0.001 C 
ATOM      6  C   UNL     1      34.709 -20.066 -20.649  0.00  0.00    +0.021 C 
ENDROOT
BRANCH   1   7
ATOM      7  C   UNL     1      33.090 -22.775 -17.735  0.00  0.00    -0.050 C 
BRANCH   7   8
ATOM      8  N   UNL     1      33.932 -22.856 -16.540  0.00  0.00    +0.390 N 
ATOM      9  C   UNL     1      35.755 -24.151 -14.621  0.00  0.00    +0.033 C 
ATOM     10  C   UNL     1      36.235 -23.138 -15.676  0.00  0.00    -0.015 C 
ATOM     11  C   UNL     1      34.256 -23.942 -14.339  0.00  0.00    -0.015 C 
ATOM     12  C   UNL     1      33.425 -23.887 -15.624  0.00  0.00    -0.076 C 
ATOM     13  C   UNL     1      35.329 -23.114 -16.912  0.00  0.00    -0.076 C 
ATOM     14  C   UNL     1      36.582 -24.077 -13.354  0.00  0.00    -0.019 C 
ATOM     15  C   UNL     1      36.051 -25.589 -15.045  0.00  0.00    -0.023 C 
ATOM     16  C   UNL     1      37.225 -25.305 -13.137  0.00  0.00    -0.004 C 
ATOM     17  C   UNL     1      36.879 -26.226 -14.202  0.00  0.00    -0.005 C 
ATOM     18  C   UNL     1      36.752 -23.022 -12.471  0.00  0.00    -0.004 C 
ATOM     19  C   UNL     1      38.048 -25.503 -12.040  0.00  0.00    -0.000 C 
ATOM     20  C   UNL     1      37.580 -23.212 -11.361  0.00  0.00    -0.000 C 
ATOM     21  C   UNL     1      38.222 -24.442 -11.148  0.00  0.00    -0.000 C 
ATOM     22  H   UNL     1      33.897 -21.961 -16.054  0.00  0.00    -0.079 HD
ENDBRANCH   7   8
ENDBRANCH   1   7
BRANCH   6  23
ATOM     23  C   UNL     1      35.271 -19.128 -21.662  0.00  0.00    +0.232 C 
BRANCH  23  24
ATOM     24  O   UNL     1      35.645 -17.912 -21.026  0.00  0.00    -0.471 OA
BRANCH  24  25
ATOM     25  C   UNL     1      35.035 -16.769 -21.471  0.00  0.00    +0.139 C 
ATOM     26  C   UNL     1      33.796 -14.440 -22.378  0.00  0.00    -0.010 C 
ATOM     27  C   UNL     1      34.960 -16.506 -22.839  0.00  0.00    +0.037 C 
ATOM     28  C   UNL     1      34.491 -15.867 -20.557  0.00  0.00    +0.037 C 
ATOM     29  C   UNL     1      34.340 -15.341 -23.292  0.00  0.00    -0.000 C 
ATOM     30  C   UNL     1      33.871 -14.702 -21.010  0.00  0.00    -0.000 C 
BRANCH  26  31
ATOM     31  C   UNL     1      33.133 -13.195 -22.862  0.00  0.00    +0.097 C 
BRANCH  31  32
ATOM     32  C   UNL     1      32.304 -12.564 -21.798  0.00  0.00    -0.087 C 
ATOM     33  C   UNL     1      31.644 -12.041 -20.940  0.00  0.00    -0.090 C 
ATOM     34  C   UNL     1      30.845 -11.404 -19.896  0.00  0.00    +0.090 C 
ENDBRANCH  31  32
BRANCH  31  35
ATOM     35  C   UNL     1      34.150 -12.164 -23.423  0.00  0.00    +0.127 C 
BRANCH  35  37
ATOM     36  O   UNL     1      33.534 -12.782 -25.703  0.00  0.00    -0.250 OA
ATOM     37  C   UNL     1      34.162 -12.065 -24.936  0.00  0.00    +0.315 C 
BRANCH  37  38
ATOM     38  O   UNL     1      34.961 -11.051 -25.358  0.00  0.00    -0.480 OA
ATOM     39  H   UNL     1      35.887 -11.099 -25.230  0.00  0.00    +0.295 HD
ENDBRANCH  37  38
ENDBRANCH  35  37
ENDBRANCH  31  35
ENDBRANCH  26  31
ENDBRANCH  24  25
ENDBRANCH  23  24
ENDBRANCH   6  23
TORSDOF 10
ENDMDL
MODEL 5
REMARK VINA RESULT:     -12.3      3.886     13.620
REMARK  Name = 51049992
REMARK  10 active torsions:
REMARK  status: ('A' for Active; 'I' for Inactive)
REMARK    1  A    between atoms: C_1  and  C_7
REMARK    2  A    between atoms: C_6  and  C_23
REMARK    3  A    between atoms: C_7  and  N_8
REMARK    4  A    between atoms: C_23  and  O_24
REMARK    5  A    between atoms: O_24  and  C_25
REMARK    6  A    between atoms: C_26  and  C_31
REMARK    7  A    between atoms: C_31  and  C_32
REMARK    8  A    between atoms: C_31  and  C_35
REMARK    9  A    between atoms: C_35  and  C_37
REMARK   10  A    between atoms: C_37  and  O_38
REMARK                            x       y       z     vdW  Elec       q    Type
REMARK                         _______ _______ _______ _____ _____    ______ ____
ROOT
ATOM      1  C   UNL     1      32.676 -11.754 -21.978  0.00  0.00    -0.043 C 
ATOM      2  C   UNL     1      32.417 -13.035 -21.489  0.00  0.00    -0.007 C 
ATOM      3  C   UNL     1      33.455 -11.591 -23.124  0.00  0.00    -0.007 C 
ATOM      4  C   UNL     1      32.936 -14.151 -22.145  0.00  0.00    -0.001 C 
ATOM      5  C   UNL     1      33.975 -12.706 -23.780  0.00  0.00    -0.001 C 
ATOM      6  C   UNL     1      33.715 -13.986 -23.290  0.00  0.00    +0.021 C 
ENDROOT
BRANCH   1   7
ATOM      7  C   UNL     1      32.115 -10.551 -21.269  0.00  0.00    -0.050 C 
BRANCH   7   8
ATOM      8  N   UNL     1      32.289  -9.327 -22.053  0.00  0.00    +0.390 N 
ATOM      9  C   UNL     1      31.829  -6.505 -22.766  0.00  0.00    +0.033 C 
ATOM     10  C   UNL     1      33.097  -6.986 -22.039  0.00  0.00    -0.015 C 
ATOM     11  C   UNL     1      31.190  -7.676 -23.535  0.00  0.00    -0.015 C 
ATOM     12  C   UNL     1      31.014  -8.920 -22.658  0.00  0.00    -0.076 C 
ATOM     13  C   UNL     1      32.849  -8.257 -21.218  0.00  0.00    -0.076 C 
ATOM     14  C   UNL     1      32.114  -5.325 -23.673  0.00  0.00    -0.019 C 
ATOM     15  C   UNL     1      30.836  -5.860 -21.800  0.00  0.00    -0.023 C 
ATOM     16  C   UNL     1      31.375  -4.212 -23.246  0.00  0.00    -0.004 C 
ATOM     17  C   UNL     1      30.590  -4.571 -22.081  0.00  0.00    -0.005 C 
ATOM     18  C   UNL     1      32.950  -5.241 -24.775  0.00  0.00    -0.004 C 
ATOM     19  C   UNL     1      31.456  -2.997 -23.908  0.00  0.00    -0.000 C 
ATOM     20  C   UNL     1      33.038  -4.020 -25.449  0.00  0.00    -0.000 C 
ATOM     21  C   UNL     1      32.297  -2.908 -25.019  0.00  0.00    -0.000 C 
ATOM     22  H   UNL     1      32.949  -9.512 -22.808  0.00  0.00    -0.079 HD
ENDBRANCH   7   8
ENDBRANCH   1   7
BRANCH   6  23
ATOM     23  C   UNL     1      34.268 -15.179 -23.993  0.00  0.00    +0.232 C 
BRANCH  23  24
ATOM     24  O   UNL     1      35.381 -15.685 -23.265  0.00  0.00    -0.471 OA
BRANCH  24  25
ATOM     25  C   UNL     1      35.218 -16.900 -22.655  0.00  0.00    +0.139 C 
ATOM     26  C   UNL     1      34.891 -19.377 -21.412  0.00  0.00    -0.010 C 
ATOM     27  C   UNL     1      35.131 -16.978 -21.265  0.00  0.00    +0.037 C 
ATOM     28  C   UNL     1      35.142 -18.062 -23.423  0.00  0.00    +0.037 C 
ATOM     29  C   UNL     1      34.967 -18.216 -20.644  0.00  0.00    -0.000 C 
ATOM     30  C   UNL     1      34.979 -19.300 -22.802  0.00  0.00    -0.000 C 
BRANCH  26  31
ATOM     31  C   UNL     1      34.715 -20.701 -20.749  0.00  0.00    +0.097 C 
BRANCH  31  32
ATOM     32  C   UNL     1      35.724 -20.916 -19.675  0.00  0.00    -0.087 C 
ATOM     33  C   UNL     1      36.526 -21.097 -18.798  0.00  0.00    -0.090 C 
ATOM     34  C   UNL     1      37.499 -21.315 -17.731  0.00  0.00    +0.090 C 
ENDBRANCH  31  32
BRANCH  31  35
ATOM     35  C   UNL     1      33.284 -20.890 -20.179  0.00  0.00    +0.127 C 
BRANCH  35  37
ATOM     36  O   UNL     1      33.660 -23.152 -19.342  0.00  0.00    -0.250 OA
ATOM     37  C   UNL     1      33.150 -22.049 -19.209  0.00  0.00    +0.315 C 
BRANCH  37  38
ATOM     38  O   UNL     1      32.388 -21.709 -18.136  0.00  0.00    -0.480 OA
ATOM     39  H   UNL     1      32.299 -22.303 -17.419  0.00  0.00    +0.295 HD
ENDBRANCH  37  38
ENDBRANCH  35  37
ENDBRANCH  31  35
ENDBRANCH  26  31
ENDBRANCH  24  25
ENDBRANCH  23  24
ENDBRANCH   6  23
TORSDOF 10
ENDMDL
MODEL 6
REMARK VINA RESULT:     -12.0      6.033     14.462
REMARK  Name = 51049992
REMARK  10 active torsions:
REMARK  status: ('A' for Active; 'I' for Inactive)
REMARK    1  A    between atoms: C_1  and  C_7
REMARK    2  A    between atoms: C_6  and  C_23
REMARK    3  A    between atoms: C_7  and  N_8
REMARK    4  A    between atoms: C_23  and  O_24
REMARK    5  A    between atoms: O_24  and  C_25
REMARK    6  A    between atoms: C_26  and  C_31
REMARK    7  A    between atoms: C_31  and  C_32
REMARK    8  A    between atoms: C_31  and  C_35
REMARK    9  A    between atoms: C_35  and  C_37
REMARK   10  A    between atoms: C_37  and  O_38
REMARK                            x       y       z     vdW  Elec       q    Type
REMARK                         _______ _______ _______ _____ _____    ______ ____
ROOT
ATOM      1  C   UNL     1      35.507 -18.169 -22.610  0.00  0.00    -0.043 C 
ATOM      2  C   UNL     1      34.500 -19.044 -22.201  0.00  0.00    -0.007 C 
ATOM      3  C   UNL     1      36.769 -18.233 -22.017  0.00  0.00    -0.007 C 
ATOM      4  C   UNL     1      34.755 -19.981 -21.200  0.00  0.00    -0.001 C 
ATOM      5  C   UNL     1      37.023 -19.170 -21.017  0.00  0.00    -0.001 C 
ATOM      6  C   UNL     1      36.016 -20.044 -20.608  0.00  0.00    +0.021 C 
ENDROOT
BRANCH   1   7
ATOM      7  C   UNL     1      35.232 -17.157 -23.690  0.00  0.00    -0.050 C 
BRANCH   7   8
ATOM      8  N   UNL     1      34.440 -16.032 -23.192  0.00  0.00    +0.390 N 
ATOM      9  C   UNL     1      33.622 -13.208 -22.978  0.00  0.00    +0.033 C 
ATOM     10  C   UNL     1      32.823 -14.251 -23.780  0.00  0.00    -0.015 C 
ATOM     11  C   UNL     1      34.478 -13.914 -21.910  0.00  0.00    -0.015 C 
ATOM     12  C   UNL     1      35.300 -15.068 -22.493  0.00  0.00    -0.076 C 
ATOM     13  C   UNL     1      33.708 -15.393 -24.293  0.00  0.00    -0.076 C 
ATOM     14  C   UNL     1      32.720 -12.154 -22.370  0.00  0.00    -0.019 C 
ATOM     15  C   UNL     1      34.476 -12.329 -23.891  0.00  0.00    -0.023 C 
ATOM     16  C   UNL     1      33.051 -10.893 -22.888  0.00  0.00    -0.004 C 
ATOM     17  C   UNL     1      34.144 -11.030 -23.831  0.00  0.00    -0.005 C 
ATOM     18  C   UNL     1      31.699 -12.294 -21.443  0.00  0.00    -0.004 C 
ATOM     19  C   UNL     1      32.372  -9.752 -22.494  0.00  0.00    -0.000 C 
ATOM     20  C   UNL     1      31.009 -11.149 -21.039  0.00  0.00    -0.000 C 
ATOM     21  C   UNL     1      31.342  -9.888 -21.560  0.00  0.00    -0.000 C 
ATOM     22  H   UNL     1      33.755 -16.383 -22.523  0.00  0.00    -0.079 HD
ENDBRANCH   7   8
ENDBRANCH   1   7
BRANCH   6  23
ATOM     23  C   UNL     1      36.290 -21.049 -19.541  0.00  0.00    +0.232 C 
BRANCH  23  24
ATOM     24  O   UNL     1      35.206 -21.968 -19.468  0.00  0.00    -0.471 OA
BRANCH  24  25
ATOM     25  C   UNL     1      34.821 -22.370 -18.216  0.00  0.00    +0.139 C 
ATOM     26  C   UNL     1      34.035 -23.185 -15.666  0.00  0.00    -0.010 C 
ATOM     27  C   UNL     1      33.506 -22.776 -17.987  0.00  0.00    +0.037 C 
ATOM     28  C   UNL     1      35.742 -22.371 -17.169  0.00  0.00    +0.037 C 
ATOM     29  C   UNL     1      33.113 -23.184 -16.713  0.00  0.00    -0.000 C 
ATOM     30  C   UNL     1      35.349 -22.778 -15.894  0.00  0.00    -0.000 C 
BRANCH  26  31
ATOM     31  C   UNL     1      33.616 -23.621 -14.303  0.00  0.00    +0.097 C 
BRANCH  31  32
ATOM     32  C   UNL     1      32.218 -24.133 -14.295  0.00  0.00    -0.087 C 
ATOM     33  C   UNL     1      31.094 -24.558 -14.300  0.00  0.00    -0.090 C 
ATOM     34  C   UNL     1      29.726 -25.073 -14.310  0.00  0.00    +0.090 C 
ENDBRANCH  31  32
BRANCH  31  35
ATOM     35  C   UNL     1      34.575 -24.685 -13.703  0.00  0.00    +0.127 C 
BRANCH  35  37
ATOM     36  O   UNL     1      34.967 -25.010 -11.316  0.00  0.00    -0.250 OA
ATOM     37  C   UNL     1      35.106 -24.336 -12.326  0.00  0.00    +0.315 C 
BRANCH  37  38
ATOM     38  O   UNL     1      35.788 -23.160 -12.344  0.00  0.00    -0.480 OA
ATOM     39  H   UNL     1      35.554 -22.474 -11.751  0.00  0.00    +0.295 HD
ENDBRANCH  37  38
ENDBRANCH  35  37
ENDBRANCH  31  35
ENDBRANCH  26  31
ENDBRANCH  24  25
ENDBRANCH  23  24
ENDBRANCH   6  23
TORSDOF 10
ENDMDL
MODEL 7
REMARK VINA RESULT:     -12.0      5.947     14.846
REMARK  Name = 51049992
REMARK  10 active torsions:
REMARK  status: ('A' for Active; 'I' for Inactive)
REMARK    1  A    between atoms: C_1  and  C_7
REMARK    2  A    between atoms: C_6  and  C_23
REMARK    3  A    between atoms: C_7  and  N_8
REMARK    4  A    between atoms: C_23  and  O_24
REMARK    5  A    between atoms: O_24  and  C_25
REMARK    6  A    between atoms: C_26  and  C_31
REMARK    7  A    between atoms: C_31  and  C_32
REMARK    8  A    between atoms: C_31  and  C_35
REMARK    9  A    between atoms: C_35  and  C_37
REMARK   10  A    between atoms: C_37  and  O_38
REMARK                            x       y       z     vdW  Elec       q    Type
REMARK                         _______ _______ _______ _____ _____    ______ ____
ROOT
ATOM      1  C   UNL     1      35.533 -18.211 -22.645  0.00  0.00    -0.043 C 
ATOM      2  C   UNL     1      34.606 -19.107 -22.112  0.00  0.00    -0.007 C 
ATOM      3  C   UNL     1      36.838 -18.182 -22.152  0.00  0.00    -0.007 C 
ATOM      4  C   UNL     1      34.984 -19.973 -21.086  0.00  0.00    -0.001 C 
ATOM      5  C   UNL     1      37.215 -19.048 -21.126  0.00  0.00    -0.001 C 
ATOM      6  C   UNL     1      36.288 -19.944 -20.593  0.00  0.00    +0.021 C 
ENDROOT
BRANCH   1   7
ATOM      7  C   UNL     1      35.125 -17.277 -23.752  0.00  0.00    -0.050 C 
BRANCH   7   8
ATOM      8  N   UNL     1      34.360 -16.136 -23.247  0.00  0.00    +0.390 N 
ATOM      9  C   UNL     1      33.625 -13.292 -23.000  0.00  0.00    +0.033 C 
ATOM     10  C   UNL     1      32.804 -14.299 -23.827  0.00  0.00    -0.015 C 
ATOM     11  C   UNL     1      34.447 -14.038 -21.934  0.00  0.00    -0.015 C 
ATOM     12  C   UNL     1      35.241 -15.208 -22.524  0.00  0.00    -0.076 C 
ATOM     13  C   UNL     1      33.661 -15.459 -24.347  0.00  0.00    -0.076 C 
ATOM     14  C   UNL     1      32.747 -12.221 -22.387  0.00  0.00    -0.019 C 
ATOM     15  C   UNL     1      34.515 -12.426 -23.890  0.00  0.00    -0.023 C 
ATOM     16  C   UNL     1      33.122 -10.963 -22.883  0.00  0.00    -0.004 C 
ATOM     17  C   UNL     1      34.222 -11.119 -23.815  0.00  0.00    -0.005 C 
ATOM     18  C   UNL     1      31.712 -12.343 -21.475  0.00  0.00    -0.004 C 
ATOM     19  C   UNL     1      32.472  -9.807 -22.480  0.00  0.00    -0.000 C 
ATOM     20  C   UNL     1      31.051 -11.184 -21.061  0.00  0.00    -0.000 C 
ATOM     21  C   UNL     1      31.428  -9.926 -21.559  0.00  0.00    -0.000 C 
ATOM     22  H   UNL     1      33.658 -16.476 -22.592  0.00  0.00    -0.079 HD
ENDBRANCH   7   8
ENDBRANCH   1   7
BRANCH   6  23
ATOM     23  C   UNL     1      36.693 -20.872 -19.498  0.00  0.00    +0.232 C 
BRANCH  23  24
ATOM     24  O   UNL     1      35.539 -21.277 -18.771  0.00  0.00    -0.471 OA
BRANCH  24  25
ATOM     25  C   UNL     1      35.753 -22.010 -17.633  0.00  0.00    +0.139 C 
ATOM     26  C   UNL     1      36.186 -23.500 -15.315  0.00  0.00    -0.010 C 
ATOM     27  C   UNL     1      34.717 -22.769 -17.087  0.00  0.00    +0.037 C 
ATOM     28  C   UNL     1      37.005 -21.996 -17.019  0.00  0.00    +0.037 C 
ATOM     29  C   UNL     1      34.934 -23.514 -15.928  0.00  0.00    -0.000 C 
ATOM     30  C   UNL     1      37.222 -22.741 -15.860  0.00  0.00    -0.000 C 
BRANCH  26  31
ATOM     31  C   UNL     1      36.420 -24.297 -14.076  0.00  0.00    +0.097 C 
BRANCH  31  32
ATOM     32  C   UNL     1      37.802 -24.849 -14.029  0.00  0.00    -0.087 C 
ATOM     33  C   UNL     1      38.911 -25.310 -13.986  0.00  0.00    -0.090 C 
ATOM     34  C   UNL     1      40.259 -25.870 -13.931  0.00  0.00    +0.090 C 
ENDBRANCH  31  32
BRANCH  31  35
ATOM     35  C   UNL     1      36.129 -23.482 -12.787  0.00  0.00    +0.127 C 
BRANCH  35  37
ATOM     36  O   UNL     1      36.957 -24.304 -10.643  0.00  0.00    -0.250 OA
ATOM     37  C   UNL     1      36.103 -24.313 -11.519  0.00  0.00    +0.315 C 
BRANCH  37  38
ATOM     38  O   UNL     1      34.985 -25.083 -11.456  0.00  0.00    -0.480 OA
ATOM     39  H   UNL     1      34.761 -25.642 -12.172  0.00  0.00    +0.295 HD
ENDBRANCH  37  38
ENDBRANCH  35  37
ENDBRANCH  31  35
ENDBRANCH  26  31
ENDBRANCH  24  25
ENDBRANCH  23  24
ENDBRANCH   6  23
TORSDOF 10
ENDMDL
MODEL 8
REMARK VINA RESULT:     -12.0      4.886      9.206
REMARK  Name = 51049992
REMARK  10 active torsions:
REMARK  status: ('A' for Active; 'I' for Inactive)
REMARK    1  A    between atoms: C_1  and  C_7
REMARK    2  A    between atoms: C_6  and  C_23
REMARK    3  A    between atoms: C_7  and  N_8
REMARK    4  A    between atoms: C_23  and  O_24
REMARK    5  A    between atoms: O_24  and  C_25
REMARK    6  A    between atoms: C_26  and  C_31
REMARK    7  A    between atoms: C_31  and  C_32
REMARK    8  A    between atoms: C_31  and  C_35
REMARK    9  A    between atoms: C_35  and  C_37
REMARK   10  A    between atoms: C_37  and  O_38
REMARK                            x       y       z     vdW  Elec       q    Type
REMARK                         _______ _______ _______ _____ _____    ______ ____
ROOT
ATOM      1  C   UNL     1      33.604 -21.920 -18.660  0.00  0.00    -0.043 C 
ATOM      2  C   UNL     1      32.800 -21.046 -19.391  0.00  0.00    -0.007 C 
ATOM      3  C   UNL     1      34.976 -21.975 -18.907  0.00  0.00    -0.007 C 
ATOM      4  C   UNL     1      33.367 -20.228 -20.369  0.00  0.00    -0.001 C 
ATOM      5  C   UNL     1      35.543 -21.158 -19.884  0.00  0.00    -0.001 C 
ATOM      6  C   UNL     1      34.738 -20.284 -20.615  0.00  0.00    +0.021 C 
ENDROOT
BRANCH   1   7
ATOM      7  C   UNL     1      32.992 -22.802 -17.606  0.00  0.00    -0.050 C 
BRANCH   7   8
ATOM      8  N   UNL     1      33.842 -22.902 -16.419  0.00  0.00    +0.390 N 
ATOM      9  C   UNL     1      35.672 -24.232 -14.529  0.00  0.00    +0.033 C 
ATOM     10  C   UNL     1      36.150 -23.210 -15.575  0.00  0.00    -0.015 C 
ATOM     11  C   UNL     1      34.176 -24.017 -14.233  0.00  0.00    -0.015 C 
ATOM     12  C   UNL     1      33.336 -23.941 -15.511  0.00  0.00    -0.076 C 
ATOM     13  C   UNL     1      35.234 -23.164 -16.804  0.00  0.00    -0.076 C 
ATOM     14  C   UNL     1      36.508 -24.179 -13.267  0.00  0.00    -0.019 C 
ATOM     15  C   UNL     1      35.956 -25.666 -14.972  0.00  0.00    -0.023 C 
ATOM     16  C   UNL     1      37.146 -25.413 -13.070  0.00  0.00    -0.004 C 
ATOM     17  C   UNL     1      36.786 -26.319 -14.144  0.00  0.00    -0.005 C 
ATOM     18  C   UNL     1      36.692 -23.136 -12.373  0.00  0.00    -0.004 C 
ATOM     19  C   UNL     1      37.975 -25.630 -11.982  0.00  0.00    -0.000 C 
ATOM     20  C   UNL     1      37.527 -23.344 -11.272  0.00  0.00    -0.000 C 
ATOM     21  C   UNL     1      38.163 -24.581 -11.079  0.00  0.00    -0.000 C 
ATOM     22  H   UNL     1      33.817 -22.013 -15.921  0.00  0.00    -0.079 HD
ENDBRANCH   7   8
ENDBRANCH   1   7
BRANCH   6  23
ATOM     23  C   UNL     1      35.345 -19.408 -21.657  0.00  0.00    +0.232 C 
BRANCH  23  24
ATOM     24  O   UNL     1      35.835 -18.218 -21.049  0.00  0.00    -0.471 OA
BRANCH  24  25
ATOM     25  C   UNL     1      35.285 -17.037 -21.473  0.00  0.00    +0.139 C 
ATOM     26  C   UNL     1      34.169 -14.630 -22.335  0.00  0.00    -0.010 C 
ATOM     27  C   UNL     1      35.358 -16.676 -22.818  0.00  0.00    +0.037 C 
ATOM     28  C   UNL     1      34.655 -16.193 -20.558  0.00  0.00    +0.037 C 
ATOM     29  C   UNL     1      34.799 -15.473 -23.250  0.00  0.00    -0.000 C 
ATOM     30  C   UNL     1      34.097 -14.989 -20.990  0.00  0.00    -0.000 C 
BRANCH  26  31
ATOM     31  C   UNL     1      33.571 -13.343 -22.796  0.00  0.00    +0.097 C 
BRANCH  31  32
ATOM     32  C   UNL     1      33.515 -13.263 -24.281  0.00  0.00    -0.087 C 
ATOM     33  C   UNL     1      33.453 -13.206 -25.480  0.00  0.00    -0.090 C 
ATOM     34  C   UNL     1      33.379 -13.140 -26.938  0.00  0.00    +0.090 C 
ENDBRANCH  31  32
BRANCH  31  35
ATOM     35  C   UNL     1      32.160 -13.100 -22.197  0.00  0.00    +0.127 C 
BRANCH  35  37
ATOM     36  O   UNL     1      32.125 -12.114 -19.965  0.00  0.00    -0.250 OA
ATOM     37  C   UNL     1      32.102 -11.977 -21.180  0.00  0.00    +0.315 C 
BRANCH  37  38
ATOM     38  O   UNL     1      32.034 -10.764 -21.788  0.00  0.00    -0.480 OA
ATOM     39  H   UNL     1      31.759 -10.702 -22.681  0.00  0.00    +0.295 HD
ENDBRANCH  37  38
ENDBRANCH  35  37
ENDBRANCH  31  35
ENDBRANCH  26  31
ENDBRANCH  24  25
ENDBRANCH  23  24
ENDBRANCH   6  23
TORSDOF 10
ENDMDL
MODEL 9
REMARK VINA RESULT:     -11.9      1.399      1.759
REMARK  Name = 51049992
REMARK  10 active torsions:
REMARK  status: ('A' for Active; 'I' for Inactive)
REMARK    1  A    between atoms: C_1  and  C_7
REMARK    2  A    between atoms: C_6  and  C_23
REMARK    3  A    between atoms: C_7  and  N_8
REMARK    4  A    between atoms: C_23  and  O_24
REMARK    5  A    between atoms: O_24  and  C_25
REMARK    6  A    between atoms: C_26  and  C_31
REMARK    7  A    between atoms: C_31  and  C_32
REMARK    8  A    between atoms: C_31  and  C_35
REMARK    9  A    between atoms: C_35  and  C_37
REMARK   10  A    between atoms: C_37  and  O_38
REMARK                            x       y       z     vdW  Elec       q    Type
REMARK                         _______ _______ _______ _____ _____    ______ ____
ROOT
ATOM      1  C   UNL     1      34.039 -13.970 -23.890  0.00  0.00    -0.043 C 
ATOM      2  C   UNL     1      34.316 -12.753 -24.512  0.00  0.00    -0.007 C 
ATOM      3  C   UNL     1      33.181 -14.011 -22.790  0.00  0.00    -0.007 C 
ATOM      4  C   UNL     1      33.736 -11.578 -24.035  0.00  0.00    -0.001 C 
ATOM      5  C   UNL     1      32.601 -12.836 -22.313  0.00  0.00    -0.001 C 
ATOM      6  C   UNL     1      32.878 -11.619 -22.936  0.00  0.00    +0.021 C 
ENDROOT
BRANCH   1   7
ATOM      7  C   UNL     1      34.665 -15.238 -24.405  0.00  0.00    -0.050 C 
BRANCH   7   8
ATOM      8  N   UNL     1      34.444 -16.363 -23.496  0.00  0.00    +0.390 N 
ATOM      9  C   UNL     1      35.236 -18.561 -21.698  0.00  0.00    +0.033 C 
ATOM     10  C   UNL     1      34.712 -17.208 -21.183  0.00  0.00    -0.015 C 
ATOM     11  C   UNL     1      34.752 -18.795 -23.140  0.00  0.00    -0.015 C 
ATOM     12  C   UNL     1      35.029 -17.592 -24.049  0.00  0.00    -0.076 C 
ATOM     13  C   UNL     1      34.991 -16.065 -22.166  0.00  0.00    -0.076 C 
ATOM     14  C   UNL     1      34.844 -19.701 -20.781  0.00  0.00    -0.019 C 
ATOM     15  C   UNL     1      36.757 -18.651 -21.594  0.00  0.00    -0.023 C 
ATOM     16  C   UNL     1      35.998 -20.310 -20.265  0.00  0.00    -0.004 C 
ATOM     17  C   UNL     1      37.172 -19.639 -20.786  0.00  0.00    -0.005 C 
ATOM     18  C   UNL     1      33.584 -20.160 -20.432  0.00  0.00    -0.004 C 
ATOM     19  C   UNL     1      35.916 -21.385 -19.394  0.00  0.00    -0.000 C 
ATOM     20  C   UNL     1      33.491 -21.244 -19.555  0.00  0.00    -0.000 C 
ATOM     21  C   UNL     1      34.648 -21.851 -19.040  0.00  0.00    -0.000 C 
ATOM     22  H   UNL     1      33.441 -16.512 -23.396  0.00  0.00    -0.079 HD
ENDBRANCH   7   8
ENDBRANCH   1   7
BRANCH   6  23
ATOM     23  C   UNL     1      32.255 -10.364 -22.428  0.00  0.00    +0.232 C 
BRANCH  23  24
ATOM     24  O   UNL     1      33.277  -9.459 -22.022  0.00  0.00    -0.471 OA
BRANCH  24  25
ATOM     25  C   UNL     1      33.425  -8.321 -22.769  0.00  0.00    +0.139 C 
ATOM     26  C   UNL     1      33.727  -6.003 -24.292  0.00  0.00    -0.010 C 
ATOM     27  C   UNL     1      32.325  -7.500 -23.016  0.00  0.00    +0.037 C 
ATOM     28  C   UNL     1      34.677  -7.983 -23.284  0.00  0.00    +0.037 C 
ATOM     29  C   UNL     1      32.476  -6.341 -23.777  0.00  0.00    -0.000 C 
ATOM     30  C   UNL     1      34.827  -6.824 -24.046  0.00  0.00    -0.000 C 
BRANCH  26  31
ATOM     31  C   UNL     1      33.889  -4.764 -25.106  0.00  0.00    +0.097 C 
BRANCH  31  32
ATOM     32  C   UNL     1      34.967  -4.912 -26.123  0.00  0.00    -0.087 C 
ATOM     33  C   UNL     1      35.838  -5.048 -26.940  0.00  0.00    -0.090 C 
ATOM     34  C   UNL     1      36.900  -5.214 -27.930  0.00  0.00    +0.090 C 
ENDBRANCH  31  32
BRANCH  31  35
ATOM     35  C   UNL     1      32.566  -4.332 -25.794  0.00  0.00    +0.127 C 
BRANCH  35  37
ATOM     36  O   UNL     1      31.748  -2.743 -24.132  0.00  0.00    -0.250 OA
ATOM     37  C   UNL     1      32.010  -3.012 -25.295  0.00  0.00    +0.315 C 
BRANCH  37  38
ATOM     38  O   UNL     1      31.844  -2.129 -26.316  0.00  0.00    -0.480 OA
ATOM     39  H   UNL     1      32.359  -1.349 -26.349  0.00  0.00    +0.295 HD
ENDBRANCH  37  38
ENDBRANCH  35  37
ENDBRANCH  31  35
ENDBRANCH  26  31
ENDBRANCH  24  25
ENDBRANCH  23  24
ENDBRANCH   6  23
TORSDOF 10
ENDMDL
