MODEL 1
REMARK VINA RESULT:     -11.4      0.000      0.000
REMARK  Name = 5326866
REMARK  5 active torsions:
REMARK  status: ('A' for Active; 'I' for Inactive)
REMARK    1  A    between atoms: N_5  and  C_14
REMARK    2  A    between atoms: C_6  and  C_28
REMARK    3  A    between atoms: C_15  and  C_20
REMARK    4  A    between atoms: C_20  and  O_21
REMARK    5  A    between atoms: O_21  and  C_23
REMARK                            x       y       z     vdW  Elec       q    Type
REMARK                         _______ _______ _______ _____ _____    ______ ____
ROOT
ATOM      1  O   UNL     1      32.611 -13.667 -22.350  0.00  0.00    -0.252 OA
ATOM      2  N   UNL     1      31.565  -9.625 -21.776  0.00  0.00    -0.239 N 
ATOM      3  N   UNL     1      31.950 -10.894 -21.993  0.00  0.00    -0.166 NA
ATOM      4  N   UNL     1      33.789 -11.826 -23.197  0.00  0.00    -0.252 N 
ATOM      5  N   UNL     1      34.544 -13.964 -23.631  0.00  0.00    -0.268 N 
ATOM      6  C   UNL     1      32.393  -8.770 -22.359  0.00  0.00    +0.045 C 
ATOM      7  C   UNL     1      33.367  -9.406 -22.991  0.00  0.00    +0.048 C 
ATOM      8  C   UNL     1      33.050 -10.755 -22.737  0.00  0.00    +0.154 C 
ATOM      9  C   UNL     1      33.549 -13.206 -22.991  0.00  0.00    +0.309 C 
ATOM     10  H   UNL     1      30.772  -9.365 -21.252  0.00  0.00    +0.174 HD
ATOM     11  H   UNL     1      34.583 -11.603 -23.735  0.00  0.00    +0.158 HD
ATOM     12  H   UNL     1      35.236 -13.452 -24.109  0.00  0.00    +0.156 HD
ENDROOT
BRANCH   5  14
ATOM     13 CL   UNL     1      35.089 -19.846 -23.845  0.00  0.00    -0.082 Cl
ATOM     14  C   UNL     1      34.675 -15.372 -23.672  0.00  0.00    +0.051 C 
ATOM     15  C   UNL     1      35.048 -17.454 -22.540  0.00  0.00    +0.033 C 
ATOM     16  C   UNL     1      34.918 -16.065 -22.498  0.00  0.00    +0.015 C 
ATOM     17  C   UNL     1      34.560 -16.027 -24.887  0.00  0.00    +0.016 C 
ATOM     18  C   UNL     1      34.935 -18.129 -23.756  0.00  0.00    +0.057 C 
ATOM     19  C   UNL     1      34.690 -17.415 -24.929  0.00  0.00    +0.012 C 
BRANCH  15  20
ATOM     20  C   UNL     1      35.309 -18.181 -21.260  0.00  0.00    +0.233 C 
BRANCH  20  21
ATOM     21  O   UNL     1      34.123 -18.846 -20.848  0.00  0.00    -0.469 OA
BRANCH  21  23
ATOM     22  N   UNL     1      33.255 -22.036 -19.313  0.00  0.00    -0.239 NA
ATOM     23  C   UNL     1      34.274 -20.085 -20.283  0.00  0.00    +0.158 C 
ATOM     24  C   UNL     1      35.535 -20.626 -20.107  0.00  0.00    +0.040 C 
ATOM     25  C   UNL     1      33.175 -20.810 -19.879  0.00  0.00    +0.136 C 
ATOM     26  C   UNL     1      35.659 -21.884 -19.528  0.00  0.00    +0.024 C 
ATOM     27  C   UNL     1      34.498 -22.542 -19.153  0.00  0.00    +0.099 C 
ENDBRANCH  21  23
ENDBRANCH  20  21
ENDBRANCH  15  20
ENDBRANCH   5  14
BRANCH   6  28
ATOM     28  C   UNL     1      32.129  -7.251 -22.232  0.00  0.00    +0.033 C 
ATOM     29  C   UNL     1      32.094  -6.846 -20.743  0.00  0.00    +0.006 C 
ATOM     30  C   UNL     1      30.778  -6.896 -22.892  0.00  0.00    +0.006 C 
ATOM     31  C   UNL     1      33.210  -6.383 -22.915  0.00  0.00    +0.006 C 
ENDBRANCH   6  28
TORSDOF 5
ENDMDL
MODEL 2
REMARK VINA RESULT:     -10.8      3.241     11.217
REMARK  Name = 5326866
REMARK  5 active torsions:
REMARK  status: ('A' for Active; 'I' for Inactive)
REMARK    1  A    between atoms: N_5  and  C_14
REMARK    2  A    between atoms: C_6  and  C_28
REMARK    3  A    between atoms: C_15  and  C_20
REMARK    4  A    between atoms: C_20  and  O_21
REMARK    5  A    between atoms: O_21  and  C_23
REMARK                            x       y       z     vdW  Elec       q    Type
REMARK                         _______ _______ _______ _____ _____    ______ ____
ROOT
ATOM      1  O   UNL     1      37.060 -20.151 -19.631  0.00  0.00    -0.252 OA
ATOM      2  N   UNL     1      37.715 -22.592 -16.258  0.00  0.00    -0.239 N 
ATOM      3  N   UNL     1      37.443 -21.830 -17.332  0.00  0.00    -0.166 NA
ATOM      4  N   UNL     1      35.421 -21.413 -18.530  0.00  0.00    -0.252 N 
ATOM      5  N   UNL     1      34.840 -20.137 -20.363  0.00  0.00    -0.268 N 
ATOM      6  C   UNL     1      36.624 -23.205 -15.822  0.00  0.00    +0.045 C 
ATOM      7  C   UNL     1      35.573 -22.895 -16.565  0.00  0.00    +0.048 C 
ATOM      8  C   UNL     1      36.134 -22.019 -17.516  0.00  0.00    +0.154 C 
ATOM      9  C   UNL     1      35.897 -20.524 -19.523  0.00  0.00    +0.309 C 
ATOM     10  H   UNL     1      38.607 -22.682 -15.851  0.00  0.00    +0.174 HD
ATOM     11  H   UNL     1      34.460 -21.625 -18.567  0.00  0.00    +0.158 HD
ATOM     12  H   UNL     1      33.958 -20.521 -20.152  0.00  0.00    +0.156 HD
ENDROOT
BRANCH   5  14
ATOM     13 CL   UNL     1      35.030 -16.521 -25.036  0.00  0.00    -0.082 Cl
ATOM     14  C   UNL     1      34.886 -19.264 -21.475  0.00  0.00    +0.051 C 
ATOM     15  C   UNL     1      34.911 -17.034 -22.362  0.00  0.00    +0.033 C 
ATOM     16  C   UNL     1      34.866 -17.895 -21.264  0.00  0.00    +0.015 C 
ATOM     17  C   UNL     1      34.947 -19.797 -22.753  0.00  0.00    +0.016 C 
ATOM     18  C   UNL     1      34.973 -17.555 -23.655  0.00  0.00    +0.057 C 
ATOM     19  C   UNL     1      34.991 -18.936 -23.849  0.00  0.00    +0.012 C 
BRANCH  15  20
ATOM     20  C   UNL     1      34.889 -15.561 -22.110  0.00  0.00    +0.233 C 
BRANCH  20  21
ATOM     21  O   UNL     1      33.708 -15.006 -22.672  0.00  0.00    -0.469 OA
BRANCH  21  23
ATOM     22  N   UNL     1      32.212 -11.790 -21.831  0.00  0.00    -0.239 NA
ATOM     23  C   UNL     1      33.077 -14.032 -21.944  0.00  0.00    +0.158 C 
ATOM     24  C   UNL     1      32.680 -14.277 -20.641  0.00  0.00    +0.040 C 
ATOM     25  C   UNL     1      32.829 -12.794 -22.495  0.00  0.00    +0.136 C 
ATOM     26  C   UNL     1      32.043 -13.269 -19.925  0.00  0.00    +0.024 C 
ATOM     27  C   UNL     1      31.834 -12.055 -20.560  0.00  0.00    +0.099 C 
ENDBRANCH  21  23
ENDBRANCH  20  21
ENDBRANCH  15  20
ENDBRANCH   5  14
BRANCH   6  28
ATOM     28  C   UNL     1      36.718 -24.136 -14.590  0.00  0.00    +0.033 C 
ATOM     29  C   UNL     1      35.643 -25.240 -14.684  0.00  0.00    +0.006 C 
ATOM     30  C   UNL     1      36.502 -23.320 -13.297  0.00  0.00    +0.006 C 
ATOM     31  C   UNL     1      38.085 -24.842 -14.460  0.00  0.00    +0.006 C 
ENDBRANCH   6  28
TORSDOF 5
ENDMDL
MODEL 3
REMARK VINA RESULT:      -9.9      7.181     10.917
REMARK  Name = 5326866
REMARK  5 active torsions:
REMARK  status: ('A' for Active; 'I' for Inactive)
REMARK    1  A    between atoms: N_5  and  C_14
REMARK    2  A    between atoms: C_6  and  C_28
REMARK    3  A    between atoms: C_15  and  C_20
REMARK    4  A    between atoms: C_20  and  O_21
REMARK    5  A    between atoms: O_21  and  C_23
REMARK                            x       y       z     vdW  Elec       q    Type
REMARK                         _______ _______ _______ _____ _____    ______ ____
ROOT
ATOM      1  O   UNL     1      34.175 -22.401 -17.303  0.00  0.00    -0.252 OA
ATOM      2  N   UNL     1      35.935 -20.309 -20.511  0.00  0.00    -0.239 N 
ATOM      3  N   UNL     1      35.315 -20.960 -19.511  0.00  0.00    -0.166 NA
ATOM      4  N   UNL     1      33.006 -21.259 -18.983  0.00  0.00    -0.252 N 
ATOM      5  N   UNL     1      31.838 -22.346 -17.315  0.00  0.00    -0.268 N 
ATOM      6  C   UNL     1      35.056 -19.746 -21.328  0.00  0.00    +0.045 C 
ATOM      7  C   UNL     1      33.816 -19.982 -20.930  0.00  0.00    +0.048 C 
ATOM      8  C   UNL     1      34.021 -20.756 -19.772  0.00  0.00    +0.154 C 
ATOM      9  C   UNL     1      33.117 -22.042 -17.809  0.00  0.00    +0.309 C 
ATOM     10  H   UNL     1      36.912 -20.258 -20.621  0.00  0.00    +0.174 HD
ATOM     11  H   UNL     1      32.089 -21.047 -19.273  0.00  0.00    +0.158 HD
ATOM     12  H   UNL     1      31.080 -21.987 -17.831  0.00  0.00    +0.156 HD
ENDROOT
BRANCH   5  14
ATOM     13 CL   UNL     1      30.406 -25.517 -12.536  0.00  0.00    -0.082 Cl
ATOM     14  C   UNL     1      31.505 -23.102 -16.167  0.00  0.00    +0.051 C 
ATOM     15  C   UNL     1      32.139 -24.077 -14.069  0.00  0.00    +0.033 C 
ATOM     16  C   UNL     1      32.469 -23.329 -15.200  0.00  0.00    +0.015 C 
ATOM     17  C   UNL     1      30.220 -23.604 -16.037  0.00  0.00    +0.016 C 
ATOM     18  C   UNL     1      30.850 -24.588 -13.922  0.00  0.00    +0.057 C 
ATOM     19  C   UNL     1      29.891 -24.352 -14.907  0.00  0.00    +0.012 C 
BRANCH  15  20
ATOM     20  C   UNL     1      33.197 -24.307 -13.038  0.00  0.00    +0.233 C 
BRANCH  20  21
ATOM     21  O   UNL     1      34.468 -23.991 -13.590  0.00  0.00    -0.469 OA
BRANCH  21  23
ATOM     22  N   UNL     1      36.764 -25.636 -11.287  0.00  0.00    -0.239 NA
ATOM     23  C   UNL     1      35.535 -24.724 -13.142  0.00  0.00    +0.158 C 
ATOM     24  C   UNL     1      36.434 -25.273 -14.039  0.00  0.00    +0.040 C 
ATOM     25  C   UNL     1      35.732 -24.925 -11.794  0.00  0.00    +0.136 C 
ATOM     26  C   UNL     1      37.510 -26.010 -13.556  0.00  0.00    +0.024 C 
ATOM     27  C   UNL     1      37.628 -26.162 -12.184  0.00  0.00    +0.099 C 
ENDBRANCH  21  23
ENDBRANCH  20  21
ENDBRANCH  15  20
ENDBRANCH   5  14
BRANCH   6  28
ATOM     28  C   UNL     1      35.562 -18.942 -22.550  0.00  0.00    +0.033 C 
ATOM     29  C   UNL     1      35.119 -19.637 -23.855  0.00  0.00    +0.006 C 
ATOM     30  C   UNL     1      37.103 -18.851 -22.516  0.00  0.00    +0.006 C 
ATOM     31  C   UNL     1      35.021 -17.497 -22.598  0.00  0.00    +0.006 C 
ENDBRANCH   6  28
TORSDOF 5
ENDMDL
MODEL 4
REMARK VINA RESULT:      -9.8      3.267      5.697
REMARK  Name = 5326866
REMARK  5 active torsions:
REMARK  status: ('A' for Active; 'I' for Inactive)
REMARK    1  A    between atoms: N_5  and  C_14
REMARK    2  A    between atoms: C_6  and  C_28
REMARK    3  A    between atoms: C_15  and  C_20
REMARK    4  A    between atoms: C_20  and  O_21
REMARK    5  A    between atoms: O_21  and  C_23
REMARK                            x       y       z     vdW  Elec       q    Type
REMARK                         _______ _______ _______ _____ _____    ______ ____
ROOT
ATOM      1  O   UNL     1      33.142  -8.872 -23.166  0.00  0.00    -0.252 OA
ATOM      2  N   UNL     1      33.000  -4.972 -24.756  0.00  0.00    -0.239 N 
ATOM      3  N   UNL     1      32.995  -6.201 -24.210  0.00  0.00    -0.166 NA
ATOM      4  N   UNL     1      31.631  -7.200 -22.524  0.00  0.00    -0.252 N 
ATOM      5  N   UNL     1      31.530  -9.276 -21.522  0.00  0.00    -0.268 N 
ATOM      6  C   UNL     1      32.053  -4.213 -24.225  0.00  0.00    +0.045 C 
ATOM      7  C   UNL     1      31.368  -4.876 -23.307  0.00  0.00    +0.048 C 
ATOM      8  C   UNL     1      31.997  -6.137 -23.326  0.00  0.00    +0.154 C 
ATOM      9  C   UNL     1      32.202  -8.494 -22.476  0.00  0.00    +0.309 C 
ATOM     10  H   UNL     1      33.625  -4.677 -25.458  0.00  0.00    +0.174 HD
ATOM     11  H   UNL     1      30.878  -7.037 -21.911  0.00  0.00    +0.158 HD
ATOM     12  H   UNL     1      30.791  -8.833 -21.044  0.00  0.00    +0.156 HD
ENDROOT
BRANCH   5  14
ATOM     13 CL   UNL     1      32.572 -14.887 -19.982  0.00  0.00    -0.082 Cl
ATOM     14  C   UNL     1      31.783 -10.620 -21.163  0.00  0.00    +0.051 C 
ATOM     15  C   UNL     1      32.512 -12.826 -21.764  0.00  0.00    +0.033 C 
ATOM     16  C   UNL     1      32.263 -11.499 -22.119  0.00  0.00    +0.015 C 
ATOM     17  C   UNL     1      31.542 -11.031 -19.861  0.00  0.00    +0.016 C 
ATOM     18  C   UNL     1      32.275 -13.254 -20.458  0.00  0.00    +0.057 C 
ATOM     19  C   UNL     1      31.790 -12.356 -19.507  0.00  0.00    +0.012 C 
BRANCH  15  20
ATOM     20  C   UNL     1      33.031 -13.756 -22.813  0.00  0.00    +0.233 C 
BRANCH  20  21
ATOM     21  O   UNL     1      34.330 -14.200 -22.444  0.00  0.00    -0.469 OA
BRANCH  21  23
ATOM     22  N   UNL     1      35.313 -17.669 -21.907  0.00  0.00    -0.239 NA
ATOM     23  C   UNL     1      34.635 -15.508 -22.717  0.00  0.00    +0.158 C 
ATOM     24  C   UNL     1      34.586 -15.983 -24.016  0.00  0.00    +0.040 C 
ATOM     25  C   UNL     1      34.999 -16.369 -21.706  0.00  0.00    +0.136 C 
ATOM     26  C   UNL     1      34.903 -17.314 -24.264  0.00  0.00    +0.024 C 
ATOM     27  C   UNL     1      35.257 -18.108 -23.185  0.00  0.00    +0.099 C 
ENDBRANCH  21  23
ENDBRANCH  20  21
ENDBRANCH  15  20
ENDBRANCH   5  14
BRANCH   6  28
ATOM     28  C   UNL     1      31.887  -2.754 -24.714  0.00  0.00    +0.033 C 
ATOM     29  C   UNL     1      31.974  -1.786 -23.515  0.00  0.00    +0.006 C 
ATOM     30  C   UNL     1      30.518  -2.586 -25.410  0.00  0.00    +0.006 C 
ATOM     31  C   UNL     1      32.968  -2.322 -25.728  0.00  0.00    +0.006 C 
ENDBRANCH   6  28
TORSDOF 5
ENDMDL
MODEL 5
REMARK VINA RESULT:      -9.6      3.461      9.542
REMARK  Name = 5326866
REMARK  5 active torsions:
REMARK  status: ('A' for Active; 'I' for Inactive)
REMARK    1  A    between atoms: N_5  and  C_14
REMARK    2  A    between atoms: C_6  and  C_28
REMARK    3  A    between atoms: C_15  and  C_20
REMARK    4  A    between atoms: C_20  and  O_21
REMARK    5  A    between atoms: O_21  and  C_23
REMARK                            x       y       z     vdW  Elec       q    Type
REMARK                         _______ _______ _______ _____ _____    ______ ____
ROOT
ATOM      1  O   UNL     1      34.394 -12.800 -21.575  0.00  0.00    -0.252 OA
ATOM      2  N   UNL     1      34.810 -16.933 -20.864  0.00  0.00    -0.239 N 
ATOM      3  N   UNL     1      34.684 -15.626 -21.154  0.00  0.00    -0.166 NA
ATOM      4  N   UNL     1      34.743 -14.431 -23.221  0.00  0.00    -0.252 N 
ATOM      5  N   UNL     1      34.538 -12.216 -23.834  0.00  0.00    -0.268 N 
ATOM      6  C   UNL     1      35.000 -17.647 -21.964  0.00  0.00    +0.045 C 
ATOM      7  C   UNL     1      35.013 -16.875 -23.039  0.00  0.00    +0.048 C 
ATOM      8  C   UNL     1      34.810 -15.597 -22.484  0.00  0.00    +0.154 C 
ATOM      9  C   UNL     1      34.542 -13.111 -22.751  0.00  0.00    +0.309 C 
ATOM     10  H   UNL     1      34.766 -17.308 -19.955  0.00  0.00    +0.174 HD
ATOM     11  H   UNL     1      34.847 -14.531 -24.195  0.00  0.00    +0.158 HD
ATOM     12  H   UNL     1      34.669 -12.615 -24.724  0.00  0.00    +0.156 HD
ENDROOT
BRANCH   5  14
ATOM     13 CL   UNL     1      33.867  -6.344 -23.721  0.00  0.00    -0.082 Cl
ATOM     14  C   UNL     1      34.369 -10.812 -23.802  0.00  0.00    +0.051 C 
ATOM     15  C   UNL     1      33.008  -8.897 -23.312  0.00  0.00    +0.033 C 
ATOM     16  C   UNL     1      33.175 -10.282 -23.341  0.00  0.00    +0.015 C 
ATOM     17  C   UNL     1      35.400  -9.995 -24.237  0.00  0.00    +0.016 C 
ATOM     18  C   UNL     1      34.038  -8.061 -23.745  0.00  0.00    +0.057 C 
ATOM     19  C   UNL     1      35.234  -8.611 -24.207  0.00  0.00    +0.012 C 
BRANCH  15  20
ATOM     20  C   UNL     1      31.711  -8.349 -22.809  0.00  0.00    +0.233 C 
BRANCH  20  21
ATOM     21  O   UNL     1      30.955  -9.399 -22.221  0.00  0.00    -0.469 OA
BRANCH  21  23
ATOM     22  N   UNL     1      32.377  -9.255 -18.868  0.00  0.00    -0.239 NA
ATOM     23  C   UNL     1      31.323  -9.794 -20.961  0.00  0.00    +0.158 C 
ATOM     24  C   UNL     1      31.037 -11.072 -20.516  0.00  0.00    +0.040 C 
ATOM     25  C   UNL     1      31.986  -8.928 -20.120  0.00  0.00    +0.136 C 
ATOM     26  C   UNL     1      31.424 -11.447 -19.234  0.00  0.00    +0.024 C 
ATOM     27  C   UNL     1      32.086 -10.510 -18.457  0.00  0.00    +0.099 C 
ENDBRANCH  21  23
ENDBRANCH  20  21
ENDBRANCH  15  20
ENDBRANCH   5  14
BRANCH   6  28
ATOM     28  C   UNL     1      35.171 -19.182 -21.852  0.00  0.00    +0.033 C 
ATOM     29  C   UNL     1      36.533 -19.512 -21.205  0.00  0.00    +0.006 C 
ATOM     30  C   UNL     1      35.103 -19.821 -23.256  0.00  0.00    +0.006 C 
ATOM     31  C   UNL     1      34.082 -19.857 -20.991  0.00  0.00    +0.006 C 
ENDBRANCH   6  28
TORSDOF 5
ENDMDL
MODEL 6
REMARK VINA RESULT:      -9.4      1.450      2.109
REMARK  Name = 5326866
REMARK  5 active torsions:
REMARK  status: ('A' for Active; 'I' for Inactive)
REMARK    1  A    between atoms: N_5  and  C_14
REMARK    2  A    between atoms: C_6  and  C_28
REMARK    3  A    between atoms: C_15  and  C_20
REMARK    4  A    between atoms: C_20  and  O_21
REMARK    5  A    between atoms: O_21  and  C_23
REMARK                            x       y       z     vdW  Elec       q    Type
REMARK                         _______ _______ _______ _____ _____    ______ ____
ROOT
ATOM      1  O   UNL     1      32.410 -12.260 -22.384  0.00  0.00    -0.252 OA
ATOM      2  N   UNL     1      31.345  -8.300 -21.412  0.00  0.00    -0.239 N 
ATOM      3  N   UNL     1      31.730  -9.540 -21.762  0.00  0.00    -0.166 NA
ATOM      4  N   UNL     1      33.401 -10.331 -23.273  0.00  0.00    -0.252 N 
ATOM      5  N   UNL     1      34.145 -12.410 -23.944  0.00  0.00    -0.268 N 
ATOM      6  C   UNL     1      32.056  -7.383 -22.052  0.00  0.00    +0.045 C 
ATOM      7  C   UNL     1      32.945  -7.944 -22.856  0.00  0.00    +0.048 C 
ATOM      8  C   UNL     1      32.707  -9.316 -22.645  0.00  0.00    +0.154 C 
ATOM      9  C   UNL     1      33.232 -11.728 -23.123  0.00  0.00    +0.309 C 
ATOM     10  H   UNL     1      30.630  -8.101 -20.765  0.00  0.00    +0.174 HD
ATOM     11  H   UNL     1      34.103 -10.047 -23.903  0.00  0.00    +0.158 HD
ATOM     12  H   UNL     1      34.746 -11.846 -24.483  0.00  0.00    +0.156 HD
ENDROOT
BRANCH   5  14
ATOM     13 CL   UNL     1      34.818 -18.245 -24.606  0.00  0.00    -0.082 Cl
ATOM     14  C   UNL     1      34.308 -13.807 -24.093  0.00  0.00    +0.051 C 
ATOM     15  C   UNL     1      34.905 -15.937 -23.161  0.00  0.00    +0.033 C 
ATOM     16  C   UNL     1      34.743 -14.558 -23.013  0.00  0.00    +0.015 C 
ATOM     17  C   UNL     1      34.033 -14.395 -25.317  0.00  0.00    +0.016 C 
ATOM     18  C   UNL     1      34.631 -16.543 -24.387  0.00  0.00    +0.057 C 
ATOM     19  C   UNL     1      34.194 -15.772 -25.464  0.00  0.00    +0.012 C 
BRANCH  15  20
ATOM     20  C   UNL     1      35.374 -16.726 -21.982  0.00  0.00    +0.233 C 
BRANCH  20  21
ATOM     21  O   UNL     1      34.591 -17.907 -21.867  0.00  0.00    -0.469 OA
BRANCH  21  23
ATOM     22  N   UNL     1      37.030 -19.916 -20.051  0.00  0.00    -0.239 NA
ATOM     23  C   UNL     1      35.112 -18.922 -21.109  0.00  0.00    +0.158 C 
ATOM     24  C   UNL     1      34.300 -19.944 -20.651  0.00  0.00    +0.040 C 
ATOM     25  C   UNL     1      36.453 -18.944 -20.792  0.00  0.00    +0.136 C 
ATOM     26  C   UNL     1      34.857 -20.962 -19.885  0.00  0.00    +0.024 C 
ATOM     27  C   UNL     1      36.215 -20.902 -19.615  0.00  0.00    +0.099 C 
ENDBRANCH  21  23
ENDBRANCH  20  21
ENDBRANCH  15  20
ENDBRANCH   5  14
BRANCH   6  28
ATOM     28  C   UNL     1      31.770  -5.884 -21.793  0.00  0.00    +0.033 C 
ATOM     29  C   UNL     1      32.254  -5.043 -22.993  0.00  0.00    +0.006 C 
ATOM     30  C   UNL     1      32.504  -5.423 -20.515  0.00  0.00    +0.006 C 
ATOM     31  C   UNL     1      30.271  -5.573 -21.594  0.00  0.00    +0.006 C 
ENDBRANCH   6  28
TORSDOF 5
ENDMDL
MODEL 7
REMARK VINA RESULT:      -9.3      4.062     11.705
REMARK  Name = 5326866
REMARK  5 active torsions:
REMARK  status: ('A' for Active; 'I' for Inactive)
REMARK    1  A    between atoms: N_5  and  C_14
REMARK    2  A    between atoms: C_6  and  C_28
REMARK    3  A    between atoms: C_15  and  C_20
REMARK    4  A    between atoms: C_20  and  O_21
REMARK    5  A    between atoms: O_21  and  C_23
REMARK                            x       y       z     vdW  Elec       q    Type
REMARK                         _______ _______ _______ _____ _____    ______ ____
ROOT
ATOM      1  O   UNL     1      33.477 -12.608 -21.203  0.00  0.00    -0.252 OA
ATOM      2  N   UNL     1      34.538 -16.684 -21.046  0.00  0.00    -0.239 N 
ATOM      3  N   UNL     1      34.216 -15.384 -21.159  0.00  0.00    -0.166 NA
ATOM      4  N   UNL     1      34.286 -13.870 -23.005  0.00  0.00    -0.252 N 
ATOM      5  N   UNL     1      33.761 -11.645 -23.314  0.00  0.00    -0.268 N 
ATOM      6  C   UNL     1      34.970 -17.169 -22.201  0.00  0.00    +0.045 C 
ATOM      7  C   UNL     1      34.963 -16.238 -23.142  0.00  0.00    +0.048 C 
ATOM      8  C   UNL     1      34.478 -15.116 -22.441  0.00  0.00    +0.154 C 
ATOM      9  C   UNL     1      33.805 -12.694 -22.382  0.00  0.00    +0.309 C 
ATOM     10  H   UNL     1      34.463 -17.206 -20.215  0.00  0.00    +0.174 HD
ATOM     11  H   UNL     1      34.512 -13.791 -23.960  0.00  0.00    +0.158 HD
ATOM     12  H   UNL     1      34.057 -11.866 -24.227  0.00  0.00    +0.156 HD
ENDROOT
BRANCH   5  14
ATOM     13 CL   UNL     1      31.981  -6.080 -22.418  0.00  0.00    -0.082 Cl
ATOM     14  C   UNL     1      33.343 -10.310 -23.104  0.00  0.00    +0.051 C 
ATOM     15  C   UNL     1      33.794  -7.955 -23.206  0.00  0.00    +0.033 C 
ATOM     16  C   UNL     1      34.206  -9.272 -23.415  0.00  0.00    +0.015 C 
ATOM     17  C   UNL     1      32.080 -10.068 -22.589  0.00  0.00    +0.016 C 
ATOM     18  C   UNL     1      32.525  -7.695 -22.688  0.00  0.00    +0.057 C 
ATOM     19  C   UNL     1      31.669  -8.752 -22.380  0.00  0.00    +0.012 C 
BRANCH  15  20
ATOM     20  C   UNL     1      34.743  -6.852 -23.550  0.00  0.00    +0.233 C 
BRANCH  20  21
ATOM     21  O   UNL     1      34.926  -6.813 -24.959  0.00  0.00    -0.469 OA
BRANCH  21  23
ATOM     22  N   UNL     1      35.418  -3.842 -27.011  0.00  0.00    -0.239 NA
ATOM     23  C   UNL     1      34.661  -5.623 -25.583  0.00  0.00    +0.158 C 
ATOM     24  C   UNL     1      33.430  -5.010 -25.431  0.00  0.00    +0.040 C 
ATOM     25  C   UNL     1      35.615  -5.016 -26.369  0.00  0.00    +0.136 C 
ATOM     26  C   UNL     1      33.189  -3.801 -26.074  0.00  0.00    +0.024 C 
ATOM     27  C   UNL     1      34.207  -3.263 -26.846  0.00  0.00    +0.099 C 
ENDBRANCH  21  23
ENDBRANCH  20  21
ENDBRANCH  15  20
ENDBRANCH   5  14
BRANCH   6  28
ATOM     28  C   UNL     1      35.397 -18.654 -22.289  0.00  0.00    +0.033 C 
ATOM     29  C   UNL     1      36.935 -18.764 -22.208  0.00  0.00    +0.006 C 
ATOM     30  C   UNL     1      34.910 -19.262 -23.623  0.00  0.00    +0.006 C 
ATOM     31  C   UNL     1      34.817 -19.525 -21.154  0.00  0.00    +0.006 C 
ENDBRANCH   6  28
TORSDOF 5
ENDMDL
MODEL 8
REMARK VINA RESULT:      -8.9      4.673      7.802
REMARK  Name = 5326866
REMARK  5 active torsions:
REMARK  status: ('A' for Active; 'I' for Inactive)
REMARK    1  A    between atoms: N_5  and  C_14
REMARK    2  A    between atoms: C_6  and  C_28
REMARK    3  A    between atoms: C_15  and  C_20
REMARK    4  A    between atoms: C_20  and  O_21
REMARK    5  A    between atoms: O_21  and  C_23
REMARK                            x       y       z     vdW  Elec       q    Type
REMARK                         _______ _______ _______ _____ _____    ______ ____
ROOT
ATOM      1  O   UNL     1      31.841  -6.175 -23.403  0.00  0.00    -0.252 OA
ATOM      2  N   UNL     1      32.998  -3.522 -26.466  0.00  0.00    -0.239 N 
ATOM      3  N   UNL     1      32.687  -4.396 -25.493  0.00  0.00    -0.166 NA
ATOM      4  N   UNL     1      33.916  -6.181 -24.492  0.00  0.00    -0.252 N 
ATOM      5  N   UNL     1      33.492  -7.728 -22.832  0.00  0.00    -0.268 N 
ATOM      6  C   UNL     1      34.225  -3.732 -26.920  0.00  0.00    +0.045 C 
ATOM      7  C   UNL     1      34.801  -4.743 -26.289  0.00  0.00    +0.048 C 
ATOM      8  C   UNL     1      33.791  -5.140 -25.390  0.00  0.00    +0.154 C 
ATOM      9  C   UNL     1      32.962  -6.648 -23.556  0.00  0.00    +0.309 C 
ATOM     10  H   UNL     1      32.393  -2.818 -26.796  0.00  0.00    +0.174 HD
ATOM     11  H   UNL     1      34.778  -6.659 -24.503  0.00  0.00    +0.158 HD
ATOM     12  H   UNL     1      34.410  -7.996 -23.067  0.00  0.00    +0.156 HD
ENDROOT
BRANCH   5  14
ATOM     13 CL   UNL     1      30.896 -10.834 -18.525  0.00  0.00    -0.082 Cl
ATOM     14  C   UNL     1      32.871  -8.479 -21.808  0.00  0.00    +0.051 C 
ATOM     15  C   UNL     1      31.784 -10.491 -21.078  0.00  0.00    +0.033 C 
ATOM     16  C   UNL     1      32.399  -9.751 -22.089  0.00  0.00    +0.015 C 
ATOM     17  C   UNL     1      32.744  -7.926 -20.544  0.00  0.00    +0.016 C 
ATOM     18  C   UNL     1      31.650  -9.948 -19.800  0.00  0.00    +0.057 C 
ATOM     19  C   UNL     1      32.130  -8.665 -19.534  0.00  0.00    +0.012 C 
BRANCH  15  20
ATOM     20  C   UNL     1      31.285 -11.861 -21.405  0.00  0.00    +0.233 C 
BRANCH  20  21
ATOM     21  O   UNL     1      32.005 -12.818 -20.641  0.00  0.00    -0.469 OA
BRANCH  21  23
ATOM     22  N   UNL     1      33.677 -14.432 -23.448  0.00  0.00    -0.239 NA
ATOM     23  C   UNL     1      32.830 -13.666 -21.332  0.00  0.00    +0.158 C 
ATOM     24  C   UNL     1      33.621 -14.579 -20.657  0.00  0.00    +0.040 C 
ATOM     25  C   UNL     1      32.886 -13.624 -22.707  0.00  0.00    +0.136 C 
ATOM     26  C   UNL     1      34.448 -15.428 -21.384  0.00  0.00    +0.024 C 
ATOM     27  C   UNL     1      34.439 -15.315 -22.765  0.00  0.00    +0.099 C 
ENDBRANCH  21  23
ENDBRANCH  20  21
ENDBRANCH  15  20
ENDBRANCH   5  14
BRANCH   6  28
ATOM     28  C   UNL     1      34.782  -2.831 -28.049  0.00  0.00    +0.033 C 
ATOM     29  C   UNL     1      35.301  -3.706 -29.210  0.00  0.00    +0.006 C 
ATOM     30  C   UNL     1      35.937  -1.962 -27.506  0.00  0.00    +0.006 C 
ATOM     31  C   UNL     1      33.728  -1.869 -28.639  0.00  0.00    +0.006 C 
ENDBRANCH   6  28
TORSDOF 5
ENDMDL
MODEL 9
REMARK VINA RESULT:      -8.7      3.758     11.417
REMARK  Name = 5326866
REMARK  5 active torsions:
REMARK  status: ('A' for Active; 'I' for Inactive)
REMARK    1  A    between atoms: N_5  and  C_14
REMARK    2  A    between atoms: C_6  and  C_28
REMARK    3  A    between atoms: C_15  and  C_20
REMARK    4  A    between atoms: C_20  and  O_21
REMARK    5  A    between atoms: O_21  and  C_23
REMARK                            x       y       z     vdW  Elec       q    Type
REMARK                         _______ _______ _______ _____ _____    ______ ____
ROOT
ATOM      1  O   UNL     1      33.941 -12.414 -22.654  0.00  0.00    -0.252 OA
ATOM      2  N   UNL     1      35.354 -16.350 -23.169  0.00  0.00    -0.239 N 
ATOM      3  N   UNL     1      34.878 -15.113 -22.948  0.00  0.00    -0.166 NA
ATOM      4  N   UNL     1      33.615 -14.180 -21.149  0.00  0.00    -0.252 N 
ATOM      5  N   UNL     1      32.754 -12.094 -20.666  0.00  0.00    -0.268 N 
ATOM      6  C   UNL     1      35.037 -17.166 -22.174  0.00  0.00    +0.045 C 
ATOM      7  C   UNL     1      34.340 -16.535 -21.243  0.00  0.00    +0.048 C 
ATOM      8  C   UNL     1      34.258 -15.231 -21.770  0.00  0.00    +0.154 C 
ATOM      9  C   UNL     1      33.484 -12.845 -21.601  0.00  0.00    +0.309 C 
ATOM     10  H   UNL     1      35.871 -16.615 -23.964  0.00  0.00    +0.174 HD
ATOM     11  H   UNL     1      33.195 -14.384 -20.282  0.00  0.00    +0.158 HD
ATOM     12  H   UNL     1      32.451 -12.579 -19.864  0.00  0.00    +0.156 HD
ENDROOT
BRANCH   5  14
ATOM     13 CL   UNL     1      31.275  -6.376 -20.901  0.00  0.00    -0.082 Cl
ATOM     14  C   UNL     1      32.401 -10.726 -20.732  0.00  0.00    +0.051 C 
ATOM     15  C   UNL     1      32.078  -8.727 -22.020  0.00  0.00    +0.033 C 
ATOM     16  C   UNL     1      32.425 -10.077 -21.955  0.00  0.00    +0.015 C 
ATOM     17  C   UNL     1      32.041 -10.062 -19.570  0.00  0.00    +0.016 C 
ATOM     18  C   UNL     1      31.712  -8.045 -20.859  0.00  0.00    +0.057 C 
ATOM     19  C   UNL     1      31.694  -8.713 -19.635  0.00  0.00    +0.012 C 
BRANCH  15  20
ATOM     20  C   UNL     1      32.110  -8.049 -23.351  0.00  0.00    +0.233 C 
BRANCH  20  21
ATOM     21  O   UNL     1      33.339  -7.348 -23.491  0.00  0.00    -0.469 OA
BRANCH  21  23
ATOM     22  N   UNL     1      32.293  -4.100 -24.772  0.00  0.00    -0.239 NA
ATOM     23  C   UNL     1      33.319  -6.215 -24.261  0.00  0.00    +0.158 C 
ATOM     24  C   UNL     1      34.252  -6.032 -25.265  0.00  0.00    +0.040 C 
ATOM     25  C   UNL     1      32.369  -5.240 -24.048  0.00  0.00    +0.136 C 
ATOM     26  C   UNL     1      34.206  -4.873 -26.032  0.00  0.00    +0.024 C 
ATOM     27  C   UNL     1      33.216  -3.946 -25.747  0.00  0.00    +0.099 C 
ENDBRANCH  21  23
ENDBRANCH  20  21
ENDBRANCH  15  20
ENDBRANCH   5  14
BRANCH   6  28
ATOM     28  C   UNL     1      35.489 -18.645 -22.231  0.00  0.00    +0.033 C 
ATOM     29  C   UNL     1      37.022 -18.732 -22.072  0.00  0.00    +0.006 C 
ATOM     30  C   UNL     1      35.079 -19.268 -23.584  0.00  0.00    +0.006 C 
ATOM     31  C   UNL     1      34.866 -19.519 -21.121  0.00  0.00    +0.006 C 
ENDBRANCH   6  28
TORSDOF 5
ENDMDL
