MODEL 1
REMARK VINA RESULT:     -11.6      0.000      0.000
REMARK  Name = 24988948
REMARK  5 active torsions:
REMARK  status: ('A' for Active; 'I' for Inactive)
REMARK    1  A    between atoms: N_2  and  C_21
REMARK    2  A    between atoms: C_6  and  O_11
REMARK    3  A    between atoms: O_11  and  C_13
REMARK    4  A    between atoms: C_16  and  C_20
REMARK    5  A    between atoms: C_21  and  C_25
REMARK                            x       y       z     vdW  Elec       q    Type
REMARK                         _______ _______ _______ _____ _____    ______ ____
ROOT
ATOM      1 CL   UNL     1      32.610 -13.709 -25.639  0.00  0.00    -0.079 Cl
ATOM      2  N   UNL     1      35.561 -17.166 -21.998  0.00  0.00    -0.205 N 
ATOM      3  N   UNL     1      35.261 -16.690 -20.778  0.00  0.00    -0.176 NA
ATOM      4  C   UNL     1      34.964 -16.488 -23.027  0.00  0.00    +0.074 C 
ATOM      5  C   UNL     1      34.214 -15.488 -22.419  0.00  0.00    +0.071 C 
ATOM      6  C   UNL     1      33.468 -14.605 -23.219  0.00  0.00    +0.158 C 
ATOM      7  C   UNL     1      34.441 -15.669 -21.038  0.00  0.00    +0.122 C 
ATOM      8  C   UNL     1      35.020 -16.665 -24.411  0.00  0.00    +0.017 C 
ATOM      9  C   UNL     1      33.510 -14.765 -24.609  0.00  0.00    +0.092 C 
ATOM     10  C   UNL     1      34.272 -15.778 -25.193  0.00  0.00    +0.016 C 
ENDROOT
BRANCH   6  11
ATOM     11  O   UNL     1      32.721 -13.612 -22.646  0.00  0.00    -0.453 OA
BRANCH  11  13
ATOM     12 CL   UNL     1      35.688 -10.393 -25.272  0.00  0.00    -0.082 Cl
ATOM     13  C   UNL     1      33.088 -12.307 -22.912  0.00  0.00    +0.147 C 
ATOM     14  C   UNL     1      32.461 -11.256 -22.241  0.00  0.00    +0.048 C 
ATOM     15  C   UNL     1      34.086 -12.039 -23.848  0.00  0.00    +0.049 C 
ATOM     16  C   UNL     1      32.832  -9.939 -22.509  0.00  0.00    +0.072 C 
ATOM     17  C   UNL     1      34.457 -10.722 -24.116  0.00  0.00    +0.061 C 
ATOM     18  C   UNL     1      33.830  -9.671 -23.446  0.00  0.00    +0.022 C 
BRANCH  16  20
ATOM     19  N   UNL     1      31.667  -7.989 -21.266  0.00  0.00    -0.191 NA
ATOM     20  C   UNL     1      32.189  -8.863 -21.823  0.00  0.00    +0.101 C 
ENDBRANCH  16  20
ENDBRANCH  11  13
ENDBRANCH   6  11
BRANCH   2  21
ATOM     21  C   UNL     1      36.449 -18.300 -22.111  0.00  0.00    +0.159 C 
BRANCH  21  25
ATOM     22  N   UNL     1      37.275 -19.779 -20.251  0.00  0.00    -0.230 N 
ATOM     23  N   UNL     1      36.925 -20.699 -19.328  0.00  0.00    -0.128 NA
ATOM     24  N   UNL     1      34.755 -21.668 -18.843  0.00  0.00    -0.192 NA
ATOM     25  C   UNL     1      36.243 -19.330 -21.028  0.00  0.00    +0.071 C 
ATOM     26  C   UNL     1      35.145 -20.008 -20.576  0.00  0.00    +0.058 C 
ATOM     27  C   UNL     1      35.609 -20.849 -19.518  0.00  0.00    +0.049 C 
ATOM     28  C   UNL     1      33.853 -19.884 -21.063  0.00  0.00    +0.065 C 
ATOM     29  C   UNL     1      32.993 -20.733 -20.357  0.00  0.00    +0.001 C 
ATOM     30  C   UNL     1      33.470 -21.560 -19.312  0.00  0.00    +0.105 C 
ATOM     31  H   UNL     1      38.200 -19.457 -20.357  0.00  0.00    +0.175 HD
ENDBRANCH  21  25
ENDBRANCH   2  21
TORSDOF 5
ENDMDL
MODEL 2
REMARK VINA RESULT:     -11.5      1.547      2.435
REMARK  Name = 24988948
REMARK  5 active torsions:
REMARK  status: ('A' for Active; 'I' for Inactive)
REMARK    1  A    between atoms: N_2  and  C_21
REMARK    2  A    between atoms: C_6  and  O_11
REMARK    3  A    between atoms: O_11  and  C_13
REMARK    4  A    between atoms: C_16  and  C_20
REMARK    5  A    between atoms: C_21  and  C_25
REMARK                            x       y       z     vdW  Elec       q    Type
REMARK                         _______ _______ _______ _____ _____    ______ ____
ROOT
ATOM      1 CL   UNL     1      32.279 -12.650 -20.277  0.00  0.00    -0.079 Cl
ATOM      2  N   UNL     1      35.253 -17.011 -22.739  0.00  0.00    -0.205 N 
ATOM      3  N   UNL     1      35.067 -16.832 -24.058  0.00  0.00    -0.176 NA
ATOM      4  C   UNL     1      34.628 -16.080 -21.953  0.00  0.00    +0.074 C 
ATOM      5  C   UNL     1      33.984 -15.226 -22.840  0.00  0.00    +0.071 C 
ATOM      6  C   UNL     1      33.241 -14.144 -22.337  0.00  0.00    +0.158 C 
ATOM      7  C   UNL     1      34.294 -15.744 -24.115  0.00  0.00    +0.122 C 
ATOM      8  C   UNL     1      34.577 -15.920 -20.567  0.00  0.00    +0.017 C 
ATOM      9  C   UNL     1      33.176 -13.965 -20.949  0.00  0.00    +0.092 C 
ATOM     10  C   UNL     1      33.833 -14.839 -20.081  0.00  0.00    +0.016 C 
ENDROOT
BRANCH   6  11
ATOM     11  O   UNL     1      32.596 -13.288 -23.188  0.00  0.00    -0.453 OA
BRANCH  11  13
ATOM     12 CL   UNL     1      36.012 -10.156 -25.330  0.00  0.00    -0.082 Cl
ATOM     13  C   UNL     1      33.101 -12.008 -23.305  0.00  0.00    +0.147 C 
ATOM     14  C   UNL     1      32.537 -10.965 -22.569  0.00  0.00    +0.048 C 
ATOM     15  C   UNL     1      34.176 -11.757 -24.158  0.00  0.00    +0.049 C 
ATOM     16  C   UNL     1      33.048  -9.673 -22.687  0.00  0.00    +0.072 C 
ATOM     17  C   UNL     1      34.686 -10.465 -24.277  0.00  0.00    +0.061 C 
ATOM     18  C   UNL     1      34.123  -9.422 -23.541  0.00  0.00    +0.022 C 
BRANCH  16  20
ATOM     19  N   UNL     1      31.999  -7.739 -21.323  0.00  0.00    -0.191 NA
ATOM     20  C   UNL     1      32.469  -8.605 -21.934  0.00  0.00    +0.101 C 
ENDBRANCH  16  20
ENDBRANCH  11  13
ENDBRANCH   6  11
BRANCH   2  21
ATOM     21  C   UNL     1      36.059 -18.122 -22.288  0.00  0.00    +0.159 C 
BRANCH  21  25
ATOM     22  N   UNL     1      33.936 -19.323 -21.671  0.00  0.00    -0.230 N 
ATOM     23  N   UNL     1      33.390 -20.274 -20.884  0.00  0.00    -0.128 NA
ATOM     24  N   UNL     1      34.426 -21.701 -19.219  0.00  0.00    -0.192 NA
ATOM     25  C   UNL     1      35.280 -19.141 -21.494  0.00  0.00    +0.071 C 
ATOM     26  C   UNL     1      35.629 -20.040 -20.524  0.00  0.00    +0.058 C 
ATOM     27  C   UNL     1      34.427 -20.726 -20.171  0.00  0.00    +0.049 C 
ATOM     28  C   UNL     1      36.902 -20.228 -20.007  0.00  0.00    +0.065 C 
ATOM     29  C   UNL     1      36.878 -21.232 -19.032  0.00  0.00    +0.001 C 
ATOM     30  C   UNL     1      35.678 -21.901 -18.694  0.00  0.00    +0.105 C 
ATOM     31  H   UNL     1      33.409 -18.801 -22.318  0.00  0.00    +0.175 HD
ENDBRANCH  21  25
ENDBRANCH   2  21
TORSDOF 5
ENDMDL
MODEL 3
REMARK VINA RESULT:     -11.4      3.690      6.365
REMARK  Name = 24988948
REMARK  5 active torsions:
REMARK  status: ('A' for Active; 'I' for Inactive)
REMARK    1  A    between atoms: N_2  and  C_21
REMARK    2  A    between atoms: C_6  and  O_11
REMARK    3  A    between atoms: O_11  and  C_13
REMARK    4  A    between atoms: C_16  and  C_20
REMARK    5  A    between atoms: C_21  and  C_25
REMARK                            x       y       z     vdW  Elec       q    Type
REMARK                         _______ _______ _______ _____ _____    ______ ____
ROOT
ATOM      1 CL   UNL     1      31.703  -7.070 -20.790  0.00  0.00    -0.079 Cl
ATOM      2  N   UNL     1      33.917 -11.394 -24.003  0.00  0.00    -0.205 N 
ATOM      3  N   UNL     1      35.024 -10.863 -24.550  0.00  0.00    -0.176 NA
ATOM      4  C   UNL     1      33.224 -10.534 -23.193  0.00  0.00    +0.074 C 
ATOM      5  C   UNL     1      33.945  -9.346 -23.219  0.00  0.00    +0.071 C 
ATOM      6  C   UNL     1      33.487  -8.247 -22.474  0.00  0.00    +0.158 C 
ATOM      7  C   UNL     1      35.038  -9.617 -24.070  0.00  0.00    +0.122 C 
ATOM      8  C   UNL     1      32.050 -10.697 -22.456  0.00  0.00    +0.017 C 
ATOM      9  C   UNL     1      32.310  -8.389 -21.727  0.00  0.00    +0.092 C 
ATOM     10  C   UNL     1      31.606  -9.594 -21.719  0.00  0.00    +0.016 C 
ENDROOT
BRANCH   6  11
ATOM     11  O   UNL     1      34.177  -7.065 -22.481  0.00  0.00    -0.453 OA
BRANCH  11  13
ATOM     12 CL   UNL     1      35.522  -4.973 -26.940  0.00  0.00    -0.082 Cl
ATOM     13  C   UNL     1      33.888  -6.167 -23.489  0.00  0.00    +0.147 C 
ATOM     14  C   UNL     1      32.734  -5.386 -23.418  0.00  0.00    +0.048 C 
ATOM     15  C   UNL     1      34.750  -6.038 -24.578  0.00  0.00    +0.049 C 
ATOM     16  C   UNL     1      32.442  -4.478 -24.435  0.00  0.00    +0.072 C 
ATOM     17  C   UNL     1      34.458  -5.130 -25.596  0.00  0.00    +0.061 C 
ATOM     18  C   UNL     1      33.304  -4.350 -25.525  0.00  0.00    +0.022 C 
BRANCH  16  20
ATOM     19  N   UNL     1      30.299  -3.031 -24.303  0.00  0.00    -0.191 NA
ATOM     20  C   UNL     1      31.259  -3.679 -24.362  0.00  0.00    +0.101 C 
ENDBRANCH  16  20
ENDBRANCH  11  13
ENDBRANCH   6  11
BRANCH   2  21
ATOM     21  C   UNL     1      33.571 -12.764 -24.306  0.00  0.00    +0.159 C 
BRANCH  21  25
ATOM     22  N   UNL     1      34.058 -13.392 -21.919  0.00  0.00    -0.230 N 
ATOM     23  N   UNL     1      34.468 -14.379 -21.094  0.00  0.00    -0.128 NA
ATOM     24  N   UNL     1      35.124 -16.659 -21.602  0.00  0.00    -0.192 NA
ATOM     25  C   UNL     1      34.008 -13.739 -23.241  0.00  0.00    +0.071 C 
ATOM     26  C   UNL     1      34.414 -15.044 -23.275  0.00  0.00    +0.058 C 
ATOM     27  C   UNL     1      34.691 -15.407 -21.922  0.00  0.00    +0.049 C 
ATOM     28  C   UNL     1      34.525 -15.834 -24.410  0.00  0.00    +0.065 C 
ATOM     29  C   UNL     1      34.971 -17.113 -24.059  0.00  0.00    +0.001 C 
ATOM     30  C   UNL     1      35.241 -17.455 -22.713  0.00  0.00    +0.105 C 
ATOM     31  H   UNL     1      33.815 -12.495 -21.594  0.00  0.00    +0.175 HD
ENDBRANCH  21  25
ENDBRANCH   2  21
TORSDOF 5
ENDMDL
MODEL 4
REMARK VINA RESULT:     -11.1      4.138      6.998
REMARK  Name = 24988948
REMARK  5 active torsions:
REMARK  status: ('A' for Active; 'I' for Inactive)
REMARK    1  A    between atoms: N_2  and  C_21
REMARK    2  A    between atoms: C_6  and  O_11
REMARK    3  A    between atoms: O_11  and  C_13
REMARK    4  A    between atoms: C_16  and  C_20
REMARK    5  A    between atoms: C_21  and  C_25
REMARK                            x       y       z     vdW  Elec       q    Type
REMARK                         _______ _______ _______ _____ _____    ______ ____
ROOT
ATOM      1 CL   UNL     1      37.856 -18.921 -21.636  0.00  0.00    -0.079 Cl
ATOM      2  N   UNL     1      34.189 -22.135 -18.451  0.00  0.00    -0.205 N 
ATOM      3  N   UNL     1      33.066 -22.179 -19.187  0.00  0.00    -0.176 NA
ATOM      4  C   UNL     1      35.205 -21.415 -19.020  0.00  0.00    +0.074 C 
ATOM      5  C   UNL     1      34.695 -20.954 -20.228  0.00  0.00    +0.071 C 
ATOM      6  C   UNL     1      35.508 -20.170 -21.064  0.00  0.00    +0.158 C 
ATOM      7  C   UNL     1      33.378 -21.459 -20.268  0.00  0.00    +0.122 C 
ATOM      8  C   UNL     1      36.503 -21.136 -18.584  0.00  0.00    +0.017 C 
ATOM      9  C   UNL     1      36.813 -19.878 -20.646  0.00  0.00    +0.092 C 
ATOM     10  C   UNL     1      37.300 -20.354 -19.427  0.00  0.00    +0.016 C 
ENDROOT
BRANCH   6  11
ATOM     11  O   UNL     1      35.031 -19.703 -22.258  0.00  0.00    -0.453 OA
BRANCH  11  13
ATOM     12 CL   UNL     1      34.562 -15.157 -19.984  0.00  0.00    -0.082 Cl
ATOM     13  C   UNL     1      34.872 -18.337 -22.389  0.00  0.00    +0.147 C 
ATOM     14  C   UNL     1      34.776 -17.765 -23.658  0.00  0.00    +0.048 C 
ATOM     15  C   UNL     1      34.805 -17.531 -21.254  0.00  0.00    +0.049 C 
ATOM     16  C   UNL     1      34.614 -16.386 -23.790  0.00  0.00    +0.072 C 
ATOM     17  C   UNL     1      34.644 -16.151 -21.386  0.00  0.00    +0.061 C 
ATOM     18  C   UNL     1      34.548 -15.579 -22.654  0.00  0.00    +0.022 C 
BRANCH  16  20
ATOM     19  N   UNL     1      34.438 -15.325 -26.145  0.00  0.00    -0.191 NA
ATOM     20  C   UNL     1      34.518 -15.800 -25.090  0.00  0.00    +0.101 C 
ENDBRANCH  16  20
ENDBRANCH  11  13
ENDBRANCH   6  11
BRANCH   2  21
ATOM     21  C   UNL     1      34.223 -22.820 -17.179  0.00  0.00    +0.159 C 
BRANCH  21  25
ATOM     22  N   UNL     1      31.721 -22.559 -17.179  0.00  0.00    -0.230 N 
ATOM     23  N   UNL     1      30.582 -22.798 -16.495  0.00  0.00    -0.128 NA
ATOM     24  N   UNL     1      30.253 -23.885 -14.351  0.00  0.00    -0.192 NA
ATOM     25  C   UNL     1      32.859 -23.000 -16.561  0.00  0.00    +0.071 C 
ATOM     26  C   UNL     1      32.426 -23.566 -15.394  0.00  0.00    +0.058 C 
ATOM     27  C   UNL     1      31.005 -23.421 -15.389  0.00  0.00    +0.049 C 
ATOM     28  C   UNL     1      33.227 -24.155 -14.427  0.00  0.00    +0.065 C 
ATOM     29  C   UNL     1      32.436 -24.624 -13.372  0.00  0.00    +0.001 C 
ATOM     30  C   UNL     1      31.029 -24.472 -13.384  0.00  0.00    +0.105 C 
ATOM     31  H   UNL     1      31.731 -22.103 -18.051  0.00  0.00    +0.175 HD
ENDBRANCH  21  25
ENDBRANCH   2  21
TORSDOF 5
ENDMDL
MODEL 5
REMARK VINA RESULT:     -11.0      5.010     11.394
REMARK  Name = 24988948
REMARK  5 active torsions:
REMARK  status: ('A' for Active; 'I' for Inactive)
REMARK    1  A    between atoms: N_2  and  C_21
REMARK    2  A    between atoms: C_6  and  O_11
REMARK    3  A    between atoms: O_11  and  C_13
REMARK    4  A    between atoms: C_16  and  C_20
REMARK    5  A    between atoms: C_21  and  C_25
REMARK                            x       y       z     vdW  Elec       q    Type
REMARK                         _______ _______ _______ _____ _____    ______ ____
ROOT
ATOM      1 CL   UNL     1      31.240 -11.483 -18.317  0.00  0.00    -0.079 Cl
ATOM      2  N   UNL     1      32.711  -7.598 -22.398  0.00  0.00    -0.205 N 
ATOM      3  N   UNL     1      32.443  -8.222 -23.558  0.00  0.00    -0.176 NA
ATOM      4  C   UNL     1      32.436  -8.344 -21.284  0.00  0.00    +0.074 C 
ATOM      5  C   UNL     1      31.947  -9.553 -21.763  0.00  0.00    +0.071 C 
ATOM      6  C   UNL     1      31.567 -10.552 -20.852  0.00  0.00    +0.158 C 
ATOM      7  C   UNL     1      31.978  -9.412 -23.167  0.00  0.00    +0.122 C 
ATOM      8  C   UNL     1      32.572  -8.063 -19.922  0.00  0.00    +0.017 C 
ATOM      9  C   UNL     1      31.696 -10.291 -19.481  0.00  0.00    +0.092 C 
ATOM     10  C   UNL     1      32.190  -9.067 -19.027  0.00  0.00    +0.016 C 
ENDROOT
BRANCH   6  11
ATOM     11  O   UNL     1      31.083 -11.752 -21.297  0.00  0.00    -0.453 OA
BRANCH  11  13
ATOM     12 CL   UNL     1      34.457 -15.358 -19.999  0.00  0.00    -0.082 Cl
ATOM     13  C   UNL     1      32.004 -12.697 -21.704  0.00  0.00    +0.147 C 
ATOM     14  C   UNL     1      32.254 -12.887 -23.064  0.00  0.00    +0.048 C 
ATOM     15  C   UNL     1      32.686 -13.461 -20.757  0.00  0.00    +0.049 C 
ATOM     16  C   UNL     1      33.184 -13.841 -23.475  0.00  0.00    +0.072 C 
ATOM     17  C   UNL     1      33.617 -14.415 -21.168  0.00  0.00    +0.061 C 
ATOM     18  C   UNL     1      33.866 -14.605 -22.528  0.00  0.00    +0.022 C 
BRANCH  16  20
ATOM     19  N   UNL     1      33.645 -14.194 -25.999  0.00  0.00    -0.191 NA
ATOM     20  C   UNL     1      33.439 -14.036 -24.868  0.00  0.00    +0.101 C 
ENDBRANCH  16  20
ENDBRANCH  11  13
ENDBRANCH   6  11
BRANCH   2  21
ATOM     21  C   UNL     1      33.244  -6.256 -22.430  0.00  0.00    +0.159 C 
BRANCH  21  25
ATOM     22  N   UNL     1      31.210  -4.892 -21.854  0.00  0.00    -0.230 N 
ATOM     23  N   UNL     1      30.361  -3.933 -22.281  0.00  0.00    -0.128 NA
ATOM     24  N   UNL     1      30.334  -2.695 -24.366  0.00  0.00    -0.192 NA
ATOM     25  C   UNL     1      32.204  -5.207 -22.739  0.00  0.00    +0.071 C 
ATOM     26  C   UNL     1      31.983  -4.395 -23.816  0.00  0.00    +0.058 C 
ATOM     27  C   UNL     1      30.829  -3.617 -23.493  0.00  0.00    +0.049 C 
ATOM     28  C   UNL     1      32.742  -4.353 -24.976  0.00  0.00    +0.065 C 
ATOM     29  C   UNL     1      32.218  -3.402 -25.857  0.00  0.00    +0.001 C 
ATOM     30  C   UNL     1      31.073  -2.640 -25.521  0.00  0.00    +0.105 C 
ATOM     31  H   UNL     1      31.120  -5.329 -20.976  0.00  0.00    +0.175 HD
ENDBRANCH  21  25
ENDBRANCH   2  21
TORSDOF 5
ENDMDL
MODEL 6
REMARK VINA RESULT:     -10.9      6.569     11.883
REMARK  Name = 24988948
REMARK  5 active torsions:
REMARK  status: ('A' for Active; 'I' for Inactive)
REMARK    1  A    between atoms: N_2  and  C_21
REMARK    2  A    between atoms: C_6  and  O_11
REMARK    3  A    between atoms: O_11  and  C_13
REMARK    4  A    between atoms: C_16  and  C_20
REMARK    5  A    between atoms: C_21  and  C_25
REMARK                            x       y       z     vdW  Elec       q    Type
REMARK                         _______ _______ _______ _____ _____    ______ ____
ROOT
ATOM      1 CL   UNL     1      33.571 -23.813 -14.583  0.00  0.00    -0.079 Cl
ATOM      2  N   UNL     1      35.831 -21.384 -19.369  0.00  0.00    -0.205 N 
ATOM      3  N   UNL     1      37.030 -20.925 -18.970  0.00  0.00    -0.176 NA
ATOM      4  C   UNL     1      35.112 -22.004 -18.383  0.00  0.00    +0.074 C 
ATOM      5  C   UNL     1      35.914 -21.941 -17.250  0.00  0.00    +0.071 C 
ATOM      6  C   UNL     1      35.451 -22.501 -16.047  0.00  0.00    +0.158 C 
ATOM      7  C   UNL     1      37.076 -21.267 -17.680  0.00  0.00    +0.122 C 
ATOM      8  C   UNL     1      33.850 -22.603 -18.392  0.00  0.00    +0.017 C 
ATOM      9  C   UNL     1      34.188 -23.107 -16.034  0.00  0.00    +0.092 C 
ATOM     10  C   UNL     1      33.403 -23.155 -17.187  0.00  0.00    +0.016 C 
ENDROOT
BRANCH   6  11
ATOM     11  O   UNL     1      36.220 -22.453 -14.917  0.00  0.00    -0.453 OA
BRANCH  11  13
ATOM     12 CL   UNL     1      37.715 -27.334 -14.869  0.00  0.00    -0.082 Cl
ATOM     13  C   UNL     1      36.375 -23.625 -14.202  0.00  0.00    +0.147 C 
ATOM     14  C   UNL     1      36.000 -23.678 -12.860  0.00  0.00    +0.048 C 
ATOM     15  C   UNL     1      36.904 -24.756 -14.823  0.00  0.00    +0.049 C 
ATOM     16  C   UNL     1      36.156 -24.861 -12.138  0.00  0.00    +0.072 C 
ATOM     17  C   UNL     1      37.061 -25.940 -14.102  0.00  0.00    +0.061 C 
ATOM     18  C   UNL     1      36.686 -25.992 -12.760  0.00  0.00    +0.022 C 
BRANCH  16  20
ATOM     19  N   UNL     1      35.461 -24.958  -9.646  0.00  0.00    -0.191 NA
ATOM     20  C   UNL     1      35.773 -24.915 -10.762  0.00  0.00    +0.101 C 
ENDBRANCH  16  20
ENDBRANCH  11  13
ENDBRANCH   6  11
BRANCH   2  21
ATOM     21  C   UNL     1      35.426 -21.189 -20.742  0.00  0.00    +0.159 C 
BRANCH  21  25
ATOM     22  N   UNL     1      35.765 -18.736 -20.304  0.00  0.00    -0.230 N 
ATOM     23  N   UNL     1      35.725 -17.498 -20.842  0.00  0.00    -0.128 NA
ATOM     24  N   UNL     1      35.162 -16.797 -23.095  0.00  0.00    -0.192 NA
ATOM     25  C   UNL     1      35.435 -19.742 -21.169  0.00  0.00    +0.071 C 
ATOM     26  C   UNL     1      35.162 -19.112 -22.351  0.00  0.00    +0.058 C 
ATOM     27  C   UNL     1      35.354 -17.718 -22.108  0.00  0.00    +0.049 C 
ATOM     28  C   UNL     1      34.780 -19.727 -23.534  0.00  0.00    +0.065 C 
ATOM     29  C   UNL     1      34.588 -18.765 -24.532  0.00  0.00    +0.001 C 
ATOM     30  C   UNL     1      34.782 -17.387 -24.273  0.00  0.00    +0.105 C 
ATOM     31  H   UNL     1      36.010 -18.899 -19.365  0.00  0.00    +0.175 HD
ENDBRANCH  21  25
ENDBRANCH   2  21
TORSDOF 5
ENDMDL
MODEL 7
REMARK VINA RESULT:     -10.9      6.538     12.009
REMARK  Name = 24988948
REMARK  5 active torsions:
REMARK  status: ('A' for Active; 'I' for Inactive)
REMARK    1  A    between atoms: N_2  and  C_21
REMARK    2  A    between atoms: C_6  and  O_11
REMARK    3  A    between atoms: O_11  and  C_13
REMARK    4  A    between atoms: C_16  and  C_20
REMARK    5  A    between atoms: C_21  and  C_25
REMARK                            x       y       z     vdW  Elec       q    Type
REMARK                         _______ _______ _______ _____ _____    ______ ____
ROOT
ATOM      1 CL   UNL     1      31.789 -23.618 -14.398  0.00  0.00    -0.079 Cl
ATOM      2  N   UNL     1      35.594 -22.065 -18.525  0.00  0.00    -0.205 N 
ATOM      3  N   UNL     1      36.742 -21.868 -17.856  0.00  0.00    -0.176 NA
ATOM      4  C   UNL     1      34.542 -22.444 -17.735  0.00  0.00    +0.074 C 
ATOM      5  C   UNL     1      35.054 -22.496 -16.444  0.00  0.00    +0.071 C 
ATOM      6  C   UNL     1      34.209 -22.861 -15.382  0.00  0.00    +0.158 C 
ATOM      7  C   UNL     1      36.410 -22.131 -16.589  0.00  0.00    +0.122 C 
ATOM      8  C   UNL     1      33.211 -22.739 -18.039  0.00  0.00    +0.017 C 
ATOM      9  C   UNL     1      32.871 -23.161 -15.666  0.00  0.00    +0.092 C 
ATOM     10  C   UNL     1      32.382 -23.101 -16.972  0.00  0.00    +0.016 C 
ENDROOT
BRANCH   6  11
ATOM     11  O   UNL     1      34.688 -22.919 -14.101  0.00  0.00    -0.453 OA
BRANCH  11  13
ATOM     12 CL   UNL     1      38.746 -24.205 -11.284  0.00  0.00    -0.082 Cl
ATOM     13  C   UNL     1      35.691 -23.831 -13.838  0.00  0.00    +0.147 C 
ATOM     14  C   UNL     1      35.791 -24.996 -14.599  0.00  0.00    +0.048 C 
ATOM     15  C   UNL     1      36.606 -23.586 -12.814  0.00  0.00    +0.049 C 
ATOM     16  C   UNL     1      36.804 -25.917 -14.334  0.00  0.00    +0.072 C 
ATOM     17  C   UNL     1      37.619 -24.507 -12.548  0.00  0.00    +0.061 C 
ATOM     18  C   UNL     1      37.719 -25.672 -13.309  0.00  0.00    +0.022 C 
BRANCH  16  20
ATOM     19  N   UNL     1      36.988 -28.080 -15.744  0.00  0.00    -0.191 NA
ATOM     20  C   UNL     1      36.906 -27.111 -15.112  0.00  0.00    +0.101 C 
ENDBRANCH  16  20
ENDBRANCH  11  13
ENDBRANCH   6  11
BRANCH   2  21
ATOM     21  C   UNL     1      35.572 -21.869 -19.956  0.00  0.00    +0.159 C 
BRANCH  21  25
ATOM     22  N   UNL     1      37.073 -19.864 -19.723  0.00  0.00    -0.230 N 
ATOM     23  N   UNL     1      37.391 -18.653 -20.227  0.00  0.00    -0.128 NA
ATOM     24  N   UNL     1      36.442 -17.453 -22.110  0.00  0.00    -0.192 NA
ATOM     25  C   UNL     1      36.060 -20.506 -20.380  0.00  0.00    +0.071 C 
ATOM     26  C   UNL     1      35.695 -19.649 -21.381  0.00  0.00    +0.058 C 
ATOM     27  C   UNL     1      36.546 -18.508 -21.254  0.00  0.00    +0.049 C 
ATOM     28  C   UNL     1      34.698 -19.869 -22.320  0.00  0.00    +0.065 C 
ATOM     29  C   UNL     1      34.608 -18.774 -23.187  0.00  0.00    +0.001 C 
ATOM     30  C   UNL     1      35.459 -17.652 -23.046  0.00  0.00    +0.105 C 
ATOM     31  H   UNL     1      37.533 -20.253 -18.944  0.00  0.00    +0.175 HD
ENDBRANCH  21  25
ENDBRANCH   2  21
TORSDOF 5
ENDMDL
MODEL 8
REMARK VINA RESULT:     -10.7      7.174     12.099
REMARK  Name = 24988948
REMARK  5 active torsions:
REMARK  status: ('A' for Active; 'I' for Inactive)
REMARK    1  A    between atoms: N_2  and  C_21
REMARK    2  A    between atoms: C_6  and  O_11
REMARK    3  A    between atoms: O_11  and  C_13
REMARK    4  A    between atoms: C_16  and  C_20
REMARK    5  A    between atoms: C_21  and  C_25
REMARK                            x       y       z     vdW  Elec       q    Type
REMARK                         _______ _______ _______ _____ _____    ______ ____
ROOT
ATOM      1 CL   UNL     1      30.710 -24.049 -13.570  0.00  0.00    -0.079 Cl
ATOM      2  N   UNL     1      34.352 -22.410 -17.808  0.00  0.00    -0.205 N 
ATOM      3  N   UNL     1      35.565 -22.443 -17.230  0.00  0.00    -0.176 NA
ATOM      4  C   UNL     1      33.324 -22.765 -16.976  0.00  0.00    +0.074 C 
ATOM      5  C   UNL     1      33.924 -23.053 -15.756  0.00  0.00    +0.071 C 
ATOM      6  C   UNL     1      33.124 -23.457 -14.674  0.00  0.00    +0.158 C 
ATOM      7  C   UNL     1      35.300 -22.836 -15.982  0.00  0.00    +0.122 C 
ATOM      8  C   UNL     1      31.947 -22.856 -17.189  0.00  0.00    +0.017 C 
ATOM      9  C   UNL     1      31.740 -23.554 -14.866  0.00  0.00    +0.092 C 
ATOM     10  C   UNL     1      31.163 -23.259 -16.102  0.00  0.00    +0.016 C 
ENDROOT
BRANCH   6  11
ATOM     11  O   UNL     1      33.689 -23.746 -13.461  0.00  0.00    -0.453 OA
BRANCH  11  13
ATOM     12 CL   UNL     1      36.873 -27.296 -15.285  0.00  0.00    -0.082 Cl
ATOM     13  C   UNL     1      34.957 -24.293 -13.465  0.00  0.00    +0.147 C 
ATOM     14  C   UNL     1      35.954 -23.749 -12.655  0.00  0.00    +0.048 C 
ATOM     15  C   UNL     1      35.242 -25.390 -14.277  0.00  0.00    +0.049 C 
ATOM     16  C   UNL     1      37.234 -24.301 -12.658  0.00  0.00    +0.072 C 
ATOM     17  C   UNL     1      36.522 -25.943 -14.282  0.00  0.00    +0.061 C 
ATOM     18  C   UNL     1      37.519 -25.399 -13.471  0.00  0.00    +0.022 C 
BRANCH  16  20
ATOM     19  N   UNL     1      39.083 -23.288 -11.155  0.00  0.00    -0.191 NA
ATOM     20  C   UNL     1      38.255 -23.742 -11.828  0.00  0.00    +0.101 C 
ENDBRANCH  16  20
ENDBRANCH  11  13
ENDBRANCH   6  11
BRANCH   2  21
ATOM     21  C   UNL     1      34.245 -22.018 -19.195  0.00  0.00    +0.159 C 
BRANCH  21  25
ATOM     22  N   UNL     1      36.505 -20.940 -18.954  0.00  0.00    -0.230 N 
ATOM     23  N   UNL     1      37.360 -20.032 -19.470  0.00  0.00    -0.128 NA
ATOM     24  N   UNL     1      37.114 -18.583 -21.399  0.00  0.00    -0.192 NA
ATOM     25  C   UNL     1      35.320 -21.053 -19.628  0.00  0.00    +0.071 C 
ATOM     26  C   UNL     1      35.416 -20.154 -20.654  0.00  0.00    +0.058 C 
ATOM     27  C   UNL     1      36.698 -19.540 -20.523  0.00  0.00    +0.049 C 
ATOM     28  C   UNL     1      34.447 -19.910 -21.616  0.00  0.00    +0.065 C 
ATOM     29  C   UNL     1      34.894 -18.925 -22.504  0.00  0.00    +0.001 C 
ATOM     30  C   UNL     1      36.168 -18.327 -22.359  0.00  0.00    +0.105 C 
ATOM     31  H   UNL     1      36.717 -21.477 -18.156  0.00  0.00    +0.175 HD
ENDBRANCH  21  25
ENDBRANCH   2  21
TORSDOF 5
ENDMDL
MODEL 9
REMARK VINA RESULT:     -10.7      6.909     12.338
REMARK  Name = 24988948
REMARK  5 active torsions:
REMARK  status: ('A' for Active; 'I' for Inactive)
REMARK    1  A    between atoms: N_2  and  C_21
REMARK    2  A    between atoms: C_6  and  O_11
REMARK    3  A    between atoms: O_11  and  C_13
REMARK    4  A    between atoms: C_16  and  C_20
REMARK    5  A    between atoms: C_21  and  C_25
REMARK                            x       y       z     vdW  Elec       q    Type
REMARK                         _______ _______ _______ _____ _____    ______ ____
ROOT
ATOM      1 CL   UNL     1      33.276 -24.069 -13.670  0.00  0.00    -0.079 Cl
ATOM      2  N   UNL     1      35.834 -21.864 -18.414  0.00  0.00    -0.205 N 
ATOM      3  N   UNL     1      37.028 -21.432 -17.974  0.00  0.00    -0.176 NA
ATOM      4  C   UNL     1      35.049 -22.430 -17.446  0.00  0.00    +0.074 C 
ATOM      5  C   UNL     1      35.801 -22.358 -16.278  0.00  0.00    +0.071 C 
ATOM      6  C   UNL     1      35.264 -22.865 -15.083  0.00  0.00    +0.158 C 
ATOM      7  C   UNL     1      37.004 -21.735 -16.673  0.00  0.00    +0.122 C 
ATOM      8  C   UNL     1      33.770 -22.986 -17.495  0.00  0.00    +0.017 C 
ATOM      9  C   UNL     1      33.982 -23.428 -15.111  0.00  0.00    +0.092 C 
ATOM     10  C   UNL     1      33.249 -23.487 -16.297  0.00  0.00    +0.016 C 
ENDROOT
BRANCH   6  11
ATOM     11  O   UNL     1      35.983 -22.807 -13.919  0.00  0.00    -0.453 OA
BRANCH  11  13
ATOM     12 CL   UNL     1      36.826 -26.795 -10.845  0.00  0.00    -0.082 Cl
ATOM     13  C   UNL     1      36.769 -23.897 -13.602  0.00  0.00    +0.147 C 
ATOM     14  C   UNL     1      37.893 -24.194 -14.373  0.00  0.00    +0.048 C 
ATOM     15  C   UNL     1      36.440 -24.701 -12.511  0.00  0.00    +0.049 C 
ATOM     16  C   UNL     1      38.688 -25.294 -14.053  0.00  0.00    +0.072 C 
ATOM     17  C   UNL     1      37.234 -25.803 -12.191  0.00  0.00    +0.061 C 
ATOM     18  C   UNL     1      38.358 -26.099 -12.961  0.00  0.00    +0.022 C 
BRANCH  16  20
ATOM     19  N   UNL     1      40.774 -25.845 -15.484  0.00  0.00    -0.191 NA
ATOM     20  C   UNL     1      39.839 -25.598 -14.843  0.00  0.00    +0.101 C 
ENDBRANCH  16  20
ENDBRANCH  11  13
ENDBRANCH   6  11
BRANCH   2  21
ATOM     21  C   UNL     1      35.499 -21.699 -19.810  0.00  0.00    +0.159 C 
BRANCH  21  25
ATOM     22  N   UNL     1      37.055 -19.723 -19.848  0.00  0.00    -0.230 N 
ATOM     23  N   UNL     1      37.385 -18.584 -20.492  0.00  0.00    -0.128 NA
ATOM     24  N   UNL     1      36.402 -17.572 -22.466  0.00  0.00    -0.192 NA
ATOM     25  C   UNL     1      36.005 -20.404 -20.397  0.00  0.00    +0.071 C 
ATOM     26  C   UNL     1      35.627 -19.653 -21.475  0.00  0.00    +0.058 C 
ATOM     27  C   UNL     1      36.509 -18.530 -21.502  0.00  0.00    +0.049 C 
ATOM     28  C   UNL     1      34.593 -19.947 -22.352  0.00  0.00    +0.065 C 
ATOM     29  C   UNL     1      34.500 -18.952 -23.331  0.00  0.00    +0.001 C 
ATOM     30  C   UNL     1      35.382 -17.845 -23.342  0.00  0.00    +0.105 C 
ATOM     31  H   UNL     1      37.533 -20.037 -19.046  0.00  0.00    +0.175 HD
ENDBRANCH  21  25
ENDBRANCH   2  21
TORSDOF 5
ENDMDL
