MODEL 1
REMARK VINA RESULT:     -11.3      0.000      0.000
REMARK  Name = 9810927
REMARK  6 active torsions:
REMARK  status: ('A' for Active; 'I' for Inactive)
REMARK    1  A    between atoms: N_1  and  C_13
REMARK    2  A    between atoms: C_11  and  O_24
REMARK    3  A    between atoms: C_12  and  O_26
REMARK    4  A    between atoms: C_14  and  C_18
REMARK    5  A    between atoms: C_19  and  C_20
REMARK    6  A    between atoms: N_28  and  C_32
REMARK                            x       y       z     vdW  Elec       q    Type
REMARK                         _______ _______ _______ _____ _____    ______ ____
ROOT
ATOM      1  N   UNL     1      36.305 -23.558 -15.634  0.00  0.00    -0.247 N 
ATOM      2  N   UNL     1      37.500 -22.052 -16.765  0.00  0.00    -0.242 NA
ATOM      3  N   UNL     1      34.268 -23.548 -16.958  0.00  0.00    -0.228 NA
ATOM      4  N   UNL     1      34.430 -21.987 -18.827  0.00  0.00    -0.228 NA
ATOM      5  C   UNL     1      35.513 -23.142 -16.668  0.00  0.00    +0.152 C 
ATOM      6  C   UNL     1      37.488 -22.873 -15.736  0.00  0.00    +0.223 C 
ATOM      7  C   UNL     1      36.273 -22.210 -17.357  0.00  0.00    +0.140 C 
ATOM      8  C   UNL     1      35.688 -21.625 -18.475  0.00  0.00    +0.150 C 
ATOM      9  C   UNL     1      33.807 -22.913 -18.057  0.00  0.00    +0.253 C 
ATOM     10  N   UNL     1      36.386 -20.669 -19.234  0.00  0.00    -0.295 N 
ATOM     11  H   UNL     1      37.291 -20.480 -18.894  0.00  0.00    +0.154 HD
ENDROOT
BRANCH  10  14
ATOM     12 CL   UNL     1      34.966 -17.566 -24.071  0.00  0.00    -0.082 Cl
ATOM     13  F   UNL     1      37.983 -18.573 -20.131  0.00  0.00    -0.203 F 
ATOM     14  C   UNL     1      36.050 -19.929 -20.387  0.00  0.00    +0.077 C 
ATOM     15  C   UNL     1      36.870 -18.884 -20.811  0.00  0.00    +0.154 C 
ATOM     16  C   UNL     1      34.894 -20.243 -21.101  0.00  0.00    +0.018 C 
ATOM     17  C   UNL     1      36.535 -18.153 -21.951  0.00  0.00    +0.042 C 
ATOM     18  C   UNL     1      34.558 -19.512 -22.240  0.00  0.00    +0.013 C 
ATOM     19  C   UNL     1      35.378 -18.468 -22.666  0.00  0.00    +0.060 C 
ENDBRANCH  10  14
BRANCH   1  23
ATOM     20  O   UNL     1      34.536 -24.730 -14.560  0.00  0.00    -0.326 OA
ATOM     21  C   UNL     1      36.412 -24.151 -13.203  0.00  0.00    +0.187 C 
ATOM     22  C   UNL     1      35.140 -23.585 -12.602  0.00  0.00    +0.178 C 
ATOM     23  C   UNL     1      35.965 -24.545 -14.606  0.00  0.00    +0.225 C 
ATOM     24  C   UNL     1      34.067 -24.475 -13.216  0.00  0.00    +0.223 C 
BRANCH  24  28
ATOM     25  O   UNL     1      32.050 -24.041 -14.524  0.00  0.00    -0.421 OA
ATOM     26  N   UNL     1      31.950 -23.300 -12.416  0.00  0.00    -0.109 NA
ATOM     27  N   UNL     1      30.752 -22.990 -13.035  0.00  0.00    -0.112 NA
ATOM     28  C   UNL     1      32.667 -23.909 -13.322  0.00  0.00    +0.255 A 
ATOM     29  C   UNL     1      30.857 -23.441 -14.263  0.00  0.00    +0.225 A 
BRANCH  29  30
ATOM     30  C   UNL     1      29.885 -23.391 -15.363  0.00  0.00    +0.070 C 
ATOM     31  C   UNL     1      29.321 -24.811 -15.735  0.00  0.00    +0.009 C 
ATOM     32  C   UNL     1      30.498 -22.794 -16.683  0.00  0.00    +0.009 C 
ATOM     33  C   UNL     1      28.596 -22.518 -15.106  0.00  0.00    +0.009 C 
ENDBRANCH  29  30
ENDBRANCH  24  28
BRANCH  21  34
ATOM     34  O   UNL     1      36.805 -25.339 -12.519  0.00  0.00    -0.378 OA
ATOM     35  H   UNL     1      36.315 -26.096 -12.879  0.00  0.00    +0.211 HD
ENDBRANCH  21  34
BRANCH  22  36
ATOM     36  O   UNL     1      35.135 -23.644 -11.189  0.00  0.00    -0.379 OA
ATOM     37  H   UNL     1      35.983 -23.317 -10.849  0.00  0.00    +0.211 HD
ENDBRANCH  22  36
ENDBRANCH   1  23
TORSDOF 6
ENDMDL
MODEL 2
REMARK VINA RESULT:     -11.1      6.549      9.177
REMARK  Name = 9810927
REMARK  6 active torsions:
REMARK  status: ('A' for Active; 'I' for Inactive)
REMARK    1  A    between atoms: N_1  and  C_13
REMARK    2  A    between atoms: C_11  and  O_24
REMARK    3  A    between atoms: C_12  and  O_26
REMARK    4  A    between atoms: C_14  and  C_18
REMARK    5  A    between atoms: C_19  and  C_20
REMARK    6  A    between atoms: N_28  and  C_32
REMARK                            x       y       z     vdW  Elec       q    Type
REMARK                         _______ _______ _______ _____ _____    ______ ____
ROOT
ATOM      1  N   UNL     1      34.861 -16.587 -21.963  0.00  0.00    -0.247 N 
ATOM      2  N   UNL     1      34.065 -14.991 -20.624  0.00  0.00    -0.242 NA
ATOM      3  N   UNL     1      34.550 -15.511 -24.120  0.00  0.00    -0.228 NA
ATOM      4  N   UNL     1      33.564 -13.292 -23.871  0.00  0.00    -0.228 NA
ATOM      5  C   UNL     1      34.474 -15.562 -22.781  0.00  0.00    +0.152 C 
ATOM      6  C   UNL     1      34.595 -16.195 -20.678  0.00  0.00    +0.223 C 
ATOM      7  C   UNL     1      33.985 -14.583 -21.931  0.00  0.00    +0.140 C 
ATOM      8  C   UNL     1      33.518 -13.413 -22.522  0.00  0.00    +0.150 C 
ATOM      9  C   UNL     1      34.069 -14.334 -24.576  0.00  0.00    +0.253 C 
ATOM     10  N   UNL     1      33.005 -12.367 -21.736  0.00  0.00    -0.295 N 
ATOM     11  H   UNL     1      33.018 -12.556 -20.770  0.00  0.00    +0.154 HD
ENDROOT
BRANCH  10  14
ATOM     12 CL   UNL     1      30.790  -7.045 -23.084  0.00  0.00    -0.082 Cl
ATOM     13  F   UNL     1      30.559 -11.515 -20.717  0.00  0.00    -0.203 F 
ATOM     14  C   UNL     1      32.475 -11.099 -22.056  0.00  0.00    +0.077 C 
ATOM     15  C   UNL     1      31.247 -10.700 -21.529  0.00  0.00    +0.154 C 
ATOM     16  C   UNL     1      33.182 -10.244 -22.901  0.00  0.00    +0.018 C 
ATOM     17  C   UNL     1      30.726  -9.447 -21.847  0.00  0.00    +0.042 C 
ATOM     18  C   UNL     1      32.661  -8.991 -23.220  0.00  0.00    +0.013 C 
ATOM     19  C   UNL     1      31.433  -8.591 -22.692  0.00  0.00    +0.060 C 
ENDBRANCH  10  14
BRANCH   1  23
ATOM     20  O   UNL     1      34.561 -18.946 -22.025  0.00  0.00    -0.326 OA
ATOM     21  C   UNL     1      36.794 -18.161 -21.719  0.00  0.00    +0.187 C 
ATOM     22  C   UNL     1      36.408 -19.088 -20.582  0.00  0.00    +0.178 C 
ATOM     23  C   UNL     1      35.449 -17.865 -22.373  0.00  0.00    +0.225 C 
ATOM     24  C   UNL     1      35.270 -19.894 -21.195  0.00  0.00    +0.223 C 
BRANCH  24  28
ATOM     25  O   UNL     1      34.727 -21.475 -19.412  0.00  0.00    -0.421 OA
ATOM     26  N   UNL     1      32.989 -20.254 -20.113  0.00  0.00    -0.109 NA
ATOM     27  N   UNL     1      32.542 -21.099 -19.113  0.00  0.00    -0.112 NA
ATOM     28  C   UNL     1      34.263 -20.512 -20.248  0.00  0.00    +0.255 A 
ATOM     29  C   UNL     1      33.591 -21.792 -18.735  0.00  0.00    +0.225 A 
BRANCH  29  30
ATOM     30  C   UNL     1      33.702 -22.833 -17.704  0.00  0.00    +0.070 C 
ATOM     31  C   UNL     1      33.864 -24.272 -18.316  0.00  0.00    +0.009 C 
ATOM     32  C   UNL     1      32.444 -22.888 -16.762  0.00  0.00    +0.009 C 
ATOM     33  C   UNL     1      34.922 -22.694 -16.713  0.00  0.00    +0.009 C 
ENDBRANCH  29  30
ENDBRANCH  24  28
BRANCH  21  34
ATOM     34  O   UNL     1      37.603 -18.846 -22.673  0.00  0.00    -0.378 OA
ATOM     35  H   UNL     1      37.036 -19.227 -23.363  0.00  0.00    +0.211 HD
ENDBRANCH  21  34
BRANCH  22  36
ATOM     36  O   UNL     1      37.479 -19.911 -20.167  0.00  0.00    -0.379 OA
ATOM     37  H   UNL     1      38.168 -19.915 -20.851  0.00  0.00    +0.211 HD
ENDBRANCH  22  36
ENDBRANCH   1  23
TORSDOF 6
ENDMDL
MODEL 3
REMARK VINA RESULT:     -11.0      2.366      3.219
REMARK  Name = 9810927
REMARK  6 active torsions:
REMARK  status: ('A' for Active; 'I' for Inactive)
REMARK    1  A    between atoms: N_1  and  C_13
REMARK    2  A    between atoms: C_11  and  O_24
REMARK    3  A    between atoms: C_12  and  O_26
REMARK    4  A    between atoms: C_14  and  C_18
REMARK    5  A    between atoms: C_19  and  C_20
REMARK    6  A    between atoms: N_28  and  C_32
REMARK                            x       y       z     vdW  Elec       q    Type
REMARK                         _______ _______ _______ _____ _____    ______ ____
ROOT
ATOM      1  N   UNL     1      35.862 -22.004 -18.432  0.00  0.00    -0.247 N 
ATOM      2  N   UNL     1      36.974 -20.339 -19.416  0.00  0.00    -0.242 NA
ATOM      3  N   UNL     1      33.664 -21.669 -19.413  0.00  0.00    -0.228 NA
ATOM      4  N   UNL     1      33.655 -19.772 -20.948  0.00  0.00    -0.228 NA
ATOM      5  C   UNL     1      34.959 -21.367 -19.238  0.00  0.00    +0.152 C 
ATOM      6  C   UNL     1      37.056 -21.348 -18.574  0.00  0.00    +0.223 C 
ATOM      7  C   UNL     1      35.669 -20.340 -19.839  0.00  0.00    +0.140 C 
ATOM      8  C   UNL     1      34.969 -19.525 -20.724  0.00  0.00    +0.150 C 
ATOM      9  C   UNL     1      33.093 -20.814 -20.288  0.00  0.00    +0.253 C 
ATOM     10  N   UNL     1      35.610 -18.459 -21.379  0.00  0.00    -0.295 N 
ATOM     11  H   UNL     1      36.562 -18.369 -21.146  0.00  0.00    +0.154 HD
ENDROOT
BRANCH  10  14
ATOM     12 CL   UNL     1      33.723 -14.415 -25.269  0.00  0.00    -0.082 Cl
ATOM     13  F   UNL     1      34.737 -15.949 -20.551  0.00  0.00    -0.203 F 
ATOM     14  C   UNL     1      35.160 -17.494 -22.304  0.00  0.00    +0.077 C 
ATOM     15  C   UNL     1      34.729 -16.245 -21.858  0.00  0.00    +0.154 C 
ATOM     16  C   UNL     1      35.146 -17.792 -23.666  0.00  0.00    +0.018 C 
ATOM     17  C   UNL     1      34.284 -15.293 -22.775  0.00  0.00    +0.042 C 
ATOM     18  C   UNL     1      34.701 -16.840 -24.583  0.00  0.00    +0.013 C 
ATOM     19  C   UNL     1      34.271 -15.590 -24.138  0.00  0.00    +0.060 C 
ENDBRANCH  10  14
BRANCH   1  23
ATOM     20  O   UNL     1      34.217 -23.530 -17.642  0.00  0.00    -0.326 OA
ATOM     21  C   UNL     1      35.943 -22.929 -16.107  0.00  0.00    +0.187 C 
ATOM     22  C   UNL     1      34.583 -22.619 -15.510  0.00  0.00    +0.178 C 
ATOM     23  C   UNL     1      35.610 -23.165 -17.576  0.00  0.00    +0.225 C 
ATOM     24  C   UNL     1      33.663 -23.534 -16.306  0.00  0.00    +0.223 C 
BRANCH  24  28
ATOM     25  O   UNL     1      31.315 -23.907 -15.744  0.00  0.00    -0.421 OA
ATOM     26  N   UNL     1      31.668 -22.145 -17.076  0.00  0.00    -0.109 NA
ATOM     27  N   UNL     1      30.308 -22.238 -16.842  0.00  0.00    -0.112 NA
ATOM     28  C   UNL     1      32.206 -23.137 -16.417  0.00  0.00    +0.255 A 
ATOM     29  C   UNL     1      30.149 -23.280 -16.060  0.00  0.00    +0.225 A 
BRANCH  29  30
ATOM     30  C   UNL     1      28.918 -23.845 -15.493  0.00  0.00    +0.070 C 
ATOM     31  C   UNL     1      28.093 -24.674 -16.545  0.00  0.00    +0.009 C 
ATOM     32  C   UNL     1      27.947 -22.741 -14.935  0.00  0.00    +0.009 C 
ATOM     33  C   UNL     1      29.109 -24.839 -14.282  0.00  0.00    +0.009 C 
ENDBRANCH  29  30
ENDBRANCH  24  28
BRANCH  21  34
ATOM     34  O   UNL     1      36.459 -24.147 -15.574  0.00  0.00    -0.378 OA
ATOM     35  H   UNL     1      37.319 -24.339 -15.980  0.00  0.00    +0.211 HD
ENDBRANCH  21  34
BRANCH  22  36
ATOM     36  O   UNL     1      34.527 -22.885 -14.122  0.00  0.00    -0.379 OA
ATOM     37  H   UNL     1      34.279 -23.813 -13.981  0.00  0.00    +0.211 HD
ENDBRANCH  22  36
ENDBRANCH   1  23
TORSDOF 6
ENDMDL
MODEL 4
REMARK VINA RESULT:     -10.9     11.714     15.577
REMARK  Name = 9810927
REMARK  6 active torsions:
REMARK  status: ('A' for Active; 'I' for Inactive)
REMARK    1  A    between atoms: N_1  and  C_13
REMARK    2  A    between atoms: C_11  and  O_24
REMARK    3  A    between atoms: C_12  and  O_26
REMARK    4  A    between atoms: C_14  and  C_18
REMARK    5  A    between atoms: C_19  and  C_20
REMARK    6  A    between atoms: N_28  and  C_32
REMARK                            x       y       z     vdW  Elec       q    Type
REMARK                         _______ _______ _______ _____ _____    ______ ____
ROOT
ATOM      1  N   UNL     1      32.315 -10.202 -21.838  0.00  0.00    -0.247 N 
ATOM      2  N   UNL     1      33.548 -11.216 -23.397  0.00  0.00    -0.242 NA
ATOM      3  N   UNL     1      31.756 -12.112 -20.445  0.00  0.00    -0.228 NA
ATOM      4  N   UNL     1      32.737 -14.168 -21.321  0.00  0.00    -0.228 NA
ATOM      5  C   UNL     1      32.344 -11.526 -21.499  0.00  0.00    +0.152 C 
ATOM      6  C   UNL     1      33.052 -10.067 -22.986  0.00  0.00    +0.223 C 
ATOM      7  C   UNL     1      33.114 -12.136 -22.477  0.00  0.00    +0.140 C 
ATOM      8  C   UNL     1      33.303 -13.509 -22.362  0.00  0.00    +0.150 C 
ATOM      9  C   UNL     1      32.009 -13.439 -20.441  0.00  0.00    +0.253 C 
ATOM     10  N   UNL     1      34.071 -14.210 -23.309  0.00  0.00    -0.295 N 
ATOM     11  H   UNL     1      34.437 -13.638 -24.021  0.00  0.00    +0.154 HD
ENDROOT
BRANCH  10  14
ATOM     12 CL   UNL     1      35.543 -19.918 -23.853  0.00  0.00    -0.082 Cl
ATOM     13  F   UNL     1      33.889 -15.526 -25.754  0.00  0.00    -0.203 F 
ATOM     14  C   UNL     1      34.421 -15.571 -23.441  0.00  0.00    +0.077 C 
ATOM     15  C   UNL     1      34.319 -16.202 -24.679  0.00  0.00    +0.154 C 
ATOM     16  C   UNL     1      34.869 -16.283 -22.329  0.00  0.00    +0.018 C 
ATOM     17  C   UNL     1      34.666 -17.547 -24.807  0.00  0.00    +0.042 C 
ATOM     18  C   UNL     1      35.216 -17.627 -22.456  0.00  0.00    +0.013 C 
ATOM     19  C   UNL     1      35.115 -18.260 -23.695  0.00  0.00    +0.060 C 
ENDBRANCH  10  14
BRANCH   1  23
ATOM     20  O   UNL     1      31.349  -8.036 -22.024  0.00  0.00    -0.326 OA
ATOM     21  C   UNL     1      32.433  -8.550 -19.960  0.00  0.00    +0.187 C 
ATOM     22  C   UNL     1      33.040  -7.300 -20.569  0.00  0.00    +0.178 C 
ATOM     23  C   UNL     1      31.629  -9.124 -21.121  0.00  0.00    +0.225 C 
ATOM     24  C   UNL     1      31.930  -6.821 -21.496  0.00  0.00    +0.223 C 
BRANCH  24  28
ATOM     25  O   UNL     1      31.691  -4.767 -22.797  0.00  0.00    -0.421 OA
ATOM     26  N   UNL     1      33.210  -6.194 -23.611  0.00  0.00    -0.109 NA
ATOM     27  N   UNL     1      33.178  -5.086 -24.439  0.00  0.00    -0.112 NA
ATOM     28  C   UNL     1      32.329  -5.959 -22.675  0.00  0.00    +0.255 A 
ATOM     29  C   UNL     1      32.278  -4.281 -23.925  0.00  0.00    +0.225 A 
BRANCH  29  30
ATOM     30  C   UNL     1      31.832  -2.960 -24.387  0.00  0.00    +0.070 C 
ATOM     31  C   UNL     1      32.707  -2.408 -25.572  0.00  0.00    +0.009 C 
ATOM     32  C   UNL     1      31.882  -1.873 -23.252  0.00  0.00    +0.009 C 
ATOM     33  C   UNL     1      30.352  -2.883 -24.931  0.00  0.00    +0.009 C 
ENDBRANCH  29  30
ENDBRANCH  24  28
BRANCH  21  34
ATOM     34  O   UNL     1      31.517  -8.208 -18.921  0.00  0.00    -0.378 OA
ATOM     35  H   UNL     1      31.884  -7.480 -18.394  0.00  0.00    +0.211 HD
ENDBRANCH  21  34
BRANCH  22  36
ATOM     36  O   UNL     1      33.375  -6.331 -19.596  0.00  0.00    -0.379 OA
ATOM     37  H   UNL     1      33.999  -6.715 -18.959  0.00  0.00    +0.211 HD
ENDBRANCH  22  36
ENDBRANCH   1  23
TORSDOF 6
ENDMDL
MODEL 5
REMARK VINA RESULT:     -10.6     11.677     15.540
REMARK  Name = 9810927
REMARK  6 active torsions:
REMARK  status: ('A' for Active; 'I' for Inactive)
REMARK    1  A    between atoms: N_1  and  C_13
REMARK    2  A    between atoms: C_11  and  O_24
REMARK    3  A    between atoms: C_12  and  O_26
REMARK    4  A    between atoms: C_14  and  C_18
REMARK    5  A    between atoms: C_19  and  C_20
REMARK    6  A    between atoms: N_28  and  C_32
REMARK                            x       y       z     vdW  Elec       q    Type
REMARK                         _______ _______ _______ _____ _____    ______ ____
ROOT
ATOM      1  N   UNL     1      32.307 -10.199 -21.854  0.00  0.00    -0.247 N 
ATOM      2  N   UNL     1      33.569 -11.205 -23.394  0.00  0.00    -0.242 NA
ATOM      3  N   UNL     1      31.699 -12.120 -20.497  0.00  0.00    -0.228 NA
ATOM      4  N   UNL     1      32.685 -14.174 -21.372  0.00  0.00    -0.228 NA
ATOM      5  C   UNL     1      32.317 -11.527 -21.529  0.00  0.00    +0.152 C 
ATOM      6  C   UNL     1      33.072 -10.057 -22.982  0.00  0.00    +0.223 C 
ATOM      7  C   UNL     1      33.105 -12.132 -22.495  0.00  0.00    +0.140 C 
ATOM      8  C   UNL     1      33.281 -13.508 -22.391  0.00  0.00    +0.150 C 
ATOM      9  C   UNL     1      31.941 -13.449 -20.502  0.00  0.00    +0.253 C 
ATOM     10  N   UNL     1      34.066 -14.204 -23.327  0.00  0.00    -0.295 N 
ATOM     11  H   UNL     1      34.454 -13.627 -24.024  0.00  0.00    +0.154 HD
ENDROOT
BRANCH  10  14
ATOM     12 CL   UNL     1      35.505 -19.916 -23.920  0.00  0.00    -0.082 Cl
ATOM     13  F   UNL     1      35.104 -15.665 -21.198  0.00  0.00    -0.203 F 
ATOM     14  C   UNL     1      34.409 -15.566 -23.466  0.00  0.00    +0.077 C 
ATOM     15  C   UNL     1      34.927 -16.271 -22.381  0.00  0.00    +0.154 C 
ATOM     16  C   UNL     1      34.230 -16.205 -24.692  0.00  0.00    +0.018 C 
ATOM     17  C   UNL     1      35.266 -17.616 -22.521  0.00  0.00    +0.042 C 
ATOM     18  C   UNL     1      34.570 -17.550 -24.833  0.00  0.00    +0.013 C 
ATOM     19  C   UNL     1      35.087 -18.256 -23.748  0.00  0.00    +0.060 C 
ENDBRANCH  10  14
BRANCH   1  23
ATOM     20  O   UNL     1      31.331  -8.037 -22.047  0.00  0.00    -0.326 OA
ATOM     21  C   UNL     1      32.407  -8.545 -19.977  0.00  0.00    +0.187 C 
ATOM     22  C   UNL     1      33.010  -7.293 -20.584  0.00  0.00    +0.178 C 
ATOM     23  C   UNL     1      31.612  -9.124 -21.141  0.00  0.00    +0.225 C 
ATOM     24  C   UNL     1      31.904  -6.819 -21.517  0.00  0.00    +0.223 C 
BRANCH  24  28
ATOM     25  O   UNL     1      31.710  -4.739 -22.784  0.00  0.00    -0.421 OA
ATOM     26  N   UNL     1      33.151  -6.211 -23.657  0.00  0.00    -0.109 NA
ATOM     27  N   UNL     1      33.140  -5.092 -24.469  0.00  0.00    -0.112 NA
ATOM     28  C   UNL     1      32.304  -5.956 -22.695  0.00  0.00    +0.255 A 
ATOM     29  C   UNL     1      32.286  -4.260 -23.921  0.00  0.00    +0.225 A 
BRANCH  29  30
ATOM     30  C   UNL     1      31.879  -2.917 -24.353  0.00  0.00    +0.070 C 
ATOM     31  C   UNL     1      30.388  -2.869 -24.852  0.00  0.00    +0.009 C 
ATOM     32  C   UNL     1      32.763  -2.368 -25.533  0.00  0.00    +0.009 C 
ATOM     33  C   UNL     1      31.955  -1.786 -23.255  0.00  0.00    +0.009 C 
ENDBRANCH  29  30
ENDBRANCH  24  28
BRANCH  21  34
ATOM     34  O   UNL     1      31.484  -8.206 -18.942  0.00  0.00    -0.378 OA
ATOM     35  H   UNL     1      30.819  -7.591 -19.292  0.00  0.00    +0.211 HD
ENDBRANCH  21  34
BRANCH  22  36
ATOM     36  O   UNL     1      33.336  -6.321 -19.610  0.00  0.00    -0.379 OA
ATOM     37  H   UNL     1      33.901  -5.640 -20.009  0.00  0.00    +0.211 HD
ENDBRANCH  22  36
ENDBRANCH   1  23
TORSDOF 6
ENDMDL
MODEL 6
REMARK VINA RESULT:     -10.4      7.547     11.651
REMARK  Name = 9810927
REMARK  6 active torsions:
REMARK  status: ('A' for Active; 'I' for Inactive)
REMARK    1  A    between atoms: N_1  and  C_13
REMARK    2  A    between atoms: C_11  and  O_24
REMARK    3  A    between atoms: C_12  and  O_26
REMARK    4  A    between atoms: C_14  and  C_18
REMARK    5  A    between atoms: C_19  and  C_20
REMARK    6  A    between atoms: N_28  and  C_32
REMARK                            x       y       z     vdW  Elec       q    Type
REMARK                         _______ _______ _______ _____ _____    ______ ____
ROOT
ATOM      1  N   UNL     1      34.919 -16.631 -24.309  0.00  0.00    -0.247 N 
ATOM      2  N   UNL     1      34.850 -18.844 -24.038  0.00  0.00    -0.242 NA
ATOM      3  N   UNL     1      34.963 -15.930 -21.983  0.00  0.00    -0.228 NA
ATOM      4  N   UNL     1      34.916 -17.849 -20.476  0.00  0.00    -0.228 NA
ATOM      5  C   UNL     1      34.924 -16.849 -22.959  0.00  0.00    +0.152 C 
ATOM      6  C   UNL     1      34.873 -17.860 -24.913  0.00  0.00    +0.223 C 
ATOM      7  C   UNL     1      34.882 -18.227 -22.813  0.00  0.00    +0.140 C 
ATOM      8  C   UNL     1      34.879 -18.721 -21.513  0.00  0.00    +0.150 C 
ATOM      9  C   UNL     1      34.955 -16.527 -20.772  0.00  0.00    +0.253 C 
ATOM     10  N   UNL     1      34.838 -20.105 -21.271  0.00  0.00    -0.295 N 
ATOM     11  H   UNL     1      34.815 -20.649 -22.092  0.00  0.00    +0.154 HD
ENDROOT
BRANCH  10  14
ATOM     12 CL   UNL     1      34.791 -23.318 -16.298  0.00  0.00    -0.082 Cl
ATOM     13  F   UNL     1      32.452 -20.945 -20.111  0.00  0.00    -0.203 F 
ATOM     14  C   UNL     1      34.825 -20.871 -20.086  0.00  0.00    +0.077 C 
ATOM     15  C   UNL     1      33.613 -21.277 -19.529  0.00  0.00    +0.154 C 
ATOM     16  C   UNL     1      36.027 -21.221 -19.472  0.00  0.00    +0.018 C 
ATOM     17  C   UNL     1      33.602 -22.034 -18.358  0.00  0.00    +0.042 C 
ATOM     18  C   UNL     1      36.017 -21.977 -18.300  0.00  0.00    +0.013 C 
ATOM     19  C   UNL     1      34.805 -22.384 -17.743  0.00  0.00    +0.060 C 
ENDBRANCH  10  14
BRANCH   1  23
ATOM     20  O   UNL     1      34.799 -14.271 -24.029  0.00  0.00    -0.326 OA
ATOM     21  C   UNL     1      33.858 -15.160 -26.036  0.00  0.00    +0.187 C 
ATOM     22  C   UNL     1      32.815 -14.355 -25.283  0.00  0.00    +0.178 C 
ATOM     23  C   UNL     1      34.954 -15.335 -24.991  0.00  0.00    +0.225 C 
ATOM     24  C   UNL     1      33.673 -13.448 -24.412  0.00  0.00    +0.223 C 
BRANCH  24  28
ATOM     25  O   UNL     1      32.848 -11.569 -23.086  0.00  0.00    -0.421 OA
ATOM     26  N   UNL     1      32.677 -13.552 -22.066  0.00  0.00    -0.109 NA
ATOM     27  N   UNL     1      32.179 -12.587 -21.210  0.00  0.00    -0.112 NA
ATOM     28  C   UNL     1      33.052 -12.909 -23.140  0.00  0.00    +0.255 A 
ATOM     29  C   UNL     1      32.299 -11.446 -21.847  0.00  0.00    +0.225 A 
BRANCH  29  30
ATOM     30  C   UNL     1      31.928 -10.091 -21.417  0.00  0.00    +0.070 C 
ATOM     31  C   UNL     1      31.703  -9.991 -19.864  0.00  0.00    +0.009 C 
ATOM     32  C   UNL     1      30.603  -9.584 -22.094  0.00  0.00    +0.009 C 
ATOM     33  C   UNL     1      32.980  -8.957 -21.729  0.00  0.00    +0.009 C 
ENDBRANCH  29  30
ENDBRANCH  24  28
BRANCH  21  34
ATOM     34  O   UNL     1      34.399 -14.397 -27.113  0.00  0.00    -0.378 OA
ATOM     35  H   UNL     1      34.016 -14.706 -27.951  0.00  0.00    +0.211 HD
ENDBRANCH  21  34
BRANCH  22  36
ATOM     36  O   UNL     1      31.971 -13.620 -26.147  0.00  0.00    -0.379 OA
ATOM     37  H   UNL     1      31.829 -12.732 -25.782  0.00  0.00    +0.211 HD
ENDBRANCH  22  36
ENDBRANCH   1  23
TORSDOF 6
ENDMDL
MODEL 7
REMARK VINA RESULT:     -10.3     11.665     16.011
REMARK  Name = 9810927
REMARK  6 active torsions:
REMARK  status: ('A' for Active; 'I' for Inactive)
REMARK    1  A    between atoms: N_1  and  C_13
REMARK    2  A    between atoms: C_11  and  O_24
REMARK    3  A    between atoms: C_12  and  O_26
REMARK    4  A    between atoms: C_14  and  C_18
REMARK    5  A    between atoms: C_19  and  C_20
REMARK    6  A    between atoms: N_28  and  C_32
REMARK                            x       y       z     vdW  Elec       q    Type
REMARK                         _______ _______ _______ _____ _____    ______ ____
ROOT
ATOM      1  N   UNL     1      32.731 -10.132 -22.902  0.00  0.00    -0.247 N 
ATOM      2  N   UNL     1      34.200 -11.524 -23.839  0.00  0.00    -0.242 NA
ATOM      3  N   UNL     1      31.733 -11.624 -21.265  0.00  0.00    -0.228 NA
ATOM      4  N   UNL     1      32.727 -13.850 -21.369  0.00  0.00    -0.228 NA
ATOM      5  C   UNL     1      32.584 -11.330 -22.259  0.00  0.00    +0.152 C 
ATOM      6  C   UNL     1      33.713 -10.301 -23.843  0.00  0.00    +0.223 C 
ATOM      7  C   UNL     1      33.504 -12.178 -22.854  0.00  0.00    +0.140 C 
ATOM      8  C   UNL     1      33.559 -13.482 -22.374  0.00  0.00    +0.150 C 
ATOM      9  C   UNL     1      31.878 -12.912 -20.885  0.00  0.00    +0.253 C 
ATOM     10  N   UNL     1      34.463 -14.411 -22.919  0.00  0.00    -0.295 N 
ATOM     11  H   UNL     1      35.022 -14.041 -23.641  0.00  0.00    +0.154 HD
ENDROOT
BRANCH  10  14
ATOM     12 CL   UNL     1      35.587 -20.099 -21.724  0.00  0.00    -0.082 Cl
ATOM     13  F   UNL     1      34.734 -16.292 -24.952  0.00  0.00    -0.203 F 
ATOM     14  C   UNL     1      34.732 -15.767 -22.636  0.00  0.00    +0.077 C 
ATOM     15  C   UNL     1      34.861 -16.686 -23.677  0.00  0.00    +0.154 C 
ATOM     16  C   UNL     1      34.865 -16.187 -21.313  0.00  0.00    +0.018 C 
ATOM     17  C   UNL     1      35.126 -18.025 -23.395  0.00  0.00    +0.042 C 
ATOM     18  C   UNL     1      35.129 -17.526 -21.031  0.00  0.00    +0.013 C 
ATOM     19  C   UNL     1      35.261 -18.446 -22.071  0.00  0.00    +0.060 C 
ENDBRANCH  10  14
BRANCH   1  23
ATOM     20  O   UNL     1      32.220  -7.952 -23.707  0.00  0.00    -0.326 OA
ATOM     21  C   UNL     1      32.367  -8.210 -21.339  0.00  0.00    +0.187 C 
ATOM     22  C   UNL     1      33.328  -7.132 -21.806  0.00  0.00    +0.178 C 
ATOM     23  C   UNL     1      31.985  -8.897 -22.644  0.00  0.00    +0.225 C 
ATOM     24  C   UNL     1      32.726  -6.720 -23.143  0.00  0.00    +0.223 C 
BRANCH  24  28
ATOM     25  O   UNL     1      33.109  -5.180 -25.000  0.00  0.00    -0.421 OA
ATOM     26  N   UNL     1      34.926  -6.322 -24.370  0.00  0.00    -0.109 NA
ATOM     27  N   UNL     1      35.283  -5.497 -25.421  0.00  0.00    -0.112 NA
ATOM     28  C   UNL     1      33.655  -6.100 -24.165  0.00  0.00    +0.255 A 
ATOM     29  C   UNL     1      34.192  -4.850 -25.756  0.00  0.00    +0.225 A 
BRANCH  29  30
ATOM     30  C   UNL     1      33.986  -3.842 -26.804  0.00  0.00    +0.070 C 
ATOM     31  C   UNL     1      32.612  -3.091 -26.658  0.00  0.00    +0.009 C 
ATOM     32  C   UNL     1      34.004  -4.462 -28.250  0.00  0.00    +0.009 C 
ATOM     33  C   UNL     1      35.056  -2.683 -26.867  0.00  0.00    +0.009 C 
ENDBRANCH  29  30
ENDBRANCH  24  28
BRANCH  21  34
ATOM     34  O   UNL     1      31.187  -7.626 -20.789  0.00  0.00    -0.378 OA
ATOM     35  H   UNL     1      31.310  -7.485 -19.837  0.00  0.00    +0.211 HD
ENDBRANCH  21  34
BRANCH  22  36
ATOM     36  O   UNL     1      33.407  -6.048 -20.902  0.00  0.00    -0.379 OA
ATOM     37  H   UNL     1      34.284  -5.638 -20.965  0.00  0.00    +0.211 HD
ENDBRANCH  22  36
ENDBRANCH   1  23
TORSDOF 6
ENDMDL
MODEL 8
REMARK VINA RESULT:     -10.2      1.634      2.582
REMARK  Name = 9810927
REMARK  6 active torsions:
REMARK  status: ('A' for Active; 'I' for Inactive)
REMARK    1  A    between atoms: N_1  and  C_13
REMARK    2  A    between atoms: C_11  and  O_24
REMARK    3  A    between atoms: C_12  and  O_26
REMARK    4  A    between atoms: C_14  and  C_18
REMARK    5  A    between atoms: C_19  and  C_20
REMARK    6  A    between atoms: N_28  and  C_32
REMARK                            x       y       z     vdW  Elec       q    Type
REMARK                         _______ _______ _______ _____ _____    ______ ____
ROOT
ATOM      1  N   UNL     1      34.794 -22.763 -17.837  0.00  0.00    -0.247 N 
ATOM      2  N   UNL     1      33.379 -21.739 -19.225  0.00  0.00    -0.242 NA
ATOM      3  N   UNL     1      36.875 -21.705 -18.512  0.00  0.00    -0.228 NA
ATOM      4  N   UNL     1      36.508 -20.087 -20.302  0.00  0.00    -0.228 NA
ATOM      5  C   UNL     1      35.550 -21.904 -18.585  0.00  0.00    +0.152 C 
ATOM      6  C   UNL     1      33.498 -22.628 -18.260  0.00  0.00    +0.223 C 
ATOM      7  C   UNL     1      34.654 -21.279 -19.438  0.00  0.00    +0.140 C 
ATOM      8  C   UNL     1      35.177 -20.339 -20.320  0.00  0.00    +0.150 C 
ATOM      9  C   UNL     1      37.263 -20.776 -19.412  0.00  0.00    +0.253 C 
ATOM     10  N   UNL     1      34.340 -19.656 -21.221  0.00  0.00    -0.295 N 
ATOM     11  H   UNL     1      33.392 -19.913 -21.150  0.00  0.00    +0.154 HD
ENDROOT
BRANCH  10  14
ATOM     12 CL   UNL     1      35.381 -15.550 -25.357  0.00  0.00    -0.082 Cl
ATOM     13  F   UNL     1      34.899 -17.018 -20.534  0.00  0.00    -0.203 F 
ATOM     14  C   UNL     1      34.589 -18.676 -22.205  0.00  0.00    +0.077 C 
ATOM     15  C   UNL     1      34.866 -17.362 -21.830  0.00  0.00    +0.154 C 
ATOM     16  C   UNL     1      34.556 -19.024 -23.555  0.00  0.00    +0.018 C 
ATOM     17  C   UNL     1      35.111 -16.396 -22.804  0.00  0.00    +0.042 C 
ATOM     18  C   UNL     1      34.800 -18.058 -24.530  0.00  0.00    +0.013 C 
ATOM     19  C   UNL     1      35.079 -16.744 -24.155  0.00  0.00    +0.060 C 
ENDBRANCH  10  14
BRANCH   1  23
ATOM     20  O   UNL     1      34.145 -24.242 -16.090  0.00  0.00    -0.326 OA
ATOM     21  C   UNL     1      36.138 -22.976 -15.734  0.00  0.00    +0.187 C 
ATOM     22  C   UNL     1      35.153 -22.725 -14.608  0.00  0.00    +0.178 C 
ATOM     23  C   UNL     1      35.269 -23.662 -16.783  0.00  0.00    +0.225 C 
ATOM     24  C   UNL     1      34.261 -23.958 -14.677  0.00  0.00    +0.223 C 
BRANCH  24  28
ATOM     25  O   UNL     1      31.862 -23.655 -15.026  0.00  0.00    -0.421 OA
ATOM     26  N   UNL     1      32.453 -23.881 -12.880  0.00  0.00    -0.109 NA
ATOM     27  N   UNL     1      31.080 -23.717 -12.930  0.00  0.00    -0.112 NA
ATOM     28  C   UNL     1      32.857 -23.837 -14.122  0.00  0.00    +0.255 A 
ATOM     29  C   UNL     1      30.781 -23.589 -14.202  0.00  0.00    +0.225 A 
BRANCH  29  30
ATOM     30  C   UNL     1      29.472 -23.394 -14.839  0.00  0.00    +0.070 C 
ATOM     31  C   UNL     1      28.605 -24.706 -14.853  0.00  0.00    +0.009 C 
ATOM     32  C   UNL     1      29.593 -22.923 -16.335  0.00  0.00    +0.009 C 
ATOM     33  C   UNL     1      28.533 -22.317 -14.169  0.00  0.00    +0.009 C 
ENDBRANCH  29  30
ENDBRANCH  24  28
BRANCH  21  34
ATOM     34  O   UNL     1      37.143 -23.902 -15.325  0.00  0.00    -0.378 OA
ATOM     35  H   UNL     1      37.506 -24.350 -16.105  0.00  0.00    +0.211 HD
ENDBRANCH  21  34
BRANCH  22  36
ATOM     36  O   UNL     1      35.787 -22.598 -13.351  0.00  0.00    -0.379 OA
ATOM     37  H   UNL     1      35.843 -21.659 -13.111  0.00  0.00    +0.211 HD
ENDBRANCH  22  36
ENDBRANCH   1  23
TORSDOF 6
ENDMDL
MODEL 9
REMARK VINA RESULT:     -10.1      5.758     10.138
REMARK  Name = 9810927
REMARK  6 active torsions:
REMARK  status: ('A' for Active; 'I' for Inactive)
REMARK    1  A    between atoms: N_1  and  C_13
REMARK    2  A    between atoms: C_11  and  O_24
REMARK    3  A    between atoms: C_12  and  O_26
REMARK    4  A    between atoms: C_14  and  C_18
REMARK    5  A    between atoms: C_19  and  C_20
REMARK    6  A    between atoms: N_28  and  C_32
REMARK                            x       y       z     vdW  Elec       q    Type
REMARK                         _______ _______ _______ _____ _____    ______ ____
ROOT
ATOM      1  N   UNL     1      34.548 -20.237 -20.842  0.00  0.00    -0.247 N 
ATOM      2  N   UNL     1      32.550 -20.717 -19.973  0.00  0.00    -0.242 NA
ATOM      3  N   UNL     1      35.981 -21.346 -19.223  0.00  0.00    -0.228 NA
ATOM      4  N   UNL     1      34.670 -22.430 -17.472  0.00  0.00    -0.228 NA
ATOM      5  C   UNL     1      34.790 -20.976 -19.717  0.00  0.00    +0.152 C 
ATOM      6  C   UNL     1      33.188 -20.108 -20.952  0.00  0.00    +0.223 C 
ATOM      7  C   UNL     1      33.539 -21.264 -19.196  0.00  0.00    +0.140 C 
ATOM      8  C   UNL     1      33.504 -22.021 -18.028  0.00  0.00    +0.150 C 
ATOM      9  C   UNL     1      35.819 -22.071 -18.095  0.00  0.00    +0.253 C 
ATOM     10  N   UNL     1      32.278 -22.361 -17.429  0.00  0.00    -0.295 N 
ATOM     11  H   UNL     1      31.493 -22.016 -17.914  0.00  0.00    +0.154 HD
ENDROOT
BRANCH  10  14
ATOM     12 CL   UNL     1      30.904 -25.455 -12.573  0.00  0.00    -0.082 Cl
ATOM     13  F   UNL     1      29.631 -22.879 -16.743  0.00  0.00    -0.203 F 
ATOM     14  C   UNL     1      31.948 -23.098 -16.273  0.00  0.00    +0.077 C 
ATOM     15  C   UNL     1      30.613 -23.341 -15.955  0.00  0.00    +0.154 C 
ATOM     16  C   UNL     1      32.962 -23.583 -15.446  0.00  0.00    +0.018 C 
ATOM     17  C   UNL     1      30.289 -24.070 -14.811  0.00  0.00    +0.042 C 
ATOM     18  C   UNL     1      32.639 -24.311 -14.302  0.00  0.00    +0.013 C 
ATOM     19  C   UNL     1      31.303 -24.556 -13.984  0.00  0.00    +0.060 C 
ENDBRANCH  10  14
BRANCH   1  23
ATOM     20  O   UNL     1      35.747 -18.283 -21.476  0.00  0.00    -0.326 OA
ATOM     21  C   UNL     1      35.154 -19.789 -23.230  0.00  0.00    +0.187 C 
ATOM     22  C   UNL     1      34.606 -18.405 -23.525  0.00  0.00    +0.178 C 
ATOM     23  C   UNL     1      35.545 -19.681 -21.761  0.00  0.00    +0.225 C 
ATOM     24  C   UNL     1      35.505 -17.514 -22.678  0.00  0.00    +0.223 C 
BRANCH  24  28
ATOM     25  O   UNL     1      34.422 -15.396 -23.233  0.00  0.00    -0.421 OA
ATOM     26  N   UNL     1      34.918 -15.629 -21.064  0.00  0.00    -0.109 NA
ATOM     27  N   UNL     1      34.316 -14.395 -21.235  0.00  0.00    -0.112 NA
ATOM     28  C   UNL     1      34.956 -16.169 -22.253  0.00  0.00    +0.255 A 
ATOM     29  C   UNL     1      34.045 -14.303 -22.515  0.00  0.00    +0.225 A 
BRANCH  29  30
ATOM     30  C   UNL     1      33.402 -13.211 -23.259  0.00  0.00    +0.070 C 
ATOM     31  C   UNL     1      32.216 -12.554 -22.462  0.00  0.00    +0.009 C 
ATOM     32  C   UNL     1      32.807 -13.686 -24.635  0.00  0.00    +0.009 C 
ATOM     33  C   UNL     1      34.333 -11.995 -23.639  0.00  0.00    +0.009 C 
ENDBRANCH  29  30
ENDBRANCH  24  28
BRANCH  21  34
ATOM     34  O   UNL     1      36.342 -20.029 -23.983  0.00  0.00    -0.378 OA
ATOM     35  H   UNL     1      36.877 -20.704 -23.535  0.00  0.00    +0.211 HD
ENDBRANCH  21  34
BRANCH  22  36
ATOM     36  O   UNL     1      34.674 -18.077 -24.898  0.00  0.00    -0.379 OA
ATOM     37  H   UNL     1      34.491 -17.130 -25.013  0.00  0.00    +0.211 HD
ENDBRANCH  22  36
ENDBRANCH   1  23
TORSDOF 6
ENDMDL
