MODEL 1
REMARK VINA RESULT:     -12.0      0.000      0.000
REMARK  Name = 12087505
REMARK  3 active torsions:
REMARK  status: ('A' for Active; 'I' for Inactive)
REMARK    1  A    between atoms: C_1  and  S_18
REMARK    2  A    between atoms: C_4  and  N_9
REMARK    3  A    between atoms: S_18  and  N_21
REMARK                            x       y       z     vdW  Elec       q    Type
REMARK                         _______ _______ _______ _____ _____    ______ ____
ROOT
ATOM      1  C   UNL     1      35.192 -19.918 -21.032  0.00  0.00    +0.123 C 
ATOM      2  C   UNL     1      35.941 -20.584 -20.076  0.00  0.00    +0.035 C 
ATOM      3  C   UNL     1      33.809 -19.982 -21.039  0.00  0.00    +0.020 C 
ATOM      4  C   UNL     1      35.287 -21.335 -19.098  0.00  0.00    +0.053 C 
ATOM      5  C   UNL     1      33.155 -20.733 -20.062  0.00  0.00    +0.003 C 
ATOM      6  C   UNL     1      33.895 -21.408 -19.091  0.00  0.00    +0.015 C 
ENDROOT
BRANCH   4   9
ATOM      7  S   UNL     1      38.102 -24.472 -14.475  0.00  0.00    -0.051 S 
ATOM      8  O   UNL     1      34.386 -22.744 -16.628  0.00  0.00    -0.252 OA
ATOM      9  N   UNL     1      36.027 -22.011 -18.127  0.00  0.00    -0.268 N 
ATOM     10  N   UNL     1      36.652 -23.218 -16.263  0.00  0.00    -0.248 N 
ATOM     11  N   UNL     1      35.528 -24.236 -14.391  0.00  0.00    -0.222 NA
ATOM     12  C   UNL     1      35.565 -22.671 -16.962  0.00  0.00    +0.310 C 
ATOM     13  C   UNL     1      36.595 -23.941 -15.069  0.00  0.00    +0.167 C 
ATOM     14  C   UNL     1      37.274 -25.186 -13.154  0.00  0.00    +0.059 C 
ATOM     15  C   UNL     1      35.918 -24.959 -13.280  0.00  0.00    +0.108 C 
ATOM     16  H   UNL     1      37.001 -22.030 -18.270  0.00  0.00    +0.156 HD
ATOM     17  H   UNL     1      37.545 -23.078 -16.654  0.00  0.00    +0.158 HD
ENDBRANCH   4   9
BRANCH   1  18
ATOM     18  S   UNL     1      36.020 -18.969 -22.271  0.00  0.00    +0.063 S 
ATOM     19  O   UNL     1      37.346 -18.662 -21.781  0.00  0.00    -0.153 OA
ATOM     20  O   UNL     1      35.828 -19.633 -23.542  0.00  0.00    -0.153 OA
BRANCH  18  21
ATOM     21  N   UNL     1      35.069 -17.545 -22.238  0.00  0.00    -0.152 NA
ATOM     22  N   UNL     1      34.035 -14.904 -22.190  0.00  0.00    -0.290 N 
ATOM     23  C   UNL     1      35.194 -16.720 -21.003  0.00  0.00    +0.117 C 
ATOM     24  C   UNL     1      35.147 -16.695 -23.459  0.00  0.00    +0.117 C 
ATOM     25  C   UNL     1      34.061 -15.700 -20.955  0.00  0.00    +0.111 C 
ATOM     26  C   UNL     1      34.016 -15.670 -23.443  0.00  0.00    +0.111 C 
ATOM     27  N   UNL     1      32.404 -13.412 -21.266  0.00  0.00    -0.229 NA
ATOM     28  C   UNL     1      33.431 -13.643 -22.140  0.00  0.00    +0.132 C 
ATOM     29  C   UNL     1      33.903 -12.642 -22.999  0.00  0.00    +0.034 C 
ATOM     30  C   UNL     1      33.311 -11.384 -22.962  0.00  0.00    +0.004 C 
ATOM     31  C   UNL     1      31.855 -12.177 -21.258  0.00  0.00    +0.100 C 
ATOM     32  C   UNL     1      32.268 -11.138 -22.077  0.00  0.00    +0.021 C 
ENDBRANCH  18  21
ENDBRANCH   1  18
TORSDOF 3
ENDMDL
MODEL 2
REMARK VINA RESULT:     -11.2      2.335     10.777
REMARK  Name = 12087505
REMARK  3 active torsions:
REMARK  status: ('A' for Active; 'I' for Inactive)
REMARK    1  A    between atoms: C_1  and  S_18
REMARK    2  A    between atoms: C_4  and  N_9
REMARK    3  A    between atoms: S_18  and  N_21
REMARK                            x       y       z     vdW  Elec       q    Type
REMARK                         _______ _______ _______ _____ _____    ______ ____
ROOT
ATOM      1  C   UNL     1      34.959 -21.243 -19.509  0.00  0.00    +0.123 C 
ATOM      2  C   UNL     1      34.531 -20.314 -20.443  0.00  0.00    +0.035 C 
ATOM      3  C   UNL     1      36.298 -21.373 -19.181  0.00  0.00    +0.020 C 
ATOM      4  C   UNL     1      35.470 -19.492 -21.067  0.00  0.00    +0.053 C 
ATOM      5  C   UNL     1      37.237 -20.550 -19.804  0.00  0.00    +0.003 C 
ATOM      6  C   UNL     1      36.822 -19.609 -20.747  0.00  0.00    +0.015 C 
ENDROOT
BRANCH   4   9
ATOM      7  S   UNL     1      33.690 -14.867 -24.885  0.00  0.00    -0.051 S 
ATOM      8  O   UNL     1      35.184 -16.531 -20.832  0.00  0.00    -0.252 OA
ATOM      9  N   UNL     1      35.055 -18.550 -22.009  0.00  0.00    -0.268 N 
ATOM     10  N   UNL     1      34.478 -16.582 -23.067  0.00  0.00    -0.248 N 
ATOM     11  N   UNL     1      34.383 -14.250 -22.472  0.00  0.00    -0.222 NA
ATOM     12  C   UNL     1      34.930 -17.146 -21.864  0.00  0.00    +0.310 C 
ATOM     13  C   UNL     1      34.235 -15.229 -23.311  0.00  0.00    +0.167 C 
ATOM     14  C   UNL     1      33.633 -13.214 -24.432  0.00  0.00    +0.059 C 
ATOM     15  C   UNL     1      34.035 -13.080 -23.119  0.00  0.00    +0.108 C 
ATOM     16  H   UNL     1      34.816 -18.910 -22.894  0.00  0.00    +0.156 HD
ATOM     17  H   UNL     1      34.316 -17.203 -23.813  0.00  0.00    +0.158 HD
ENDBRANCH   4   9
BRANCH   1  18
ATOM     18  S   UNL     1      33.772 -22.286 -18.721  0.00  0.00    +0.063 S 
ATOM     19  O   UNL     1      32.549 -21.528 -18.567  0.00  0.00    -0.153 OA
ATOM     20  O   UNL     1      33.778 -23.563 -19.403  0.00  0.00    -0.153 OA
BRANCH  18  21
ATOM     21  N   UNL     1      34.511 -22.471 -17.187  0.00  0.00    -0.152 NA
ATOM     22  N   UNL     1      35.871 -23.336 -14.854  0.00  0.00    -0.290 N 
ATOM     23  C   UNL     1      33.881 -23.483 -16.292  0.00  0.00    +0.117 C 
ATOM     24  C   UNL     1      35.993 -22.622 -17.204  0.00  0.00    +0.117 C 
ATOM     25  C   UNL     1      34.403 -23.299 -14.870  0.00  0.00    +0.111 C 
ATOM     26  C   UNL     1      36.544 -22.431 -15.793  0.00  0.00    +0.111 C 
ATOM     27  N   UNL     1      35.904 -23.378 -12.458  0.00  0.00    -0.229 NA
ATOM     28  C   UNL     1      36.502 -23.679 -13.652  0.00  0.00    +0.132 C 
ATOM     29  C   UNL     1      37.742 -24.328 -13.709  0.00  0.00    +0.034 C 
ATOM     30  C   UNL     1      38.380 -24.674 -12.523  0.00  0.00    +0.004 C 
ATOM     31  C   UNL     1      36.554 -23.732 -11.326  0.00  0.00    +0.100 C 
ATOM     32  C   UNL     1      37.782 -24.374 -11.305  0.00  0.00    +0.021 C 
ENDBRANCH  18  21
ENDBRANCH   1  18
TORSDOF 3
ENDMDL
MODEL 3
REMARK VINA RESULT:      -9.5      4.457     10.088
REMARK  Name = 12087505
REMARK  3 active torsions:
REMARK  status: ('A' for Active; 'I' for Inactive)
REMARK    1  A    between atoms: C_1  and  S_18
REMARK    2  A    between atoms: C_4  and  N_9
REMARK    3  A    between atoms: S_18  and  N_21
REMARK                            x       y       z     vdW  Elec       q    Type
REMARK                         _______ _______ _______ _____ _____    ______ ____
ROOT
ATOM      1  C   UNL     1      37.188 -24.132 -13.589  0.00  0.00    +0.123 C 
ATOM      2  C   UNL     1      37.036 -23.244 -14.641  0.00  0.00    +0.035 C 
ATOM      3  C   UNL     1      38.272 -24.989 -13.519  0.00  0.00    +0.020 C 
ATOM      4  C   UNL     1      37.997 -23.213 -15.652  0.00  0.00    +0.053 C 
ATOM      5  C   UNL     1      39.235 -24.958 -14.528  0.00  0.00    +0.003 C 
ATOM      6  C   UNL     1      39.097 -24.069 -15.595  0.00  0.00    +0.015 C 
ENDROOT
BRANCH   4   9
ATOM      7  S   UNL     1      36.833 -19.404 -20.475  0.00  0.00    -0.051 S 
ATOM      8  O   UNL     1      35.629 -22.613 -17.364  0.00  0.00    -0.252 OA
ATOM      9  N   UNL     1      37.860 -22.324 -16.718  0.00  0.00    -0.268 N 
ATOM     10  N   UNL     1      37.021 -21.093 -18.480  0.00  0.00    -0.248 N 
ATOM     11  N   UNL     1      34.907 -20.902 -19.619  0.00  0.00    -0.222 NA
ATOM     12  C   UNL     1      36.716 -22.063 -17.513  0.00  0.00    +0.310 C 
ATOM     13  C   UNL     1      36.152 -20.577 -19.444  0.00  0.00    +0.167 C 
ATOM     14  C   UNL     1      35.315 -19.290 -21.266  0.00  0.00    +0.059 C 
ATOM     15  C   UNL     1      34.419 -20.157 -20.675  0.00  0.00    +0.108 C 
ATOM     16  H   UNL     1      38.667 -21.810 -16.951  0.00  0.00    +0.156 HD
ATOM     17  H   UNL     1      37.940 -20.740 -18.478  0.00  0.00    +0.158 HD
ENDBRANCH   4   9
BRANCH   1  18
ATOM     18  S   UNL     1      35.969 -24.173 -12.311  0.00  0.00    +0.063 S 
ATOM     19  O   UNL     1      36.132 -25.414 -11.584  0.00  0.00    -0.153 OA
ATOM     20  O   UNL     1      35.996 -22.898 -11.628  0.00  0.00    -0.153 OA
BRANCH  18  21
ATOM     21  N   UNL     1      34.547 -24.266 -13.261  0.00  0.00    -0.152 NA
ATOM     22  N   UNL     1      32.006 -23.955 -14.482  0.00  0.00    -0.290 N 
ATOM     23  C   UNL     1      33.315 -24.677 -12.529  0.00  0.00    +0.117 C 
ATOM     24  C   UNL     1      34.281 -23.089 -14.134  0.00  0.00    +0.117 C 
ATOM     25  C   UNL     1      32.229 -25.054 -13.532  0.00  0.00    +0.111 C 
ATOM     26  C   UNL     1      33.204 -23.441 -15.156  0.00  0.00    +0.111 C 
ATOM     27  N   UNL     1      30.075 -25.049 -15.386  0.00  0.00    -0.229 NA
ATOM     28  C   UNL     1      30.767 -23.896 -15.131  0.00  0.00    +0.132 C 
ATOM     29  C   UNL     1      30.269 -22.642 -15.506  0.00  0.00    +0.034 C 
ATOM     30  C   UNL     1      29.040 -22.568 -16.153  0.00  0.00    +0.004 C 
ATOM     31  C   UNL     1      28.883 -24.937 -16.015  0.00  0.00    +0.100 C 
ATOM     32  C   UNL     1      28.327 -23.732 -16.415  0.00  0.00    +0.021 C 
ENDBRANCH  18  21
ENDBRANCH   1  18
TORSDOF 3
ENDMDL
MODEL 4
REMARK VINA RESULT:      -9.3      1.874      2.288
REMARK  Name = 12087505
REMARK  3 active torsions:
REMARK  status: ('A' for Active; 'I' for Inactive)
REMARK    1  A    between atoms: C_1  and  S_18
REMARK    2  A    between atoms: C_4  and  N_9
REMARK    3  A    between atoms: S_18  and  N_21
REMARK                            x       y       z     vdW  Elec       q    Type
REMARK                         _______ _______ _______ _____ _____    ______ ____
ROOT
ATOM      1  C   UNL     1      35.515 -20.339 -20.074  0.00  0.00    +0.123 C 
ATOM      2  C   UNL     1      35.857 -21.260 -19.098  0.00  0.00    +0.035 C 
ATOM      3  C   UNL     1      34.198 -20.150 -20.457  0.00  0.00    +0.020 C 
ATOM      4  C   UNL     1      34.854 -22.014 -18.488  0.00  0.00    +0.053 C 
ATOM      5  C   UNL     1      33.194 -20.902 -19.847  0.00  0.00    +0.003 C 
ATOM      6  C   UNL     1      33.523 -21.834 -18.862  0.00  0.00    +0.015 C 
ENDROOT
BRANCH   4   9
ATOM      7  S   UNL     1      36.641 -25.775 -13.820  0.00  0.00    -0.051 S 
ATOM      8  O   UNL     1      36.570 -21.727 -16.064  0.00  0.00    -0.252 OA
ATOM      9  N   UNL     1      35.182 -22.945 -17.503  0.00  0.00    -0.268 N 
ATOM     10  N   UNL     1      36.064 -23.975 -15.636  0.00  0.00    -0.248 N 
ATOM     11  N   UNL     1      37.504 -23.338 -13.813  0.00  0.00    -0.222 NA
ATOM     12  C   UNL     1      36.003 -22.775 -16.361  0.00  0.00    +0.310 C 
ATOM     13  C   UNL     1      36.774 -24.198 -14.454  0.00  0.00    +0.167 C 
ATOM     14  C   UNL     1      37.668 -25.291 -12.534  0.00  0.00    +0.059 C 
ATOM     15  C   UNL     1      38.024 -23.968 -12.699  0.00  0.00    +0.108 C 
ATOM     16  H   UNL     1      34.792 -23.842 -17.618  0.00  0.00    +0.156 HD
ATOM     17  H   UNL     1      35.556 -24.737 -15.998  0.00  0.00    +0.158 HD
ENDBRANCH   4   9
BRANCH   1  18
ATOM     18  S   UNL     1      36.785 -19.387 -20.848  0.00  0.00    +0.063 S 
ATOM     19  O   UNL     1      37.465 -18.634 -19.817  0.00  0.00    -0.153 OA
ATOM     20  O   UNL     1      37.517 -20.262 -21.739  0.00  0.00    -0.153 OA
BRANCH  18  21
ATOM     21  N   UNL     1      35.827 -18.317 -21.781  0.00  0.00    -0.152 NA
ATOM     22  N   UNL     1      34.775 -16.391 -23.579  0.00  0.00    -0.290 N 
ATOM     23  C   UNL     1      36.072 -16.866 -21.543  0.00  0.00    +0.117 C 
ATOM     24  C   UNL     1      35.768 -18.616 -23.240  0.00  0.00    +0.117 C 
ATOM     25  C   UNL     1      34.938 -16.051 -22.159  0.00  0.00    +0.111 C 
ATOM     26  C   UNL     1      34.634 -17.821 -23.880  0.00  0.00    +0.111 C 
ATOM     27  N   UNL     1      33.233 -14.585 -23.896  0.00  0.00    -0.229 NA
ATOM     28  C   UNL     1      34.166 -15.445 -24.410  0.00  0.00    +0.132 C 
ATOM     29  C   UNL     1      34.534 -15.406 -25.761  0.00  0.00    +0.034 C 
ATOM     30  C   UNL     1      33.936 -14.471 -26.599  0.00  0.00    +0.004 C 
ATOM     31  C   UNL     1      32.675 -13.690 -24.741  0.00  0.00    +0.100 C 
ATOM     32  C   UNL     1      32.989 -13.593 -26.088  0.00  0.00    +0.021 C 
ENDBRANCH  18  21
ENDBRANCH   1  18
TORSDOF 3
ENDMDL
MODEL 5
REMARK VINA RESULT:      -9.1      5.218      8.891
REMARK  Name = 12087505
REMARK  3 active torsions:
REMARK  status: ('A' for Active; 'I' for Inactive)
REMARK    1  A    between atoms: C_1  and  S_18
REMARK    2  A    between atoms: C_4  and  N_9
REMARK    3  A    between atoms: S_18  and  N_21
REMARK                            x       y       z     vdW  Elec       q    Type
REMARK                         _______ _______ _______ _____ _____    ______ ____
ROOT
ATOM      1  C   UNL     1      32.526 -11.750 -21.719  0.00  0.00    +0.123 C 
ATOM      2  C   UNL     1      32.611 -13.086 -21.361  0.00  0.00    +0.035 C 
ATOM      3  C   UNL     1      33.125 -11.273 -22.873  0.00  0.00    +0.020 C 
ATOM      4  C   UNL     1      33.315 -13.969 -22.181  0.00  0.00    +0.053 C 
ATOM      5  C   UNL     1      33.828 -12.156 -23.693  0.00  0.00    +0.003 C 
ATOM      6  C   UNL     1      33.922 -13.504 -23.346  0.00  0.00    +0.015 C 
ENDROOT
BRANCH   4   9
ATOM      7  S   UNL     1      34.312 -19.949 -20.640  0.00  0.00    -0.051 S 
ATOM      8  O   UNL     1      35.719 -15.673 -21.716  0.00  0.00    -0.252 OA
ATOM      9  N   UNL     1      33.409 -15.317 -21.834  0.00  0.00    -0.268 N 
ATOM     10  N   UNL     1      34.207 -17.412 -21.290  0.00  0.00    -0.248 N 
ATOM     11  N   UNL     1      36.372 -18.430 -21.004  0.00  0.00    -0.222 NA
ATOM     12  C   UNL     1      34.572 -16.098 -21.621  0.00  0.00    +0.310 C 
ATOM     13  C   UNL     1      35.075 -18.470 -21.009  0.00  0.00    +0.167 C 
ATOM     14  C   UNL     1      35.867 -20.646 -20.443  0.00  0.00    +0.059 C 
ATOM     15  C   UNL     1      36.835 -19.690 -20.676  0.00  0.00    +0.108 C 
ATOM     16  H   UNL     1      32.552 -15.790 -21.725  0.00  0.00    +0.156 HD
ATOM     17  H   UNL     1      33.243 -17.608 -21.252  0.00  0.00    +0.158 HD
ENDBRANCH   4   9
BRANCH   1  18
ATOM     18  S   UNL     1      31.638 -10.632 -20.681  0.00  0.00    +0.063 S 
ATOM     19  O   UNL     1      30.229 -10.942 -20.799  0.00  0.00    -0.153 OA
ATOM     20  O   UNL     1      32.291 -10.608 -19.390  0.00  0.00    -0.153 OA
BRANCH  18  21
ATOM     21  N   UNL     1      31.955  -9.158 -21.493  0.00  0.00    -0.152 NA
ATOM     22  N   UNL     1      31.912  -6.575 -22.664  0.00  0.00    -0.290 N 
ATOM     23  C   UNL     1      31.130  -8.907 -22.709  0.00  0.00    +0.117 C 
ATOM     24  C   UNL     1      32.010  -7.948 -20.626  0.00  0.00    +0.117 C 
ATOM     25  C   UNL     1      31.742  -7.763 -23.512  0.00  0.00    +0.111 C 
ATOM     26  C   UNL     1      32.630  -6.789 -21.402  0.00  0.00    +0.111 C 
ATOM     27  N   UNL     1      32.490  -5.230 -24.562  0.00  0.00    -0.229 NA
ATOM     28  C   UNL     1      31.978  -5.328 -23.296  0.00  0.00    +0.132 C 
ATOM     29  C   UNL     1      31.513  -4.203 -22.604  0.00  0.00    +0.034 C 
ATOM     30  C   UNL     1      31.574  -2.957 -23.218  0.00  0.00    +0.004 C 
ATOM     31  C   UNL     1      32.531  -4.003 -25.127  0.00  0.00    +0.100 C 
ATOM     32  C   UNL     1      32.090  -2.846 -24.504  0.00  0.00    +0.021 C 
ENDBRANCH  18  21
ENDBRANCH   1  18
TORSDOF 3
ENDMDL
