MODEL 1
REMARK VINA RESULT:     -11.3      0.000      0.000
REMARK  Name = 16045418
REMARK  6 active torsions:
REMARK  status: ('A' for Active; 'I' for Inactive)
REMARK    1  A    between atoms: C_2  and  O_8
REMARK    2  A    between atoms: C_4  and  O_23
REMARK    3  A    between atoms: O_8  and  C_9
REMARK    4  A    between atoms: C_9  and  C_14
REMARK    5  A    between atoms: O_23  and  C_25
REMARK    6  A    between atoms: C_28  and  C_32
REMARK                            x       y       z     vdW  Elec       q    Type
REMARK                         _______ _______ _______ _____ _____    ______ ____
ROOT
ATOM      1 CL   UNL     1      31.943 -12.596 -20.005  0.00  0.00    -0.079 Cl
ATOM      2  C   UNL     1      34.589 -15.405 -22.336  0.00  0.00    +0.142 C 
ATOM      3  C   UNL     1      33.900 -14.399 -23.009  0.00  0.00    +0.075 C 
ATOM      4  C   UNL     1      33.080 -13.525 -22.295  0.00  0.00    +0.159 C 
ATOM      5  C   UNL     1      34.464 -15.545 -20.957  0.00  0.00    +0.038 C 
ATOM      6  C   UNL     1      32.951 -13.661 -20.913  0.00  0.00    +0.092 C 
ATOM      7  C   UNL     1      33.643 -14.671 -20.244  0.00  0.00    +0.018 C 
ENDROOT
BRANCH   2   8
ATOM      8  O   UNL     1      35.393 -16.262 -23.036  0.00  0.00    -0.469 OA
BRANCH   8   9
ATOM      9  C   UNL     1      34.986 -17.630 -23.075  0.00  0.00    +0.249 C 
BRANCH   9  14
ATOM     10  N   UNL     1      37.128 -18.261 -21.988  0.00  0.00    -0.227 N 
ATOM     11  N   UNL     1      37.704 -19.061 -21.066  0.00  0.00    -0.115 NA
ATOM     12  N   UNL     1      36.708 -20.729 -19.614  0.00  0.00    -0.335 NA
ATOM     13  N   UNL     1      35.363 -22.258 -18.375  0.00  0.00    -0.332 N 
ATOM     14  C   UNL     1      35.775 -18.421 -22.117  0.00  0.00    +0.097 C 
ATOM     15  C   UNL     1      35.452 -19.395 -21.212  0.00  0.00    +0.090 C 
ATOM     16  C   UNL     1      36.677 -19.767 -20.580  0.00  0.00    +0.105 C 
ATOM     17  C   UNL     1      34.183 -19.902 -20.978  0.00  0.00    +0.016 C 
ATOM     18  C   UNL     1      34.236 -20.885 -19.984  0.00  0.00    +0.049 C 
ATOM     19  C   UNL     1      35.461 -21.241 -19.367  0.00  0.00    +0.189 C 
ATOM     20  H   UNL     1      37.641 -17.614 -22.525  0.00  0.00    +0.175 HD
ATOM     21  H   UNL     1      36.171 -22.561 -17.900  0.00  0.00    +0.145 HD
ATOM     22  H   UNL     1      34.489 -22.658 -18.163  0.00  0.00    +0.145 HD
ENDBRANCH   9  14
ENDBRANCH   8   9
ENDBRANCH   2   8
BRANCH   4  23
ATOM     23  O   UNL     1      32.416 -12.548 -22.974  0.00  0.00    -0.452 OA
BRANCH  23  25
ATOM     24 CL   UNL     1      36.103  -9.981 -25.365  0.00  0.00    -0.082 Cl
ATOM     25  C   UNL     1      33.071 -11.344 -23.170  0.00  0.00    +0.147 C 
ATOM     26  C   UNL     1      32.655 -10.227 -22.467  0.00  0.00    +0.048 C 
ATOM     27  C   UNL     1      34.127 -11.287 -24.062  0.00  0.00    +0.049 C 
ATOM     28  C   UNL     1      33.316  -9.015 -22.663  0.00  0.00    +0.072 C 
ATOM     29  C   UNL     1      34.788 -10.075 -24.259  0.00  0.00    +0.061 C 
ATOM     30  C   UNL     1      34.382  -8.938 -23.559  0.00  0.00    +0.022 C 
BRANCH  28  32
ATOM     31  N   UNL     1      32.561  -6.902 -21.361  0.00  0.00    -0.191 NA
ATOM     32  C   UNL     1      32.900  -7.851 -21.946  0.00  0.00    +0.101 C 
ENDBRANCH  28  32
ENDBRANCH  23  25
ENDBRANCH   4  23
TORSDOF 6
ENDMDL
MODEL 2
REMARK VINA RESULT:     -11.1      2.383      3.970
REMARK  Name = 16045418
REMARK  6 active torsions:
REMARK  status: ('A' for Active; 'I' for Inactive)
REMARK    1  A    between atoms: C_2  and  O_8
REMARK    2  A    between atoms: C_4  and  O_23
REMARK    3  A    between atoms: O_8  and  C_9
REMARK    4  A    between atoms: C_9  and  C_14
REMARK    5  A    between atoms: O_23  and  C_25
REMARK    6  A    between atoms: C_28  and  C_32
REMARK                            x       y       z     vdW  Elec       q    Type
REMARK                         _______ _______ _______ _____ _____    ______ ____
ROOT
ATOM      1 CL   UNL     1      33.857 -15.212 -26.204  0.00  0.00    -0.079 Cl
ATOM      2  C   UNL     1      35.317 -17.356 -22.517  0.00  0.00    +0.142 C 
ATOM      3  C   UNL     1      35.106 -15.981 -22.469  0.00  0.00    +0.075 C 
ATOM      4  C   UNL     1      34.653 -15.310 -23.606  0.00  0.00    +0.159 C 
ATOM      5  C   UNL     1      35.080 -18.066 -23.691  0.00  0.00    +0.038 C 
ATOM      6  C   UNL     1      34.415 -16.016 -24.784  0.00  0.00    +0.092 C 
ATOM      7  C   UNL     1      34.628 -17.394 -24.827  0.00  0.00    +0.018 C 
ENDROOT
BRANCH   2   8
ATOM      8  O   UNL     1      35.760 -18.014 -21.403  0.00  0.00    -0.469 OA
BRANCH   8   9
ATOM      9  C   UNL     1      35.906 -19.431 -21.515  0.00  0.00    +0.249 C 
BRANCH   9  14
ATOM     10  N   UNL     1      33.512 -19.917 -21.066  0.00  0.00    -0.227 N 
ATOM     11  N   UNL     1      32.654 -20.612 -20.290  0.00  0.00    -0.115 NA
ATOM     12  N   UNL     1      33.100 -22.144 -18.463  0.00  0.00    -0.335 NA
ATOM     13  N   UNL     1      33.948 -23.564 -16.746  0.00  0.00    -0.332 N 
ATOM     14  C   UNL     1      34.834 -20.111 -20.769  0.00  0.00    +0.097 C 
ATOM     15  C   UNL     1      34.831 -20.996 -19.727  0.00  0.00    +0.090 C 
ATOM     16  C   UNL     1      33.458 -21.284 -19.458  0.00  0.00    +0.105 C 
ATOM     17  C   UNL     1      35.950 -21.497 -19.080  0.00  0.00    +0.016 C 
ATOM     18  C   UNL     1      35.562 -22.377 -18.064  0.00  0.00    +0.049 C 
ATOM     19  C   UNL     1      34.195 -22.651 -17.811  0.00  0.00    +0.189 C 
ATOM     20  H   UNL     1      33.210 -19.317 -21.787  0.00  0.00    +0.175 HD
ATOM     21  H   UNL     1      33.024 -23.805 -16.509  0.00  0.00    +0.145 HD
ATOM     22  H   UNL     1      34.703 -23.954 -16.247  0.00  0.00    +0.145 HD
ENDBRANCH   9  14
ENDBRANCH   8   9
ENDBRANCH   2   8
BRANCH   4  23
ATOM     23  O   UNL     1      34.453 -13.963 -23.535  0.00  0.00    -0.452 OA
BRANCH  23  25
ATOM     24 CL   UNL     1      31.870 -14.903 -19.253  0.00  0.00    -0.082 Cl
ATOM     25  C   UNL     1      33.600 -13.492 -22.551  0.00  0.00    +0.147 C 
ATOM     26  C   UNL     1      33.151 -12.185 -22.617  0.00  0.00    +0.048 C 
ATOM     27  C   UNL     1      33.217 -14.340 -21.527  0.00  0.00    +0.049 C 
ATOM     28  C   UNL     1      32.291 -11.711 -21.627  0.00  0.00    +0.072 C 
ATOM     29  C   UNL     1      32.358 -13.866 -20.537  0.00  0.00    +0.061 C 
ATOM     30  C   UNL     1      31.895 -12.551 -20.586  0.00  0.00    +0.022 C 
BRANCH  28  32
ATOM     31  N   UNL     1      31.434  -9.265 -21.719  0.00  0.00    -0.191 NA
ATOM     32  C   UNL     1      31.818 -10.363 -21.677  0.00  0.00    +0.101 C 
ENDBRANCH  28  32
ENDBRANCH  23  25
ENDBRANCH   4  23
TORSDOF 6
ENDMDL
MODEL 3
REMARK VINA RESULT:     -11.1      7.503     12.005
REMARK  Name = 16045418
REMARK  6 active torsions:
REMARK  status: ('A' for Active; 'I' for Inactive)
REMARK    1  A    between atoms: C_2  and  O_8
REMARK    2  A    between atoms: C_4  and  O_23
REMARK    3  A    between atoms: O_8  and  C_9
REMARK    4  A    between atoms: C_9  and  C_14
REMARK    5  A    between atoms: O_23  and  C_25
REMARK    6  A    between atoms: C_28  and  C_32
REMARK                            x       y       z     vdW  Elec       q    Type
REMARK                         _______ _______ _______ _____ _____    ______ ____
ROOT
ATOM      1 CL   UNL     1      31.451 -23.504 -12.209  0.00  0.00    -0.079 Cl
ATOM      2  C   UNL     1      32.241 -23.100 -16.629  0.00  0.00    +0.142 C 
ATOM      3  C   UNL     1      33.287 -23.442 -15.776  0.00  0.00    +0.075 C 
ATOM      4  C   UNL     1      33.051 -23.570 -14.407  0.00  0.00    +0.159 C 
ATOM      5  C   UNL     1      30.962 -22.884 -16.124  0.00  0.00    +0.038 C 
ATOM      6  C   UNL     1      31.771 -23.354 -13.896  0.00  0.00    +0.092 C 
ATOM      7  C   UNL     1      30.727 -23.011 -14.755  0.00  0.00    +0.018 C 
ENDROOT
BRANCH   2   8
ATOM      8  O   UNL     1      32.473 -22.974 -17.971  0.00  0.00    -0.469 OA
BRANCH   8   9
ATOM      9  C   UNL     1      33.824 -22.730 -18.364  0.00  0.00    +0.249 C 
BRANCH   9  14
ATOM     10  N   UNL     1      32.749 -21.037 -19.829  0.00  0.00    -0.227 N 
ATOM     11  N   UNL     1      32.972 -20.009 -20.676  0.00  0.00    -0.115 NA
ATOM     12  N   UNL     1      35.062 -19.018 -21.404  0.00  0.00    -0.335 NA
ATOM     13  N   UNL     1      37.299 -18.336 -21.867  0.00  0.00    -0.332 N 
ATOM     14  C   UNL     1      33.881 -21.599 -19.305  0.00  0.00    +0.097 C 
ATOM     15  C   UNL     1      34.911 -20.884 -19.852  0.00  0.00    +0.090 C 
ATOM     16  C   UNL     1      34.305 -19.905 -20.698  0.00  0.00    +0.105 C 
ATOM     17  C   UNL     1      36.262 -21.089 -19.617  0.00  0.00    +0.016 C 
ATOM     18  C   UNL     1      37.020 -20.169 -20.348  0.00  0.00    +0.049 C 
ATOM     19  C   UNL     1      36.402 -19.205 -21.182  0.00  0.00    +0.189 C 
ATOM     20  H   UNL     1      31.844 -21.355 -19.606  0.00  0.00    +0.175 HD
ATOM     21  H   UNL     1      36.947 -17.638 -22.466  0.00  0.00    +0.145 HD
ATOM     22  H   UNL     1      38.271 -18.432 -21.742  0.00  0.00    +0.145 HD
ENDBRANCH   9  14
ENDBRANCH   8   9
ENDBRANCH   2   8
BRANCH   4  23
ATOM     23  O   UNL     1      34.090 -23.907 -13.592  0.00  0.00    -0.452 OA
BRANCH  23  25
ATOM     24 CL   UNL     1      37.559 -21.217 -16.166  0.00  0.00    -0.082 Cl
ATOM     25  C   UNL     1      35.368 -23.840 -14.120  0.00  0.00    +0.147 C 
ATOM     26  C   UNL     1      36.221 -24.918 -13.963  0.00  0.00    +0.048 C 
ATOM     27  C   UNL     1      35.762 -22.697 -14.793  0.00  0.00    +0.049 C 
ATOM     28  C   UNL     1      37.508 -24.851 -14.496  0.00  0.00    +0.072 C 
ATOM     29  C   UNL     1      37.048 -22.629 -15.326  0.00  0.00    +0.061 C 
ATOM     30  C   UNL     1      37.922 -23.707 -15.177  0.00  0.00    +0.022 C 
BRANCH  28  32
ATOM     31  N   UNL     1      39.130 -26.855 -14.218  0.00  0.00    -0.191 NA
ATOM     32  C   UNL     1      38.402 -25.955 -14.342  0.00  0.00    +0.101 C 
ENDBRANCH  28  32
ENDBRANCH  23  25
ENDBRANCH   4  23
TORSDOF 6
ENDMDL
MODEL 4
REMARK VINA RESULT:     -10.9      8.260     11.631
REMARK  Name = 16045418
REMARK  6 active torsions:
REMARK  status: ('A' for Active; 'I' for Inactive)
REMARK    1  A    between atoms: C_2  and  O_8
REMARK    2  A    between atoms: C_4  and  O_23
REMARK    3  A    between atoms: O_8  and  C_9
REMARK    4  A    between atoms: C_9  and  C_14
REMARK    5  A    between atoms: O_23  and  C_25
REMARK    6  A    between atoms: C_28  and  C_32
REMARK                            x       y       z     vdW  Elec       q    Type
REMARK                         _______ _______ _______ _____ _____    ______ ____
ROOT
ATOM      1 CL   UNL     1      29.306 -22.421 -16.467  0.00  0.00    -0.079 Cl
ATOM      2  C   UNL     1      32.645 -24.006 -13.885  0.00  0.00    +0.142 C 
ATOM      3  C   UNL     1      32.866 -23.815 -15.247  0.00  0.00    +0.075 C 
ATOM      4  C   UNL     1      31.838 -23.324 -16.053  0.00  0.00    +0.159 C 
ATOM      5  C   UNL     1      31.406 -23.712 -13.324  0.00  0.00    +0.038 C 
ATOM      6  C   UNL     1      30.594 -23.028 -15.494  0.00  0.00    +0.092 C 
ATOM      7  C   UNL     1      30.379 -23.222 -14.130  0.00  0.00    +0.018 C 
ENDROOT
BRANCH   2   8
ATOM      8  O   UNL     1      33.653 -24.488 -13.096  0.00  0.00    -0.469 OA
BRANCH   8   9
ATOM      9  C   UNL     1      34.958 -23.957 -13.333  0.00  0.00    +0.249 C 
BRANCH   9  14
ATOM     10  N   UNL     1      35.388 -26.019 -14.647  0.00  0.00    -0.227 N 
ATOM     11  N   UNL     1      36.330 -26.906 -15.032  0.00  0.00    -0.115 NA
ATOM     12  N   UNL     1      38.699 -26.981 -14.518  0.00  0.00    -0.335 NA
ATOM     13  N   UNL     1      40.951 -26.700 -13.787  0.00  0.00    -0.332 N 
ATOM     14  C   UNL     1      35.848 -25.011 -13.845  0.00  0.00    +0.097 C 
ATOM     15  C   UNL     1      37.184 -25.263 -13.700  0.00  0.00    +0.090 C 
ATOM     16  C   UNL     1      37.446 -26.449 -14.452  0.00  0.00    +0.105 C 
ATOM     17  C   UNL     1      38.082 -24.505 -12.965  0.00  0.00    +0.016 C 
ATOM     18  C   UNL     1      39.361 -25.065 -13.046  0.00  0.00    +0.049 C 
ATOM     19  C   UNL     1      39.602 -26.242 -13.797  0.00  0.00    +0.189 C 
ATOM     20  H   UNL     1      34.445 -26.093 -14.922  0.00  0.00    +0.175 HD
ATOM     21  H   UNL     1      41.199 -27.512 -14.285  0.00  0.00    +0.145 HD
ATOM     22  H   UNL     1      41.636 -26.204 -13.282  0.00  0.00    +0.145 HD
ENDBRANCH   9  14
ENDBRANCH   8   9
ENDBRANCH   2   8
BRANCH   4  23
ATOM     23  O   UNL     1      32.077 -23.144 -17.382  0.00  0.00    -0.452 OA
BRANCH  23  25
ATOM     24 CL   UNL     1      37.036 -22.680 -16.339  0.00  0.00    -0.082 Cl
ATOM     25  C   UNL     1      33.311 -22.635 -17.749  0.00  0.00    +0.147 C 
ATOM     26  C   UNL     1      33.414 -21.882 -18.906  0.00  0.00    +0.048 C 
ATOM     27  C   UNL     1      34.411 -22.889 -16.949  0.00  0.00    +0.049 C 
ATOM     28  C   UNL     1      34.656 -21.368 -19.274  0.00  0.00    +0.072 C 
ATOM     29  C   UNL     1      35.654 -22.375 -17.318  0.00  0.00    +0.061 C 
ATOM     30  C   UNL     1      35.777 -21.615 -18.481  0.00  0.00    +0.022 C 
BRANCH  28  32
ATOM     31  N   UNL     1      34.883 -19.956 -21.438  0.00  0.00    -0.191 NA
ATOM     32  C   UNL     1      34.782 -20.590 -20.466  0.00  0.00    +0.101 C 
ENDBRANCH  28  32
ENDBRANCH  23  25
ENDBRANCH   4  23
TORSDOF 6
ENDMDL
MODEL 5
REMARK VINA RESULT:     -10.9      2.788      5.062
REMARK  Name = 16045418
REMARK  6 active torsions:
REMARK  status: ('A' for Active; 'I' for Inactive)
REMARK    1  A    between atoms: C_2  and  O_8
REMARK    2  A    between atoms: C_4  and  O_23
REMARK    3  A    between atoms: O_8  and  C_9
REMARK    4  A    between atoms: C_9  and  C_14
REMARK    5  A    between atoms: O_23  and  C_25
REMARK    6  A    between atoms: C_28  and  C_32
REMARK                            x       y       z     vdW  Elec       q    Type
REMARK                         _______ _______ _______ _____ _____    ______ ____
ROOT
ATOM      1 CL   UNL     1      34.672 -16.959 -25.295  0.00  0.00    -0.079 Cl
ATOM      2  C   UNL     1      35.336 -19.077 -21.371  0.00  0.00    +0.142 C 
ATOM      3  C   UNL     1      35.556 -17.705 -21.453  0.00  0.00    +0.075 C 
ATOM      4  C   UNL     1      35.352 -17.041 -22.663  0.00  0.00    +0.159 C 
ATOM      5  C   UNL     1      34.916 -19.791 -22.489  0.00  0.00    +0.038 C 
ATOM      6  C   UNL     1      34.931 -17.753 -23.786  0.00  0.00    +0.092 C 
ATOM      7  C   UNL     1      34.713 -19.128 -23.699  0.00  0.00    +0.018 C 
ENDROOT
BRANCH   2   8
ATOM      8  O   UNL     1      35.536 -19.727 -20.184  0.00  0.00    -0.469 OA
BRANCH   8   9
ATOM      9  C   UNL     1      35.704 -21.144 -20.254  0.00  0.00    +0.249 C 
BRANCH   9  14
ATOM     10  N   UNL     1      33.628 -22.148 -19.334  0.00  0.00    -0.227 N 
ATOM     11  N   UNL     1      33.072 -22.739 -18.254  0.00  0.00    -0.115 NA
ATOM     12  N   UNL     1      34.045 -23.269 -16.097  0.00  0.00    -0.335 NA
ATOM     13  N   UNL     1      35.357 -23.616 -14.137  0.00  0.00    -0.332 N 
ATOM     14  C   UNL     1      34.941 -21.798 -19.179  0.00  0.00    +0.097 C 
ATOM     15  C   UNL     1      35.259 -22.191 -17.908  0.00  0.00    +0.090 C 
ATOM     16  C   UNL     1      34.071 -22.771 -17.366  0.00  0.00    +0.105 C 
ATOM     17  C   UNL     1      36.493 -22.043 -17.293  0.00  0.00    +0.016 C 
ATOM     18  C   UNL     1      36.446 -22.560 -15.994  0.00  0.00    +0.049 C 
ATOM     19  C   UNL     1      35.259 -23.132 -15.473  0.00  0.00    +0.189 C 
ATOM     20  H   UNL     1      33.127 -21.983 -20.166  0.00  0.00    +0.175 HD
ATOM     21  H   UNL     1      34.575 -24.028 -13.704  0.00  0.00    +0.145 HD
ATOM     22  H   UNL     1      36.208 -23.539 -13.647  0.00  0.00    +0.145 HD
ENDBRANCH   9  14
ENDBRANCH   8   9
ENDBRANCH   2   8
BRANCH   4  23
ATOM     23  O   UNL     1      35.572 -15.697 -22.719  0.00  0.00    -0.452 OA
BRANCH  23  25
ATOM     24 CL   UNL     1      31.818 -14.988 -19.357  0.00  0.00    -0.082 Cl
ATOM     25  C   UNL     1      34.585 -14.864 -22.220  0.00  0.00    +0.147 C 
ATOM     26  C   UNL     1      34.408 -13.614 -22.785  0.00  0.00    +0.048 C 
ATOM     27  C   UNL     1      33.800 -15.302 -21.168  0.00  0.00    +0.049 C 
ATOM     28  C   UNL     1      33.414 -12.775 -22.283  0.00  0.00    +0.072 C 
ATOM     29  C   UNL     1      32.806 -14.464 -20.666  0.00  0.00    +0.061 C 
ATOM     30  C   UNL     1      32.613 -13.200 -21.223  0.00  0.00    +0.022 C 
BRANCH  28  32
ATOM     31  N   UNL     1      33.056 -10.425 -23.320  0.00  0.00    -0.191 NA
ATOM     32  C   UNL     1      33.217 -11.480 -22.853  0.00  0.00    +0.101 C 
ENDBRANCH  28  32
ENDBRANCH  23  25
ENDBRANCH   4  23
TORSDOF 6
ENDMDL
MODEL 6
REMARK VINA RESULT:     -10.8      7.388     11.999
REMARK  Name = 16045418
REMARK  6 active torsions:
REMARK  status: ('A' for Active; 'I' for Inactive)
REMARK    1  A    between atoms: C_2  and  O_8
REMARK    2  A    between atoms: C_4  and  O_23
REMARK    3  A    between atoms: O_8  and  C_9
REMARK    4  A    between atoms: C_9  and  C_14
REMARK    5  A    between atoms: O_23  and  C_25
REMARK    6  A    between atoms: C_28  and  C_32
REMARK                            x       y       z     vdW  Elec       q    Type
REMARK                         _______ _______ _______ _____ _____    ______ ____
ROOT
ATOM      1 CL   UNL     1      30.861 -24.968 -13.076  0.00  0.00    -0.079 Cl
ATOM      2  C   UNL     1      32.198 -22.720 -16.748  0.00  0.00    +0.142 C 
ATOM      3  C   UNL     1      33.120 -23.489 -16.044  0.00  0.00    +0.075 C 
ATOM      4  C   UNL     1      32.715 -24.188 -14.907  0.00  0.00    +0.159 C 
ATOM      5  C   UNL     1      30.874 -22.644 -16.325  0.00  0.00    +0.038 C 
ATOM      6  C   UNL     1      31.389 -24.115 -14.479  0.00  0.00    +0.092 C 
ATOM      7  C   UNL     1      30.470 -23.343 -15.187  0.00  0.00    +0.018 C 
ENDROOT
BRANCH   2   8
ATOM      8  O   UNL     1      32.596 -22.034 -17.862  0.00  0.00    -0.469 OA
BRANCH   8   9
ATOM      9  C   UNL     1      33.451 -22.732 -18.769  0.00  0.00    +0.249 C 
BRANCH   9  14
ATOM     10  N   UNL     1      35.829 -22.140 -18.366  0.00  0.00    -0.227 N 
ATOM     11  N   UNL     1      36.841 -21.327 -18.735  0.00  0.00    -0.115 NA
ATOM     12  N   UNL     1      36.895 -19.568 -20.404  0.00  0.00    -0.335 NA
ATOM     13  N   UNL     1      36.540 -17.942 -22.111  0.00  0.00    -0.332 N 
ATOM     14  C   UNL     1      34.658 -21.934 -19.043  0.00  0.00    +0.097 C 
ATOM     15  C   UNL     1      34.932 -20.915 -19.912  0.00  0.00    +0.090 C 
ATOM     16  C   UNL     1      36.298 -20.564 -19.690  0.00  0.00    +0.105 C 
ATOM     17  C   UNL     1      34.043 -20.353 -20.816  0.00  0.00    +0.016 C 
ATOM     18  C   UNL     1      34.674 -19.334 -21.537  0.00  0.00    +0.049 C 
ATOM     19  C   UNL     1      36.031 -19.000 -21.304  0.00  0.00    +0.189 C 
ATOM     20  H   UNL     1      35.927 -22.826 -17.666  0.00  0.00    +0.175 HD
ATOM     21  H   UNL     1      37.474 -17.651 -22.009  0.00  0.00    +0.145 HD
ATOM     22  H   UNL     1      35.956 -17.502 -22.772  0.00  0.00    +0.145 HD
ENDBRANCH   9  14
ENDBRANCH   8   9
ENDBRANCH   2   8
BRANCH   4  23
ATOM     23  O   UNL     1      33.635 -24.935 -14.234  0.00  0.00    -0.452 OA
BRANCH  23  25
ATOM     24 CL   UNL     1      38.022 -22.933 -15.861  0.00  0.00    -0.082 Cl
ATOM     25  C   UNL     1      34.841 -24.334 -13.915  0.00  0.00    +0.147 C 
ATOM     26  C   UNL     1      35.146 -24.099 -12.586  0.00  0.00    +0.048 C 
ATOM     27  C   UNL     1      35.710 -23.983 -14.932  0.00  0.00    +0.049 C 
ATOM     28  C   UNL     1      36.361 -23.494 -12.265  0.00  0.00    +0.072 C 
ATOM     29  C   UNL     1      36.925 -23.379 -14.611  0.00  0.00    +0.061 C 
ATOM     30  C   UNL     1      37.250 -23.133 -13.277  0.00  0.00    +0.022 C 
BRANCH  28  32
ATOM     31  N   UNL     1      36.964 -23.039  -9.783  0.00  0.00    -0.191 NA
ATOM     32  C   UNL     1      36.694 -23.243 -10.898  0.00  0.00    +0.101 C 
ENDBRANCH  28  32
ENDBRANCH  23  25
ENDBRANCH   4  23
TORSDOF 6
ENDMDL
MODEL 7
REMARK VINA RESULT:     -10.7      7.968     11.707
REMARK  Name = 16045418
REMARK  6 active torsions:
REMARK  status: ('A' for Active; 'I' for Inactive)
REMARK    1  A    between atoms: C_2  and  O_8
REMARK    2  A    between atoms: C_4  and  O_23
REMARK    3  A    between atoms: O_8  and  C_9
REMARK    4  A    between atoms: C_9  and  C_14
REMARK    5  A    between atoms: O_23  and  C_25
REMARK    6  A    between atoms: C_28  and  C_32
REMARK                            x       y       z     vdW  Elec       q    Type
REMARK                         _______ _______ _______ _____ _____    ______ ____
ROOT
ATOM      1 CL   UNL     1      31.325 -23.476 -12.196  0.00  0.00    -0.079 Cl
ATOM      2  C   UNL     1      32.270 -23.171 -16.593  0.00  0.00    +0.142 C 
ATOM      3  C   UNL     1      33.286 -23.492 -15.697  0.00  0.00    +0.075 C 
ATOM      4  C   UNL     1      33.002 -23.589 -14.334  0.00  0.00    +0.159 C 
ATOM      5  C   UNL     1      30.974 -22.945 -16.139  0.00  0.00    +0.038 C 
ATOM      6  C   UNL     1      31.705 -23.364 -13.874  0.00  0.00    +0.092 C 
ATOM      7  C   UNL     1      30.691 -23.042 -14.777  0.00  0.00    +0.018 C 
ENDROOT
BRANCH   2   8
ATOM      8  O   UNL     1      32.548 -23.076 -17.929  0.00  0.00    -0.469 OA
BRANCH   8   9
ATOM      9  C   UNL     1      33.882 -22.698 -18.277  0.00  0.00    +0.249 C 
BRANCH   9  14
ATOM     10  N   UNL     1      32.685 -21.044 -19.690  0.00  0.00    -0.227 N 
ATOM     11  N   UNL     1      32.834 -20.030 -20.569  0.00  0.00    -0.115 NA
ATOM     12  N   UNL     1      34.855 -19.030 -21.462  0.00  0.00    -0.335 NA
ATOM     13  N   UNL     1      37.045 -18.332 -22.096  0.00  0.00    -0.332 N 
ATOM     14  C   UNL     1      33.858 -21.585 -19.239  0.00  0.00    +0.097 C 
ATOM     15  C   UNL     1      34.837 -20.868 -19.871  0.00  0.00    +0.090 C 
ATOM     16  C   UNL     1      34.161 -19.912 -20.688  0.00  0.00    +0.105 C 
ATOM     17  C   UNL     1      36.204 -21.055 -19.729  0.00  0.00    +0.016 C 
ATOM     18  C   UNL     1      36.897 -20.140 -20.529  0.00  0.00    +0.049 C 
ATOM     19  C   UNL     1      36.210 -19.199 -21.333  0.00  0.00    +0.189 C 
ATOM     20  H   UNL     1      31.802 -21.368 -19.398  0.00  0.00    +0.175 HD
ATOM     21  H   UNL     1      36.642 -17.650 -22.681  0.00  0.00    +0.145 HD
ATOM     22  H   UNL     1      38.024 -18.416 -22.039  0.00  0.00    +0.145 HD
ENDBRANCH   9  14
ENDBRANCH   8   9
ENDBRANCH   2   8
BRANCH   4  23
ATOM     23  O   UNL     1      34.012 -23.906 -13.476  0.00  0.00    -0.452 OA
BRANCH  23  25
ATOM     24 CL   UNL     1      38.603 -26.080 -13.778  0.00  0.00    -0.082 Cl
ATOM     25  C   UNL     1      35.307 -23.850 -13.960  0.00  0.00    +0.147 C 
ATOM     26  C   UNL     1      35.691 -22.770 -14.736  0.00  0.00    +0.048 C 
ATOM     27  C   UNL     1      36.187 -24.874 -13.656  0.00  0.00    +0.049 C 
ATOM     28  C   UNL     1      36.997 -22.713 -15.224  0.00  0.00    +0.072 C 
ATOM     29  C   UNL     1      37.492 -24.817 -14.143  0.00  0.00    +0.061 C 
ATOM     30  C   UNL     1      37.897 -23.736 -14.928  0.00  0.00    +0.022 C 
BRANCH  28  32
ATOM     31  N   UNL     1      37.749 -20.705 -16.682  0.00  0.00    -0.191 NA
ATOM     32  C   UNL     1      37.411 -21.607 -16.028  0.00  0.00    +0.101 C 
ENDBRANCH  28  32
ENDBRANCH  23  25
ENDBRANCH   4  23
TORSDOF 6
ENDMDL
MODEL 8
REMARK VINA RESULT:     -10.6      2.044      3.289
REMARK  Name = 16045418
REMARK  6 active torsions:
REMARK  status: ('A' for Active; 'I' for Inactive)
REMARK    1  A    between atoms: C_2  and  O_8
REMARK    2  A    between atoms: C_4  and  O_23
REMARK    3  A    between atoms: O_8  and  C_9
REMARK    4  A    between atoms: C_9  and  C_14
REMARK    5  A    between atoms: O_23  and  C_25
REMARK    6  A    between atoms: C_28  and  C_32
REMARK                            x       y       z     vdW  Elec       q    Type
REMARK                         _______ _______ _______ _____ _____    ______ ____
ROOT
ATOM      1 CL   UNL     1      31.157 -10.747 -18.751  0.00  0.00    -0.079 Cl
ATOM      2  C   UNL     1      32.570 -13.019 -22.380  0.00  0.00    +0.142 C 
ATOM      3  C   UNL     1      32.045 -11.739 -22.537  0.00  0.00    +0.075 C 
ATOM      4  C   UNL     1      31.606 -11.028 -21.419  0.00  0.00    +0.159 C 
ATOM      5  C   UNL     1      32.659 -13.594 -21.116  0.00  0.00    +0.038 C 
ATOM      6  C   UNL     1      31.693 -11.601 -20.150  0.00  0.00    +0.092 C 
ATOM      7  C   UNL     1      32.219 -12.884 -19.999  0.00  0.00    +0.018 C 
ENDROOT
BRANCH   2   8
ATOM      8  O   UNL     1      33.000 -13.715 -23.476  0.00  0.00    -0.469 OA
BRANCH   8   9
ATOM      9  C   UNL     1      34.398 -14.003 -23.539  0.00  0.00    +0.249 C 
BRANCH   9  14
ATOM     10  N   UNL     1      34.610 -16.011 -24.986  0.00  0.00    -0.227 N 
ATOM     11  N   UNL     1      34.816 -17.344 -24.999  0.00  0.00    -0.115 NA
ATOM     12  N   UNL     1      35.184 -18.880 -23.158  0.00  0.00    -0.335 NA
ATOM     13  N   UNL     1      35.507 -20.044 -21.103  0.00  0.00    -0.332 N 
ATOM     14  C   UNL     1      34.609 -15.446 -23.739  0.00  0.00    +0.097 C 
ATOM     15  C   UNL     1      34.832 -16.490 -22.885  0.00  0.00    +0.090 C 
ATOM     16  C   UNL     1      34.955 -17.653 -23.705  0.00  0.00    +0.105 C 
ATOM     17  C   UNL     1      34.915 -16.409 -21.503  0.00  0.00    +0.016 C 
ATOM     18  C   UNL     1      35.150 -17.677 -20.962  0.00  0.00    +0.049 C 
ATOM     19  C   UNL     1      35.270 -18.819 -21.791  0.00  0.00    +0.189 C 
ATOM     20  H   UNL     1      34.471 -15.486 -25.808  0.00  0.00    +0.175 HD
ATOM     21  H   UNL     1      35.602 -20.882 -21.609  0.00  0.00    +0.145 HD
ATOM     22  H   UNL     1      35.576 -20.051 -20.120  0.00  0.00    +0.145 HD
ENDBRANCH   9  14
ENDBRANCH   8   9
ENDBRANCH   2   8
BRANCH   4  23
ATOM     23  O   UNL     1      31.097  -9.777 -21.597  0.00  0.00    -0.452 OA
BRANCH  23  25
ATOM     24 CL   UNL     1      35.509  -8.708 -23.896  0.00  0.00    -0.082 Cl
ATOM     25  C   UNL     1      31.923  -8.822 -22.165  0.00  0.00    +0.147 C 
ATOM     26  C   UNL     1      31.505  -7.504 -22.203  0.00  0.00    +0.048 C 
ATOM     27  C   UNL     1      33.148  -9.209 -22.679  0.00  0.00    +0.049 C 
ATOM     28  C   UNL     1      32.338  -6.542 -22.774  0.00  0.00    +0.072 C 
ATOM     29  C   UNL     1      33.981  -8.248 -23.250  0.00  0.00    +0.061 C 
ATOM     30  C   UNL     1      33.576  -6.914 -23.298  0.00  0.00    +0.022 C 
BRANCH  28  32
ATOM     31  N   UNL     1      31.581  -4.063 -22.865  0.00  0.00    -0.191 NA
ATOM     32  C   UNL     1      31.922  -5.176 -22.824  0.00  0.00    +0.101 C 
ENDBRANCH  28  32
ENDBRANCH  23  25
ENDBRANCH   4  23
TORSDOF 6
ENDMDL
MODEL 9
REMARK VINA RESULT:     -10.5      4.359      6.804
REMARK  Name = 16045418
REMARK  6 active torsions:
REMARK  status: ('A' for Active; 'I' for Inactive)
REMARK    1  A    between atoms: C_2  and  O_8
REMARK    2  A    between atoms: C_4  and  O_23
REMARK    3  A    between atoms: O_8  and  C_9
REMARK    4  A    between atoms: C_9  and  C_14
REMARK    5  A    between atoms: O_23  and  C_25
REMARK    6  A    between atoms: C_28  and  C_32
REMARK                            x       y       z     vdW  Elec       q    Type
REMARK                         _______ _______ _______ _____ _____    ______ ____
ROOT
ATOM      1 CL   UNL     1      38.179 -18.568 -21.855  0.00  0.00    -0.079 Cl
ATOM      2  C   UNL     1      34.645 -20.724 -20.068  0.00  0.00    +0.142 C 
ATOM      3  C   UNL     1      34.488 -20.028 -21.264  0.00  0.00    +0.075 C 
ATOM      4  C   UNL     1      35.576 -19.358 -21.824  0.00  0.00    +0.159 C 
ATOM      5  C   UNL     1      35.880 -20.755 -19.428  0.00  0.00    +0.038 C 
ATOM      6  C   UNL     1      36.816 -19.387 -21.186  0.00  0.00    +0.092 C 
ATOM      7  C   UNL     1      36.968 -20.085 -19.988  0.00  0.00    +0.018 C 
ENDROOT
BRANCH   2   8
ATOM      8  O   UNL     1      33.577 -21.379 -19.519  0.00  0.00    -0.469 OA
BRANCH   8   9
ATOM      9  C   UNL     1      33.826 -22.693 -19.017  0.00  0.00    +0.249 C 
BRANCH   9  14
ATOM     10  N   UNL     1      31.908 -22.696 -17.440  0.00  0.00    -0.227 N 
ATOM     11  N   UNL     1      31.538 -22.860 -16.152  0.00  0.00    -0.115 NA
ATOM     12  N   UNL     1      32.885 -23.364 -14.199  0.00  0.00    -0.335 NA
ATOM     13  N   UNL     1      34.537 -23.858 -12.552  0.00  0.00    -0.332 N 
ATOM     14  C   UNL     1      33.249 -22.838 -17.670  0.00  0.00    +0.097 C 
ATOM     15  C   UNL     1      33.786 -23.115 -16.443  0.00  0.00    +0.090 C 
ATOM     16  C   UNL     1      32.692 -23.119 -15.526  0.00  0.00    +0.105 C 
ATOM     17  C   UNL     1      35.127 -23.339 -16.172  0.00  0.00    +0.016 C 
ATOM     18  C   UNL     1      35.304 -23.590 -14.808  0.00  0.00    +0.049 C 
ATOM     19  C   UNL     1      34.207 -23.590 -13.912  0.00  0.00    +0.189 C 
ATOM     20  H   UNL     1      31.263 -22.491 -18.156  0.00  0.00    +0.175 HD
ATOM     21  H   UNL     1      33.829 -23.876 -11.868  0.00  0.00    +0.145 HD
ATOM     22  H   UNL     1      35.473 -24.025 -12.296  0.00  0.00    +0.145 HD
ENDBRANCH   9  14
ENDBRANCH   8   9
ENDBRANCH   2   8
BRANCH   4  23
ATOM     23  O   UNL     1      35.399 -18.685 -22.995  0.00  0.00    -0.452 OA
BRANCH  23  25
ATOM     24 CL   UNL     1      34.387 -14.626 -20.098  0.00  0.00    -0.082 Cl
ATOM     25  C   UNL     1      34.949 -17.378 -22.922  0.00  0.00    +0.147 C 
ATOM     26  C   UNL     1      34.553 -16.735 -24.082  0.00  0.00    +0.048 C 
ATOM     27  C   UNL     1      34.904 -16.747 -21.692  0.00  0.00    +0.049 C 
ATOM     28  C   UNL     1      34.098 -15.419 -24.008  0.00  0.00    +0.072 C 
ATOM     29  C   UNL     1      34.450 -15.430 -21.618  0.00  0.00    +0.061 C 
ATOM     30  C   UNL     1      34.047 -14.766 -22.777  0.00  0.00    +0.022 C 
BRANCH  28  32
ATOM     31  N   UNL     1      33.351 -14.185 -26.164  0.00  0.00    -0.191 NA
ATOM     32  C   UNL     1      33.686 -14.738 -25.196  0.00  0.00    +0.101 C 
ENDBRANCH  28  32
ENDBRANCH  23  25
ENDBRANCH   4  23
TORSDOF 6
ENDMDL
