MODEL 1
REMARK VINA RESULT:     -12.3      0.000      0.000
REMARK  Name = 11677589
REMARK  7 active torsions:
REMARK  status: ('A' for Active; 'I' for Inactive)
REMARK    1  A    between atoms: C_1  and  N_7
REMARK    2  A    between atoms: C_2  and  C_20
REMARK    3  A    between atoms: C_11  and  C_18
REMARK    4  A    between atoms: C_20  and  C_21
REMARK    5  A    between atoms: C_21  and  N_23
REMARK    6  A    between atoms: N_24  and  S_28
REMARK    7  A    between atoms: S_28  and  C_31
REMARK                            x       y       z     vdW  Elec       q    Type
REMARK                         _______ _______ _______ _____ _____    ______ ____
ROOT
ATOM      1  C   UNL     1      34.667 -21.741 -18.432  0.00  0.00    +0.058 C 
ATOM      2  C   UNL     1      34.729 -20.394 -20.860  0.00  0.00    -0.020 C 
ATOM      3  C   UNL     1      35.888 -21.479 -19.040  0.00  0.00    +0.015 C 
ATOM      4  C   UNL     1      33.476 -21.339 -19.022  0.00  0.00    +0.015 C 
ATOM      5  C   UNL     1      35.919 -20.803 -20.259  0.00  0.00    -0.003 C 
ATOM      6  C   UNL     1      33.507 -20.662 -20.242  0.00  0.00    -0.003 C 
ENDROOT
BRANCH   1   7
ATOM      7  N   UNL     1      34.635 -22.418 -17.212  0.00  0.00    -0.242 N 
ATOM      8  N   UNL     1      35.366 -23.388 -15.350  0.00  0.00    -0.387 NA
ATOM      9  N   UNL     1      31.756 -24.005 -14.799  0.00  0.00    -0.408 NA
ATOM     10  C   UNL     1      33.512 -22.871 -16.570  0.00  0.00    +0.091 C 
ATOM     11  C   UNL     1      35.717 -22.751 -16.445  0.00  0.00    +0.168 C 
ATOM     12  C   UNL     1      33.996 -23.472 -15.411  0.00  0.00    +0.172 C 
ATOM     13  C   UNL     1      32.162 -22.812 -16.888  0.00  0.00    +0.045 C 
ATOM     14  C   UNL     1      33.083 -24.042 -14.524  0.00  0.00    +0.140 C 
ATOM     15  C   UNL     1      31.339 -23.407 -15.942  0.00  0.00    +0.110 C 
ATOM     16  C   UNL     1      33.489 -24.711 -13.254  0.00  0.00    +0.069 C 
ATOM     17  C   UNL     1      29.864 -23.403 -16.178  0.00  0.00    +0.066 C 
BRANCH  11  18
ATOM     18  C   UNL     1      37.104 -22.416 -16.834  0.00  0.00    +0.075 C 
ATOM     19  C   UNL     1      38.128 -22.803 -15.762  0.00  0.00    +0.009 C 
ENDBRANCH  11  18
ENDBRANCH   1   7
BRANCH   2  20
ATOM     20  C   UNL     1      34.761 -19.671 -22.164  0.00  0.00    +0.048 C 
BRANCH  20  21
ATOM     21  C   UNL     1      35.811 -18.555 -22.219  0.00  0.00    +0.096 C 
BRANCH  21  23
ATOM     22  O   UNL     1      34.888 -16.602 -24.113  0.00  0.00    -0.251 OA
ATOM     23  N   UNL     1      35.251 -17.263 -21.926  0.00  0.00    -0.287 N 
ATOM     24  N   UNL     1      34.314 -15.158 -22.367  0.00  0.00    -0.169 N 
ATOM     25  C   UNL     1      34.829 -16.380 -22.907  0.00  0.00    +0.319 C 
ATOM     26  H   UNL     1      35.163 -16.993 -20.984  0.00  0.00    +0.151 HD
ATOM     27  H   UNL     1      34.308 -15.064 -21.387  0.00  0.00    +0.178 HD
BRANCH  24  28
ATOM     28  S   UNL     1      33.709 -13.850 -23.285  0.00  0.00    +0.077 S 
ATOM     29  O   UNL     1      34.815 -13.029 -23.740  0.00  0.00    -0.150 OA
ATOM     30  O   UNL     1      32.721 -14.341 -24.228  0.00  0.00    -0.150 OA
BRANCH  28  31
ATOM     31  C   UNL     1      32.827 -12.947 -22.047  0.00  0.00    +0.125 C 
ATOM     32  C   UNL     1      32.417 -11.653 -22.317  0.00  0.00    +0.020 C 
ATOM     33  C   UNL     1      32.563 -13.551 -20.830  0.00  0.00    +0.020 C 
ATOM     34  C   UNL     1      31.446 -11.534 -20.108  0.00  0.00    -0.022 C 
ATOM     35  C   UNL     1      31.721 -10.941 -21.340  0.00  0.00    -0.003 C 
ATOM     36  C   UNL     1      31.867 -12.839 -19.853  0.00  0.00    -0.003 C 
ATOM     37  C   UNL     1      30.701 -10.774 -19.064  0.00  0.00    +0.031 C 
ENDBRANCH  28  31
ENDBRANCH  24  28
ENDBRANCH  21  23
ENDBRANCH  20  21
ENDBRANCH   2  20
TORSDOF 7
ENDMDL
MODEL 2
REMARK VINA RESULT:     -12.3      1.439      2.206
REMARK  Name = 11677589
REMARK  7 active torsions:
REMARK  status: ('A' for Active; 'I' for Inactive)
REMARK    1  A    between atoms: C_1  and  N_7
REMARK    2  A    between atoms: C_2  and  C_20
REMARK    3  A    between atoms: C_11  and  C_18
REMARK    4  A    between atoms: C_20  and  C_21
REMARK    5  A    between atoms: C_21  and  N_23
REMARK    6  A    between atoms: N_24  and  S_28
REMARK    7  A    between atoms: S_28  and  C_31
REMARK                            x       y       z     vdW  Elec       q    Type
REMARK                         _______ _______ _______ _____ _____    ______ ____
ROOT
ATOM      1  C   UNL     1      34.534 -22.743 -17.004  0.00  0.00    +0.058 C 
ATOM      2  C   UNL     1      35.710 -21.391 -19.125  0.00  0.00    -0.020 C 
ATOM      3  C   UNL     1      33.782 -22.459 -18.136  0.00  0.00    +0.015 C 
ATOM      4  C   UNL     1      35.866 -22.361 -16.918  0.00  0.00    +0.015 C 
ATOM      5  C   UNL     1      34.373 -21.779 -19.202  0.00  0.00    -0.003 C 
ATOM      6  C   UNL     1      36.457 -21.682 -17.983  0.00  0.00    -0.003 C 
ENDROOT
BRANCH   1   7
ATOM      7  N   UNL     1      33.943 -23.423 -15.937  0.00  0.00    -0.242 N 
ATOM      8  N   UNL     1      33.764 -24.694 -14.123  0.00  0.00    -0.387 NA
ATOM      9  N   UNL     1      30.159 -23.933 -14.503  0.00  0.00    -0.408 NA
ATOM     10  C   UNL     1      32.605 -23.452 -15.641  0.00  0.00    +0.091 C 
ATOM     11  C   UNL     1      34.594 -24.179 -15.002  0.00  0.00    +0.168 C 
ATOM     12  C   UNL     1      32.520 -24.252 -14.505  0.00  0.00    +0.172 C 
ATOM     13  C   UNL     1      31.499 -22.871 -16.245  0.00  0.00    +0.045 C 
ATOM     14  C   UNL     1      31.265 -24.482 -13.943  0.00  0.00    +0.140 C 
ATOM     15  C   UNL     1      30.299 -23.161 -15.610  0.00  0.00    +0.110 C 
ATOM     16  C   UNL     1      31.057 -25.322 -12.728  0.00  0.00    +0.069 C 
ATOM     17  C   UNL     1      29.039 -22.589 -16.172  0.00  0.00    +0.066 C 
BRANCH  11  18
ATOM     18  C   UNL     1      36.060 -24.372 -15.012  0.00  0.00    +0.075 C 
ATOM     19  C   UNL     1      36.470 -25.801 -14.643  0.00  0.00    +0.009 C 
ENDBRANCH  11  18
ENDBRANCH   1   7
BRANCH   2  20
ATOM     20  C   UNL     1      36.342 -20.664 -20.264  0.00  0.00    +0.048 C 
BRANCH  20  21
ATOM     21  C   UNL     1      35.348 -20.261 -21.360  0.00  0.00    +0.096 C 
BRANCH  21  23
ATOM     22  O   UNL     1      35.252 -18.355 -23.507  0.00  0.00    -0.251 OA
ATOM     23  N   UNL     1      34.970 -18.876 -21.271  0.00  0.00    -0.287 N 
ATOM     24  N   UNL     1      34.548 -16.694 -22.022  0.00  0.00    -0.169 N 
ATOM     25  C   UNL     1      34.952 -18.024 -22.364  0.00  0.00    +0.319 C 
ATOM     26  H   UNL     1      34.713 -18.515 -20.392  0.00  0.00    +0.151 HD
ATOM     27  H   UNL     1      34.329 -16.517 -21.079  0.00  0.00    +0.178 HD
BRANCH  24  28
ATOM     28  S   UNL     1      34.414 -15.389 -23.118  0.00  0.00    +0.077 S 
ATOM     29  O   UNL     1      35.724 -14.805 -23.332  0.00  0.00    -0.150 OA
ATOM     30  O   UNL     1      33.596 -15.793 -24.247  0.00  0.00    -0.150 OA
BRANCH  28  31
ATOM     31  C   UNL     1      33.450 -14.250 -22.172  0.00  0.00    +0.125 C 
ATOM     32  C   UNL     1      33.071 -14.590 -20.884  0.00  0.00    +0.020 C 
ATOM     33  C   UNL     1      33.091 -13.038 -22.735  0.00  0.00    +0.020 C 
ATOM     34  C   UNL     1      31.941 -12.465 -20.689  0.00  0.00    -0.022 C 
ATOM     35  C   UNL     1      32.311 -13.690 -20.137  0.00  0.00    -0.003 C 
ATOM     36  C   UNL     1      32.330 -12.138 -21.988  0.00  0.00    -0.003 C 
ATOM     37  C   UNL     1      31.129 -11.503 -19.890  0.00  0.00    +0.031 C 
ENDBRANCH  28  31
ENDBRANCH  24  28
ENDBRANCH  21  23
ENDBRANCH  20  21
ENDBRANCH   2  20
TORSDOF 7
ENDMDL
MODEL 3
REMARK VINA RESULT:     -12.2      1.814      3.722
REMARK  Name = 11677589
REMARK  7 active torsions:
REMARK  status: ('A' for Active; 'I' for Inactive)
REMARK    1  A    between atoms: C_1  and  N_7
REMARK    2  A    between atoms: C_2  and  C_20
REMARK    3  A    between atoms: C_11  and  C_18
REMARK    4  A    between atoms: C_20  and  C_21
REMARK    5  A    between atoms: C_21  and  N_23
REMARK    6  A    between atoms: N_24  and  S_28
REMARK    7  A    between atoms: S_28  and  C_31
REMARK                            x       y       z     vdW  Elec       q    Type
REMARK                         _______ _______ _______ _____ _____    ______ ____
ROOT
ATOM      1  C   UNL     1      35.011 -22.900 -16.472  0.00  0.00    +0.058 C 
ATOM      2  C   UNL     1      34.948 -21.852 -19.043  0.00  0.00    -0.020 C 
ATOM      3  C   UNL     1      36.101 -22.181 -16.946  0.00  0.00    +0.015 C 
ATOM      4  C   UNL     1      33.890 -23.102 -17.266  0.00  0.00    +0.015 C 
ATOM      5  C   UNL     1      36.069 -21.655 -18.237  0.00  0.00    -0.003 C 
ATOM      6  C   UNL     1      33.858 -22.576 -18.558  0.00  0.00    -0.003 C 
ENDROOT
BRANCH   1   7
ATOM      7  N   UNL     1      35.042 -23.427 -15.180  0.00  0.00    -0.242 N 
ATOM      8  N   UNL     1      34.340 -24.017 -13.155  0.00  0.00    -0.387 NA
ATOM      9  N   UNL     1      37.818 -25.241 -12.806  0.00  0.00    -0.408 NA
ATOM     10  C   UNL     1      36.125 -24.008 -14.572  0.00  0.00    +0.091 C 
ATOM     11  C   UNL     1      34.001 -23.456 -14.294  0.00  0.00    +0.168 C 
ATOM     12  C   UNL     1      35.660 -24.367 -13.310  0.00  0.00    +0.172 C 
ATOM     13  C   UNL     1      37.425 -24.244 -14.997  0.00  0.00    +0.045 C 
ATOM     14  C   UNL     1      36.540 -24.994 -12.427  0.00  0.00    +0.140 C 
ATOM     15  C   UNL     1      38.218 -24.871 -14.047  0.00  0.00    +0.110 C 
ATOM     16  C   UNL     1      36.150 -25.421 -11.053  0.00  0.00    +0.069 C 
ATOM     17  C   UNL     1      39.640 -25.175 -14.394  0.00  0.00    +0.066 C 
BRANCH  11  18
ATOM     18  C   UNL     1      32.665 -22.910 -14.616  0.00  0.00    +0.075 C 
ATOM     19  C   UNL     1      31.609 -23.275 -13.568  0.00  0.00    +0.009 C 
ENDBRANCH  11  18
ENDBRANCH   1   7
BRANCH   2  20
ATOM     20  C   UNL     1      34.914 -21.290 -20.424  0.00  0.00    +0.048 C 
BRANCH  20  21
ATOM     21  C   UNL     1      35.901 -20.137 -20.640  0.00  0.00    +0.096 C 
BRANCH  21  23
ATOM     22  O   UNL     1      35.995 -18.357 -22.893  0.00  0.00    -0.251 OA
ATOM     23  N   UNL     1      35.239 -18.867 -20.767  0.00  0.00    -0.287 N 
ATOM     24  N   UNL     1      34.595 -16.852 -21.782  0.00  0.00    -0.169 N 
ATOM     25  C   UNL     1      35.339 -18.069 -21.896  0.00  0.00    +0.319 C 
ATOM     26  H   UNL     1      34.688 -18.548 -20.016  0.00  0.00    +0.151 HD
ATOM     27  H   UNL     1      34.102 -16.701 -20.943  0.00  0.00    +0.178 HD
BRANCH  24  28
ATOM     28  S   UNL     1      34.495 -15.638 -22.981  0.00  0.00    +0.077 S 
ATOM     29  O   UNL     1      35.811 -15.070 -23.201  0.00  0.00    -0.150 OA
ATOM     30  O   UNL     1      33.711 -16.131 -24.097  0.00  0.00    -0.150 OA
BRANCH  28  31
ATOM     31  C   UNL     1      33.505 -14.429 -22.156  0.00  0.00    +0.125 C 
ATOM     32  C   UNL     1      33.106 -14.657 -20.851  0.00  0.00    +0.020 C 
ATOM     33  C   UNL     1      33.146 -13.275 -22.831  0.00  0.00    +0.020 C 
ATOM     34  C   UNL     1      31.954 -12.534 -20.865  0.00  0.00    -0.022 C 
ATOM     35  C   UNL     1      32.324 -13.702 -20.200  0.00  0.00    -0.003 C 
ATOM     36  C   UNL     1      32.365 -12.319 -22.181  0.00  0.00    -0.003 C 
ATOM     37  C   UNL     1      31.120 -11.512 -20.169  0.00  0.00    +0.031 C 
ENDBRANCH  28  31
ENDBRANCH  24  28
ENDBRANCH  21  23
ENDBRANCH  20  21
ENDBRANCH   2  20
TORSDOF 7
ENDMDL
MODEL 4
REMARK VINA RESULT:     -12.0      1.449      2.181
REMARK  Name = 11677589
REMARK  7 active torsions:
REMARK  status: ('A' for Active; 'I' for Inactive)
REMARK    1  A    between atoms: C_1  and  N_7
REMARK    2  A    between atoms: C_2  and  C_20
REMARK    3  A    between atoms: C_11  and  C_18
REMARK    4  A    between atoms: C_20  and  C_21
REMARK    5  A    between atoms: C_21  and  N_23
REMARK    6  A    between atoms: N_24  and  S_28
REMARK    7  A    between atoms: S_28  and  C_31
REMARK                            x       y       z     vdW  Elec       q    Type
REMARK                         _______ _______ _______ _____ _____    ______ ____
ROOT
ATOM      1  C   UNL     1      35.691 -22.570 -16.800  0.00  0.00    +0.058 C 
ATOM      2  C   UNL     1      35.260 -21.434 -19.297  0.00  0.00    -0.020 C 
ATOM      3  C   UNL     1      36.693 -21.811 -17.389  0.00  0.00    +0.015 C 
ATOM      4  C   UNL     1      34.476 -22.768 -17.442  0.00  0.00    +0.015 C 
ATOM      5  C   UNL     1      36.477 -21.241 -18.644  0.00  0.00    -0.003 C 
ATOM      6  C   UNL     1      34.259 -22.198 -18.697  0.00  0.00    -0.003 C 
ENDROOT
BRANCH   1   7
ATOM      7  N   UNL     1      35.907 -23.141 -15.545  0.00  0.00    -0.242 N 
ATOM      8  N   UNL     1      36.997 -24.006 -13.811  0.00  0.00    -0.387 NA
ATOM      9  N   UNL     1      33.584 -24.309 -12.402  0.00  0.00    -0.408 NA
ATOM     10  C   UNL     1      34.940 -23.456 -14.625  0.00  0.00    +0.091 C 
ATOM     11  C   UNL     1      37.118 -23.487 -15.012  0.00  0.00    +0.168 C 
ATOM     12  C   UNL     1      35.646 -23.993 -13.553  0.00  0.00    +0.172 C 
ATOM     13  C   UNL     1      33.559 -23.324 -14.634  0.00  0.00    +0.045 C 
ATOM     14  C   UNL     1      34.935 -24.421 -12.431  0.00  0.00    +0.140 C 
ATOM     15  C   UNL     1      32.947 -23.778 -13.474  0.00  0.00    +0.110 C 
ATOM     16  C   UNL     1      35.588 -25.012 -11.227  0.00  0.00    +0.069 C 
ATOM     17  C   UNL     1      31.459 -23.685 -13.371  0.00  0.00    +0.066 C 
BRANCH  11  18
ATOM     18  C   UNL     1      38.393 -23.288 -15.735  0.00  0.00    +0.075 C 
ATOM     19  C   UNL     1      39.464 -24.308 -15.335  0.00  0.00    +0.009 C 
ENDBRANCH  11  18
ENDBRANCH   1   7
BRANCH   2  20
ATOM     20  C   UNL     1      35.029 -20.825 -20.639  0.00  0.00    +0.048 C 
BRANCH  20  21
ATOM     21  C   UNL     1      35.991 -19.677 -20.964  0.00  0.00    +0.096 C 
BRANCH  21  23
ATOM     22  O   UNL     1      35.773 -17.828 -23.152  0.00  0.00    -0.251 OA
ATOM     23  N   UNL     1      35.337 -18.396 -20.953  0.00  0.00    -0.287 N 
ATOM     24  N   UNL     1      34.580 -16.343 -21.799  0.00  0.00    -0.169 N 
ATOM     25  C   UNL     1      35.279 -17.564 -22.059  0.00  0.00    +0.319 C 
ATOM     26  H   UNL     1      34.910 -18.095 -20.118  0.00  0.00    +0.151 HD
ATOM     27  H   UNL     1      34.220 -16.214 -20.892  0.00  0.00    +0.178 HD
BRANCH  24  28
ATOM     28  S   UNL     1      34.320 -15.091 -22.933  0.00  0.00    +0.077 S 
ATOM     29  O   UNL     1      35.579 -14.429 -23.215  0.00  0.00    -0.150 OA
ATOM     30  O   UNL     1      33.493 -15.590 -24.016  0.00  0.00    -0.150 OA
BRANCH  28  31
ATOM     31  C   UNL     1      33.314 -13.985 -21.991  0.00  0.00    +0.125 C 
ATOM     32  C   UNL     1      32.935 -14.341 -20.708  0.00  0.00    +0.020 C 
ATOM     33  C   UNL     1      32.924 -12.781 -22.553  0.00  0.00    +0.020 C 
ATOM     34  C   UNL     1      31.740 -12.250 -20.516  0.00  0.00    -0.022 C 
ATOM     35  C   UNL     1      32.142 -13.467 -19.965  0.00  0.00    -0.003 C 
ATOM     36  C   UNL     1      32.131 -11.907 -21.810  0.00  0.00    -0.003 C 
ATOM     37  C   UNL     1      30.893 -11.316 -19.720  0.00  0.00    +0.031 C 
ENDBRANCH  28  31
ENDBRANCH  24  28
ENDBRANCH  21  23
ENDBRANCH  20  21
ENDBRANCH   2  20
TORSDOF 7
ENDMDL
MODEL 5
REMARK VINA RESULT:     -11.8      3.505     11.420
REMARK  Name = 11677589
REMARK  7 active torsions:
REMARK  status: ('A' for Active; 'I' for Inactive)
REMARK    1  A    between atoms: C_1  and  N_7
REMARK    2  A    between atoms: C_2  and  C_20
REMARK    3  A    between atoms: C_11  and  C_18
REMARK    4  A    between atoms: C_20  and  C_21
REMARK    5  A    between atoms: C_21  and  N_23
REMARK    6  A    between atoms: N_24  and  S_28
REMARK    7  A    between atoms: S_28  and  C_31
REMARK                            x       y       z     vdW  Elec       q    Type
REMARK                         _______ _______ _______ _____ _____    ______ ____
ROOT
ATOM      1  C   UNL     1      33.865 -13.108 -23.298  0.00  0.00    +0.058 C 
ATOM      2  C   UNL     1      34.419 -15.821 -23.506  0.00  0.00    -0.020 C 
ATOM      3  C   UNL     1      33.499 -13.795 -24.448  0.00  0.00    +0.015 C 
ATOM      4  C   UNL     1      34.505 -13.758 -22.251  0.00  0.00    +0.015 C 
ATOM      5  C   UNL     1      33.778 -15.158 -24.552  0.00  0.00    -0.003 C 
ATOM      6  C   UNL     1      34.784 -15.121 -22.355  0.00  0.00    -0.003 C 
ENDROOT
BRANCH   1   7
ATOM      7  N   UNL     1      33.587 -11.744 -23.193  0.00  0.00    -0.242 N 
ATOM      8  N   UNL     1      33.612  -9.572 -23.667  0.00  0.00    -0.387 NA
ATOM      9  N   UNL     1      31.424  -9.364 -20.684  0.00  0.00    -0.408 NA
ATOM     10  C   UNL     1      32.807 -11.152 -22.235  0.00  0.00    +0.091 C 
ATOM     11  C   UNL     1      34.045 -10.760 -24.025  0.00  0.00    +0.168 C 
ATOM     12  C   UNL     1      32.838  -9.797 -22.552  0.00  0.00    +0.172 C 
ATOM     13  C   UNL     1      32.100 -11.661 -21.154  0.00  0.00    +0.045 C 
ATOM     14  C   UNL     1      32.127  -8.905 -21.750  0.00  0.00    +0.140 C 
ATOM     15  C   UNL     1      31.428 -10.694 -20.420  0.00  0.00    +0.110 C 
ATOM     16  C   UNL     1      32.090  -7.435 -21.997  0.00  0.00    +0.069 C 
ATOM     17  C   UNL     1      30.632 -11.127 -19.232  0.00  0.00    +0.066 C 
BRANCH  11  18
ATOM     18  C   UNL     1      34.923 -11.038 -25.182  0.00  0.00    +0.075 C 
ATOM     19  C   UNL     1      35.997  -9.963 -25.380  0.00  0.00    +0.009 C 
ENDBRANCH  11  18
ENDBRANCH   1   7
BRANCH   2  20
ATOM     20  C   UNL     1      34.718 -17.278 -23.618  0.00  0.00    +0.048 C 
BRANCH  20  21
ATOM     21  C   UNL     1      35.869 -17.738 -22.717  0.00  0.00    +0.096 C 
BRANCH  21  23
ATOM     22  O   UNL     1      37.552 -19.288 -20.979  0.00  0.00    -0.251 OA
ATOM     23  N   UNL     1      35.447 -18.713 -21.747  0.00  0.00    -0.287 N 
ATOM     24  N   UNL     1      35.673 -20.333 -20.065  0.00  0.00    -0.169 N 
ATOM     25  C   UNL     1      36.332 -19.418 -20.947  0.00  0.00    +0.319 C 
ATOM     26  H   UNL     1      34.484 -18.888 -21.647  0.00  0.00    +0.151 HD
ATOM     27  H   UNL     1      34.690 -20.374 -20.110  0.00  0.00    +0.178 HD
BRANCH  24  28
ATOM     28  S   UNL     1      36.452 -21.360 -18.943  0.00  0.00    +0.077 S 
ATOM     29  O   UNL     1      37.097 -22.447 -19.655  0.00  0.00    -0.150 OA
ATOM     30  O   UNL     1      37.200 -20.555 -17.996  0.00  0.00    -0.150 OA
BRANCH  28  31
ATOM     31  C   UNL     1      35.066 -22.020 -18.069  0.00  0.00    +0.125 C 
ATOM     32  C   UNL     1      33.801 -21.905 -18.620  0.00  0.00    +0.020 C 
ATOM     33  C   UNL     1      35.269 -22.641 -16.849  0.00  0.00    +0.020 C 
ATOM     34  C   UNL     1      32.894 -23.055 -16.699  0.00  0.00    -0.022 C 
ATOM     35  C   UNL     1      32.707 -22.427 -17.930  0.00  0.00    -0.003 C 
ATOM     36  C   UNL     1      34.175 -23.163 -16.159  0.00  0.00    -0.003 C 
ATOM     37  C   UNL     1      31.724 -23.614 -15.962  0.00  0.00    +0.031 C 
ENDBRANCH  28  31
ENDBRANCH  24  28
ENDBRANCH  21  23
ENDBRANCH  20  21
ENDBRANCH   2  20
TORSDOF 7
ENDMDL
MODEL 6
REMARK VINA RESULT:     -11.6      5.641     14.670
REMARK  Name = 11677589
REMARK  7 active torsions:
REMARK  status: ('A' for Active; 'I' for Inactive)
REMARK    1  A    between atoms: C_1  and  N_7
REMARK    2  A    between atoms: C_2  and  C_20
REMARK    3  A    between atoms: C_11  and  C_18
REMARK    4  A    between atoms: C_20  and  C_21
REMARK    5  A    between atoms: C_21  and  N_23
REMARK    6  A    between atoms: N_24  and  S_28
REMARK    7  A    between atoms: S_28  and  C_31
REMARK                            x       y       z     vdW  Elec       q    Type
REMARK                         _______ _______ _______ _____ _____    ______ ____
ROOT
ATOM      1  C   UNL     1      32.464  -6.814 -22.406  0.00  0.00    +0.058 C 
ATOM      2  C   UNL     1      31.981  -8.815 -20.543  0.00  0.00    -0.020 C 
ATOM      3  C   UNL     1      33.128  -6.789 -21.187  0.00  0.00    +0.015 C 
ATOM      4  C   UNL     1      31.562  -7.826 -22.707  0.00  0.00    +0.015 C 
ATOM      5  C   UNL     1      32.885  -7.794 -20.250  0.00  0.00    -0.003 C 
ATOM      6  C   UNL     1      31.319  -8.831 -21.771  0.00  0.00    -0.003 C 
ENDROOT
BRANCH   1   7
ATOM      7  N   UNL     1      32.706  -5.808 -23.343  0.00  0.00    -0.242 N 
ATOM      8  N   UNL     1      33.608  -4.757 -25.082  0.00  0.00    -0.387 NA
ATOM      9  N   UNL     1      31.272  -2.062 -24.082  0.00  0.00    -0.408 NA
ATOM     10  C   UNL     1      32.081  -4.590 -23.399  0.00  0.00    +0.091 C 
ATOM     11  C   UNL     1      33.609  -5.861 -24.369  0.00  0.00    +0.168 C 
ATOM     12  C   UNL     1      32.662  -3.953 -24.492  0.00  0.00    +0.172 C 
ATOM     13  C   UNL     1      31.094  -4.006 -22.617  0.00  0.00    +0.045 C 
ATOM     14  C   UNL     1      32.234  -2.667 -24.822  0.00  0.00    +0.140 C 
ATOM     15  C   UNL     1      30.740  -2.728 -23.027  0.00  0.00    +0.110 C 
ATOM     16  C   UNL     1      32.786  -1.893 -25.970  0.00  0.00    +0.069 C 
ATOM     17  C   UNL     1      29.684  -2.001 -22.259  0.00  0.00    +0.066 C 
BRANCH  11  18
ATOM     18  C   UNL     1      34.469  -7.039 -24.615  0.00  0.00    +0.075 C 
ATOM     19  C   UNL     1      35.681  -7.091 -23.679  0.00  0.00    +0.009 C 
ENDBRANCH  11  18
ENDBRANCH   1   7
BRANCH   2  20
ATOM     20  C   UNL     1      31.721  -9.889 -19.541  0.00  0.00    +0.048 C 
BRANCH  20  21
ATOM     21  C   UNL     1      30.830 -11.019 -20.072  0.00  0.00    +0.096 C 
BRANCH  21  23
ATOM     22  O   UNL     1      32.223 -11.472 -22.543  0.00  0.00    -0.251 OA
ATOM     23  N   UNL     1      31.587 -12.186 -20.436  0.00  0.00    -0.287 N 
ATOM     24  N   UNL     1      32.912 -13.573 -21.787  0.00  0.00    -0.169 N 
ATOM     25  C   UNL     1      32.230 -12.321 -21.656  0.00  0.00    +0.319 C 
ATOM     26  H   UNL     1      31.650 -12.925 -19.789  0.00  0.00    +0.151 HD
ATOM     27  H   UNL     1      32.861 -14.197 -21.027  0.00  0.00    +0.178 HD
BRANCH  24  28
ATOM     28  S   UNL     1      33.807 -14.073 -23.154  0.00  0.00    +0.077 S 
ATOM     29  O   UNL     1      32.899 -14.319 -24.259  0.00  0.00    -0.150 OA
ATOM     30  O   UNL     1      34.952 -13.199 -23.324  0.00  0.00    -0.150 OA
BRANCH  28  31
ATOM     31  C   UNL     1      34.431 -15.631 -22.599  0.00  0.00    +0.125 C 
ATOM     32  C   UNL     1      34.538 -15.871 -21.240  0.00  0.00    +0.020 C 
ATOM     33  C   UNL     1      34.801 -16.583 -23.533  0.00  0.00    +0.020 C 
ATOM     34  C   UNL     1      35.408 -18.071 -21.729  0.00  0.00    -0.022 C 
ATOM     35  C   UNL     1      35.031 -17.100 -20.802  0.00  0.00    -0.003 C 
ATOM     36  C   UNL     1      35.293 -17.812 -23.095  0.00  0.00    -0.003 C 
ATOM     37  C   UNL     1      35.933 -19.385 -21.261  0.00  0.00    +0.031 C 
ENDBRANCH  28  31
ENDBRANCH  24  28
ENDBRANCH  21  23
ENDBRANCH  20  21
ENDBRANCH   2  20
TORSDOF 7
ENDMDL
MODEL 7
REMARK VINA RESULT:     -11.6      3.747     11.355
REMARK  Name = 11677589
REMARK  7 active torsions:
REMARK  status: ('A' for Active; 'I' for Inactive)
REMARK    1  A    between atoms: C_1  and  N_7
REMARK    2  A    between atoms: C_2  and  C_20
REMARK    3  A    between atoms: C_11  and  C_18
REMARK    4  A    between atoms: C_20  and  C_21
REMARK    5  A    between atoms: C_21  and  N_23
REMARK    6  A    between atoms: N_24  and  S_28
REMARK    7  A    between atoms: S_28  and  C_31
REMARK                            x       y       z     vdW  Elec       q    Type
REMARK                         _______ _______ _______ _____ _____    ______ ____
ROOT
ATOM      1  C   UNL     1      34.055 -14.265 -22.252  0.00  0.00    +0.058 C 
ATOM      2  C   UNL     1      35.085 -16.779 -21.680  0.00  0.00    -0.020 C 
ATOM      3  C   UNL     1      34.054 -14.723 -20.941  0.00  0.00    +0.015 C 
ATOM      4  C   UNL     1      34.565 -15.046 -23.281  0.00  0.00    +0.015 C 
ATOM      5  C   UNL     1      34.571 -15.987 -20.654  0.00  0.00    -0.003 C 
ATOM      6  C   UNL     1      35.082 -16.310 -22.993  0.00  0.00    -0.003 C 
ENDROOT
BRANCH   1   7
ATOM      7  N   UNL     1      33.538 -13.001 -22.540  0.00  0.00    -0.242 N 
ATOM      8  N   UNL     1      33.060 -11.161 -23.693  0.00  0.00    -0.387 NA
ATOM      9  N   UNL     1      31.396 -10.168 -20.536  0.00  0.00    -0.408 NA
ATOM     10  C   UNL     1      32.826 -12.206 -21.681  0.00  0.00    +0.091 C 
ATOM     11  C   UNL     1      33.651 -12.334 -23.729  0.00  0.00    +0.168 C 
ATOM     12  C   UNL     1      32.540 -11.064 -22.424  0.00  0.00    +0.172 C 
ATOM     13  C   UNL     1      32.420 -12.375 -20.365  0.00  0.00    +0.045 C 
ATOM     14  C   UNL     1      31.810 -10.039 -21.821  0.00  0.00    +0.140 C 
ATOM     15  C   UNL     1      31.702 -11.301 -19.858  0.00  0.00    +0.110 C 
ATOM     16  C   UNL     1      31.447  -8.774 -22.522  0.00  0.00    +0.069 C 
ATOM     17  C   UNL     1      31.213 -11.373 -18.448  0.00  0.00    +0.066 C 
BRANCH  11  18
ATOM     18  C   UNL     1      34.364 -12.898 -24.895  0.00  0.00    +0.075 C 
ATOM     19  C   UNL     1      33.433 -13.174 -26.080  0.00  0.00    +0.009 C 
ENDBRANCH  11  18
ENDBRANCH   1   7
BRANCH   2  20
ATOM     20  C   UNL     1      35.637 -18.130 -21.372  0.00  0.00    +0.048 C 
BRANCH  20  21
ATOM     21  C   UNL     1      34.567 -19.225 -21.288  0.00  0.00    +0.096 C 
BRANCH  21  23
ATOM     22  O   UNL     1      32.686 -21.010 -20.052  0.00  0.00    -0.251 OA
ATOM     23  N   UNL     1      34.833 -20.170 -20.237  0.00  0.00    -0.287 N 
ATOM     24  N   UNL     1      34.368 -21.843 -18.660  0.00  0.00    -0.169 N 
ATOM     25  C   UNL     1      33.861 -20.996 -19.696  0.00  0.00    +0.319 C 
ATOM     26  H   UNL     1      35.750 -20.232 -19.883  0.00  0.00    +0.151 HD
ATOM     27  H   UNL     1      35.323 -21.762 -18.437  0.00  0.00    +0.178 HD
BRANCH  24  28
ATOM     28  S   UNL     1      33.450 -22.984 -17.778  0.00  0.00    +0.077 S 
ATOM     29  O   UNL     1      32.164 -22.405 -17.437  0.00  0.00    -0.150 OA
ATOM     30  O   UNL     1      33.524 -24.273 -18.440  0.00  0.00    -0.150 OA
BRANCH  28  31
ATOM     31  C   UNL     1      34.405 -23.114 -16.297  0.00  0.00    +0.125 C 
ATOM     32  C   UNL     1      35.722 -22.686 -16.301  0.00  0.00    +0.020 C 
ATOM     33  C   UNL     1      33.820 -23.642 -15.160  0.00  0.00    +0.020 C 
ATOM     34  C   UNL     1      35.901 -23.319 -13.977  0.00  0.00    -0.022 C 
ATOM     35  C   UNL     1      36.475 -22.789 -15.132  0.00  0.00    -0.003 C 
ATOM     36  C   UNL     1      34.573 -23.745 -13.990  0.00  0.00    -0.003 C 
ATOM     37  C   UNL     1      36.707 -23.427 -12.727  0.00  0.00    +0.031 C 
ENDBRANCH  28  31
ENDBRANCH  24  28
ENDBRANCH  21  23
ENDBRANCH  20  21
ENDBRANCH   2  20
TORSDOF 7
ENDMDL
MODEL 8
REMARK VINA RESULT:     -11.5      4.825     10.696
REMARK  Name = 11677589
REMARK  7 active torsions:
REMARK  status: ('A' for Active; 'I' for Inactive)
REMARK    1  A    between atoms: C_1  and  N_7
REMARK    2  A    between atoms: C_2  and  C_20
REMARK    3  A    between atoms: C_11  and  C_18
REMARK    4  A    between atoms: C_20  and  C_21
REMARK    5  A    between atoms: C_21  and  N_23
REMARK    6  A    between atoms: N_24  and  S_28
REMARK    7  A    between atoms: S_28  and  C_31
REMARK                            x       y       z     vdW  Elec       q    Type
REMARK                         _______ _______ _______ _____ _____    ______ ____
ROOT
ATOM      1  C   UNL     1      35.533 -19.100 -21.302  0.00  0.00    +0.058 C 
ATOM      2  C   UNL     1      36.220 -20.948 -19.347  0.00  0.00    -0.020 C 
ATOM      3  C   UNL     1      34.562 -19.953 -20.794  0.00  0.00    +0.015 C 
ATOM      4  C   UNL     1      36.843 -19.158 -20.845  0.00  0.00    +0.015 C 
ATOM      5  C   UNL     1      34.908 -20.882 -19.812  0.00  0.00    -0.003 C 
ATOM      6  C   UNL     1      37.189 -20.087 -19.863  0.00  0.00    -0.003 C 
ENDROOT
BRANCH   1   7
ATOM      7  N   UNL     1      35.189 -18.170 -22.284  0.00  0.00    -0.242 N 
ATOM      8  N   UNL     1      34.826 -17.314 -24.304  0.00  0.00    -0.387 NA
ATOM      9  N   UNL     1      33.929 -14.292 -22.358  0.00  0.00    -0.408 NA
ATOM     10  C   UNL     1      34.779 -16.880 -22.067  0.00  0.00    +0.091 C 
ATOM     11  C   UNL     1      35.200 -18.382 -23.636  0.00  0.00    +0.168 C 
ATOM     12  C   UNL     1      34.560 -16.368 -23.342  0.00  0.00    +0.172 C 
ATOM     13  C   UNL     1      34.589 -16.140 -20.908  0.00  0.00    +0.045 C 
ATOM     14  C   UNL     1      34.126 -15.048 -23.466  0.00  0.00    +0.140 C 
ATOM     15  C   UNL     1      34.158 -14.841 -21.140  0.00  0.00    +0.110 C 
ATOM     16  C   UNL     1      33.859 -14.397 -24.781  0.00  0.00    +0.069 C 
ATOM     17  C   UNL     1      33.919 -13.949 -19.965  0.00  0.00    +0.066 C 
BRANCH  11  18
ATOM     18  C   UNL     1      35.594 -19.674 -24.237  0.00  0.00    +0.075 C 
ATOM     19  C   UNL     1      34.393 -20.485 -24.734  0.00  0.00    +0.009 C 
ENDBRANCH  11  18
ENDBRANCH   1   7
BRANCH   2  20
ATOM     20  C   UNL     1      36.590 -21.941 -18.297  0.00  0.00    +0.048 C 
BRANCH  20  21
ATOM     21  C   UNL     1      37.206 -21.308 -17.044  0.00  0.00    +0.096 C 
BRANCH  21  23
ATOM     22  O   UNL     1      36.472 -23.831 -15.883  0.00  0.00    -0.251 OA
ATOM     23  N   UNL     1      36.399 -21.519 -15.872  0.00  0.00    -0.287 N 
ATOM     24  N   UNL     1      35.272 -22.729 -14.208  0.00  0.00    -0.169 N 
ATOM     25  C   UNL     1      36.093 -22.777 -15.380  0.00  0.00    +0.319 C 
ATOM     26  H   UNL     1      36.046 -20.732 -15.398  0.00  0.00    +0.151 HD
ATOM     27  H   UNL     1      35.011 -21.839 -13.876  0.00  0.00    +0.178 HD
BRANCH  24  28
ATOM     28  S   UNL     1      34.706 -24.088 -13.340  0.00  0.00    +0.077 S 
ATOM     29  O   UNL     1      35.402 -25.275 -13.798  0.00  0.00    -0.150 OA
ATOM     30  O   UNL     1      34.654 -23.766 -11.927  0.00  0.00    -0.150 OA
BRANCH  28  31
ATOM     31  C   UNL     1      33.034 -24.178 -13.905  0.00  0.00    +0.125 C 
ATOM     32  C   UNL     1      32.626 -23.360 -14.944  0.00  0.00    +0.020 C 
ATOM     33  C   UNL     1      32.163 -25.066 -13.298  0.00  0.00    +0.020 C 
ATOM     34  C   UNL     1      30.415 -24.320 -14.790  0.00  0.00    -0.022 C 
ATOM     35  C   UNL     1      31.306 -23.432 -15.390  0.00  0.00    -0.003 C 
ATOM     36  C   UNL     1      30.842 -25.138 -13.744  0.00  0.00    -0.003 C 
ATOM     37  C   UNL     1      29.004 -24.398 -15.267  0.00  0.00    +0.031 C 
ENDBRANCH  28  31
ENDBRANCH  24  28
ENDBRANCH  21  23
ENDBRANCH  20  21
ENDBRANCH   2  20
TORSDOF 7
ENDMDL
MODEL 9
REMARK VINA RESULT:     -11.3      4.492     13.506
REMARK  Name = 11677589
REMARK  7 active torsions:
REMARK  status: ('A' for Active; 'I' for Inactive)
REMARK    1  A    between atoms: C_1  and  N_7
REMARK    2  A    between atoms: C_2  and  C_20
REMARK    3  A    between atoms: C_11  and  C_18
REMARK    4  A    between atoms: C_20  and  C_21
REMARK    5  A    between atoms: C_21  and  N_23
REMARK    6  A    between atoms: N_24  and  S_28
REMARK    7  A    between atoms: S_28  and  C_31
REMARK                            x       y       z     vdW  Elec       q    Type
REMARK                         _______ _______ _______ _____ _____    ______ ____
ROOT
ATOM      1  C   UNL     1      32.983  -9.127 -22.878  0.00  0.00    +0.058 C 
ATOM      2  C   UNL     1      33.843 -11.735 -23.290  0.00  0.00    -0.020 C 
ATOM      3  C   UNL     1      32.253 -10.181 -22.344  0.00  0.00    +0.015 C 
ATOM      4  C   UNL     1      34.138  -9.359 -23.614  0.00  0.00    +0.015 C 
ATOM      5  C   UNL     1      32.685 -11.492 -22.552  0.00  0.00    -0.003 C 
ATOM      6  C   UNL     1      34.570 -10.669 -23.822  0.00  0.00    -0.003 C 
ENDROOT
BRANCH   1   7
ATOM      7  N   UNL     1      32.552  -7.816 -22.671  0.00  0.00    -0.242 N 
ATOM      8  N   UNL     1      31.617  -6.066 -21.668  0.00  0.00    -0.387 NA
ATOM      9  N   UNL     1      32.685  -4.309 -24.749  0.00  0.00    -0.408 NA
ATOM     10  C   UNL     1      32.713  -6.767 -23.538  0.00  0.00    +0.091 C 
ATOM     11  C   UNL     1      31.892  -7.347 -21.568  0.00  0.00    +0.168 C 
ATOM     12  C   UNL     1      32.121  -5.688 -22.889  0.00  0.00    +0.172 C 
ATOM     13  C   UNL     1      33.303  -6.669 -24.791  0.00  0.00    +0.045 C 
ATOM     14  C   UNL     1      32.119  -4.445 -23.524  0.00  0.00    +0.140 C 
ATOM     15  C   UNL     1      33.248  -5.394 -25.336  0.00  0.00    +0.110 C 
ATOM     16  C   UNL     1      31.514  -3.223 -22.922  0.00  0.00    +0.069 C 
ATOM     17  C   UNL     1      33.853  -5.168 -26.684  0.00  0.00    +0.066 C 
BRANCH  11  18
ATOM     18  C   UNL     1      31.546  -8.212 -20.419  0.00  0.00    +0.075 C 
ATOM     19  C   UNL     1      32.656  -8.266 -19.365  0.00  0.00    +0.009 C 
ENDBRANCH  11  18
ENDBRANCH   1   7
BRANCH   2  20
ATOM     20  C   UNL     1      34.304 -13.136 -23.513  0.00  0.00    +0.048 C 
BRANCH  20  21
ATOM     21  C   UNL     1      33.368 -14.192 -22.913  0.00  0.00    +0.096 C 
BRANCH  21  23
ATOM     22  O   UNL     1      34.585 -16.585 -23.934  0.00  0.00    -0.251 OA
ATOM     23  N   UNL     1      34.081 -15.189 -22.160  0.00  0.00    -0.287 N 
ATOM     24  N   UNL     1      35.291 -17.163 -21.783  0.00  0.00    -0.169 N 
ATOM     25  C   UNL     1      34.638 -16.319 -22.737  0.00  0.00    +0.319 C 
ATOM     26  H   UNL     1      34.177 -15.063 -21.188  0.00  0.00    +0.151 HD
ATOM     27  H   UNL     1      35.281 -16.873 -20.842  0.00  0.00    +0.178 HD
BRANCH  24  28
ATOM     28  S   UNL     1      36.083 -18.634 -22.143  0.00  0.00    +0.077 S 
ATOM     29  O   UNL     1      35.737 -19.049 -23.489  0.00  0.00    -0.150 OA
ATOM     30  O   UNL     1      37.472 -18.542 -21.735  0.00  0.00    -0.150 OA
BRANCH  28  31
ATOM     31  C   UNL     1      35.290 -19.732 -21.008  0.00  0.00    +0.125 C 
ATOM     32  C   UNL     1      33.907 -19.771 -20.958  0.00  0.00    +0.020 C 
ATOM     33  C   UNL     1      36.066 -20.534 -20.189  0.00  0.00    +0.020 C 
ATOM     34  C   UNL     1      34.048 -21.453 -19.230  0.00  0.00    -0.022 C 
ATOM     35  C   UNL     1      33.281 -20.638 -20.062  0.00  0.00    -0.003 C 
ATOM     36  C   UNL     1      35.440 -21.401 -19.293  0.00  0.00    -0.003 C 
ATOM     37  C   UNL     1      33.378 -22.380 -18.274  0.00  0.00    +0.031 C 
ENDBRANCH  28  31
ENDBRANCH  24  28
ENDBRANCH  21  23
ENDBRANCH  20  21
ENDBRANCH   2  20
TORSDOF 7
ENDMDL
