MODEL 1
REMARK VINA RESULT:     -11.3      0.000      0.000
REMARK  Name = 24958200
REMARK  3 active torsions:
REMARK  status: ('A' for Active; 'I' for Inactive)
REMARK    1  A    between atoms: N_1  and  C_13
REMARK    2  A    between atoms: C_6  and  C_26
REMARK    3  A    between atoms: C_10  and  C_17
REMARK                            x       y       z     vdW  Elec       q    Type
REMARK                         _______ _______ _______ _____ _____    ______ ____
ROOT
ATOM      1  N   UNL     1      32.656 -22.916 -16.816  0.00  0.00    -0.189 N 
ATOM      2  N   UNL     1      31.311 -22.975 -16.856  0.00  0.00    -0.174 NA
ATOM      3  C   UNL     1      32.162 -23.991 -15.011  0.00  0.00    +0.036 C 
ATOM      4  C   UNL     1      33.223 -23.511 -15.727  0.00  0.00    +0.091 C 
ATOM      5  C   UNL     1      30.966 -23.642 -15.740  0.00  0.00    +0.105 C 
ATOM      6  C   UNL     1      29.698 -24.005 -15.249  0.00  0.00    +0.072 C 
ATOM      7  C   UNL     1      32.243 -24.681 -13.809  0.00  0.00    +0.003 C 
ATOM      8  C   UNL     1      29.747 -24.710 -14.027  0.00  0.00    +0.006 C 
ATOM      9  C   UNL     1      30.961 -25.031 -13.341  0.00  0.00    +0.000 C 
ENDROOT
BRANCH   1  13
ATOM     10  C   UNL     1      34.754 -21.018 -19.883  0.00  0.00    -0.024 C 
ATOM     11  C   UNL     1      35.440 -21.774 -18.932  0.00  0.00    -0.003 C 
ATOM     12  C   UNL     1      33.366 -20.897 -19.809  0.00  0.00    -0.003 C 
ATOM     13  C   UNL     1      33.352 -22.286 -17.832  0.00  0.00    +0.074 C 
ATOM     14  C   UNL     1      34.739 -22.408 -17.907  0.00  0.00    +0.016 C 
ATOM     15  C   UNL     1      32.665 -21.531 -18.784  0.00  0.00    +0.016 C 
BRANCH  10  17
ATOM     16  N   UNL     1      35.333 -18.902 -23.022  0.00  0.00    +0.384 N 
ATOM     17  C   UNL     1      35.517 -20.326 -20.998  0.00  0.00    +0.001 C 
ATOM     18  C   UNL     1      36.629 -19.416 -20.450  0.00  0.00    +0.000 C 
ATOM     19  C   UNL     1      34.583 -19.539 -21.936  0.00  0.00    -0.077 C 
ATOM     20  C   UNL     1      37.341 -18.700 -21.595  0.00  0.00    -0.023 C 
ATOM     21  C   UNL     1      36.347 -17.983 -22.505  0.00  0.00    -0.082 C 
ATOM     22  H   UNL     1      34.684 -18.383 -23.613  0.00  0.00    -0.085 HD
ATOM     23  H   UNL     1      35.805 -19.632 -23.556  0.00  0.00    -0.085 HD
ENDBRANCH  10  17
ENDBRANCH   1  13
BRANCH   6  26
ATOM     24  O   UNL     1      28.042 -24.373 -16.882  0.00  0.00    -0.270 OA
ATOM     25  N   UNL     1      27.724 -22.595 -15.470  0.00  0.00    -0.325 N 
ATOM     26  C   UNL     1      28.460 -23.688 -15.927  0.00  0.00    +0.244 C 
ATOM     27  H   UNL     1      26.876 -22.353 -15.909  0.00  0.00    +0.145 HD
ATOM     28  H   UNL     1      28.051 -22.065 -14.707  0.00  0.00    +0.145 HD
ENDBRANCH   6  26
TORSDOF 3
ENDMDL
MODEL 2
REMARK VINA RESULT:     -11.2      1.092      1.673
REMARK  Name = 24958200
REMARK  3 active torsions:
REMARK  status: ('A' for Active; 'I' for Inactive)
REMARK    1  A    between atoms: N_1  and  C_13
REMARK    2  A    between atoms: C_6  and  C_26
REMARK    3  A    between atoms: C_10  and  C_17
REMARK                            x       y       z     vdW  Elec       q    Type
REMARK                         _______ _______ _______ _____ _____    ______ ____
ROOT
ATOM      1  N   UNL     1      33.363 -22.539 -17.369  0.00  0.00    -0.189 N 
ATOM      2  N   UNL     1      32.044 -22.767 -17.213  0.00  0.00    -0.174 NA
ATOM      3  C   UNL     1      33.280 -23.697 -15.549  0.00  0.00    +0.036 C 
ATOM      4  C   UNL     1      34.155 -23.076 -16.396  0.00  0.00    +0.091 C 
ATOM      5  C   UNL     1      31.955 -23.490 -16.082  0.00  0.00    +0.105 C 
ATOM      6  C   UNL     1      30.829 -24.017 -15.424  0.00  0.00    +0.072 C 
ATOM      7  C   UNL     1      33.624 -24.390 -14.397  0.00  0.00    +0.003 C 
ATOM      8  C   UNL     1      31.146 -24.729 -14.246  0.00  0.00    +0.006 C 
ATOM      9  C   UNL     1      32.479 -24.906 -13.758  0.00  0.00    +0.000 C 
ENDROOT
BRANCH   1  13
ATOM     10  C   UNL     1      34.731 -20.341 -20.641  0.00  0.00    -0.024 C 
ATOM     11  C   UNL     1      33.371 -20.358 -20.331  0.00  0.00    -0.003 C 
ATOM     12  C   UNL     1      35.634 -21.059 -19.856  0.00  0.00    -0.003 C 
ATOM     13  C   UNL     1      33.816 -21.811 -18.454  0.00  0.00    +0.074 C 
ATOM     14  C   UNL     1      32.914 -21.093 -19.238  0.00  0.00    +0.016 C 
ATOM     15  C   UNL     1      35.177 -21.794 -18.763  0.00  0.00    +0.016 C 
BRANCH  10  17
ATOM     16  N   UNL     1      34.811 -18.930 -24.200  0.00  0.00    +0.384 N 
ATOM     17  C   UNL     1      35.229 -19.543 -21.832  0.00  0.00    +0.001 C 
ATOM     18  C   UNL     1      35.438 -18.061 -21.479  0.00  0.00    +0.000 C 
ATOM     19  C   UNL     1      34.299 -19.684 -23.053  0.00  0.00    -0.077 C 
ATOM     20  C   UNL     1      35.890 -17.280 -22.711  0.00  0.00    -0.023 C 
ATOM     21  C   UNL     1      34.947 -17.507 -23.890  0.00  0.00    -0.082 C 
ATOM     22  H   UNL     1      34.165 -19.039 -24.982  0.00  0.00    -0.085 HD
ATOM     23  H   UNL     1      35.733 -19.296 -24.438  0.00  0.00    -0.085 HD
ENDBRANCH  10  17
ENDBRANCH   1  13
BRANCH   6  26
ATOM     24  O   UNL     1      28.581 -24.680 -15.646  0.00  0.00    -0.270 OA
ATOM     25  N   UNL     1      29.179 -22.706 -16.647  0.00  0.00    -0.325 N 
ATOM     26  C   UNL     1      29.473 -23.848 -15.900  0.00  0.00    +0.244 C 
ATOM     27  H   UNL     1      28.266 -22.561 -16.986  0.00  0.00    +0.145 HD
ATOM     28  H   UNL     1      29.884 -22.045 -16.834  0.00  0.00    +0.145 HD
ENDBRANCH   6  26
TORSDOF 3
ENDMDL
MODEL 3
REMARK VINA RESULT:     -10.8      3.978      9.195
REMARK  Name = 24958200
REMARK  3 active torsions:
REMARK  status: ('A' for Active; 'I' for Inactive)
REMARK    1  A    between atoms: N_1  and  C_13
REMARK    2  A    between atoms: C_6  and  C_26
REMARK    3  A    between atoms: C_10  and  C_17
REMARK                            x       y       z     vdW  Elec       q    Type
REMARK                         _______ _______ _______ _____ _____    ______ ____
ROOT
ATOM      1  N   UNL     1      34.730 -19.051 -21.557  0.00  0.00    -0.189 N 
ATOM      2  N   UNL     1      34.637 -17.748 -21.229  0.00  0.00    -0.174 NA
ATOM      3  C   UNL     1      34.868 -18.056 -23.468  0.00  0.00    +0.036 C 
ATOM      4  C   UNL     1      34.871 -19.296 -22.892  0.00  0.00    +0.091 C 
ATOM      5  C   UNL     1      34.719 -17.095 -22.402  0.00  0.00    +0.105 C 
ATOM      6  C   UNL     1      34.681 -15.716 -22.683  0.00  0.00    +0.072 C 
ATOM      7  C   UNL     1      34.987 -17.795 -24.826  0.00  0.00    +0.003 C 
ATOM      8  C   UNL     1      34.800 -15.417 -24.058  0.00  0.00    +0.006 C 
ATOM      9  C   UNL     1      34.946 -16.409 -25.078  0.00  0.00    +0.000 C 
ENDROOT
BRANCH   1  13
ATOM     10  C   UNL     1      34.585 -21.972 -18.581  0.00  0.00    -0.024 C 
ATOM     11  C   UNL     1      33.402 -21.443 -19.097  0.00  0.00    -0.003 C 
ATOM     12  C   UNL     1      35.817 -21.524 -19.060  0.00  0.00    -0.003 C 
ATOM     13  C   UNL     1      34.682 -20.018 -20.570  0.00  0.00    +0.074 C 
ATOM     14  C   UNL     1      33.451 -20.466 -20.092  0.00  0.00    +0.016 C 
ATOM     15  C   UNL     1      35.866 -20.548 -20.054  0.00  0.00    +0.016 C 
BRANCH  10  17
ATOM     16  N   UNL     1      35.623 -23.921 -15.453  0.00  0.00    +0.384 N 
ATOM     17  C   UNL     1      34.533 -23.033 -17.497  0.00  0.00    +0.001 C 
ATOM     18  C   UNL     1      33.169 -23.059 -16.789  0.00  0.00    +0.000 C 
ATOM     19  C   UNL     1      35.673 -22.872 -16.474  0.00  0.00    -0.077 C 
ATOM     20  C   UNL     1      33.169 -24.102 -15.674  0.00  0.00    -0.023 C 
ATOM     21  C   UNL     1      34.352 -23.905 -14.729  0.00  0.00    -0.082 C 
ATOM     22  H   UNL     1      36.385 -23.774 -14.790  0.00  0.00    -0.085 HD
ATOM     23  H   UNL     1      35.717 -24.825 -15.917  0.00  0.00    -0.085 HD
ENDBRANCH  10  17
ENDBRANCH   1  13
BRANCH   6  26
ATOM     24  O   UNL     1      34.653 -13.485 -21.930  0.00  0.00    -0.270 OA
ATOM     25  N   UNL     1      34.233 -15.109 -20.367  0.00  0.00    -0.325 N 
ATOM     26  C   UNL     1      34.533 -14.698 -21.665  0.00  0.00    +0.244 C 
ATOM     27  H   UNL     1      34.125 -14.441 -19.651  0.00  0.00    +0.145 HD
ATOM     28  H   UNL     1      34.127 -16.067 -20.165  0.00  0.00    +0.145 HD
ENDBRANCH   6  26
TORSDOF 3
ENDMDL
MODEL 4
REMARK VINA RESULT:     -10.8      2.169      3.219
REMARK  Name = 24958200
REMARK  3 active torsions:
REMARK  status: ('A' for Active; 'I' for Inactive)
REMARK    1  A    between atoms: N_1  and  C_13
REMARK    2  A    between atoms: C_6  and  C_26
REMARK    3  A    between atoms: C_10  and  C_17
REMARK                            x       y       z     vdW  Elec       q    Type
REMARK                         _______ _______ _______ _____ _____    ______ ____
ROOT
ATOM      1  N   UNL     1      33.056 -22.939 -16.702  0.00  0.00    -0.189 N 
ATOM      2  N   UNL     1      33.786 -23.316 -15.634  0.00  0.00    -0.174 NA
ATOM      3  C   UNL     1      31.592 -23.863 -15.412  0.00  0.00    +0.036 C 
ATOM      4  C   UNL     1      31.728 -23.242 -16.623  0.00  0.00    +0.091 C 
ATOM      5  C   UNL     1      32.901 -23.899 -14.805  0.00  0.00    +0.105 C 
ATOM      6  C   UNL     1      33.086 -24.482 -13.538  0.00  0.00    +0.072 C 
ATOM      7  C   UNL     1      30.407 -24.359 -14.886  0.00  0.00    +0.003 C 
ATOM      8  C   UNL     1      31.897 -24.996 -12.975  0.00  0.00    +0.006 C 
ATOM      9  C   UNL     1      30.621 -24.936 -13.619  0.00  0.00    +0.000 C 
ENDROOT
BRANCH   1  13
ATOM     10  C   UNL     1      34.892 -20.995 -19.905  0.00  0.00    -0.024 C 
ATOM     11  C   UNL     1      33.502 -20.992 -19.791  0.00  0.00    -0.003 C 
ATOM     12  C   UNL     1      35.669 -21.648 -18.947  0.00  0.00    -0.003 C 
ATOM     13  C   UNL     1      33.664 -22.295 -17.763  0.00  0.00    +0.074 C 
ATOM     14  C   UNL     1      32.888 -21.642 -18.721  0.00  0.00    +0.016 C 
ATOM     15  C   UNL     1      35.055 -22.298 -17.877  0.00  0.00    +0.016 C 
BRANCH  10  17
ATOM     16  N   UNL     1      35.206 -18.873 -23.077  0.00  0.00    +0.384 N 
ATOM     17  C   UNL     1      35.561 -20.289 -21.071  0.00  0.00    +0.001 C 
ATOM     18  C   UNL     1      36.688 -19.355 -20.602  0.00  0.00    +0.000 C 
ATOM     19  C   UNL     1      34.547 -19.523 -21.942  0.00  0.00    -0.077 C 
ATOM     20  C   UNL     1      37.303 -18.626 -21.794  0.00  0.00    -0.023 C 
ATOM     21  C   UNL     1      36.233 -17.931 -22.633  0.00  0.00    -0.082 C 
ATOM     22  H   UNL     1      34.506 -18.368 -23.621  0.00  0.00    -0.085 HD
ATOM     23  H   UNL     1      35.655 -19.594 -23.643  0.00  0.00    -0.085 HD
ENDBRANCH  10  17
ENDBRANCH   1  13
BRANCH   6  26
ATOM     24  O   UNL     1      34.537 -24.093 -11.725  0.00  0.00    -0.270 OA
ATOM     25  N   UNL     1      35.422 -25.173 -13.543  0.00  0.00    -0.325 N 
ATOM     26  C   UNL     1      34.368 -24.553 -12.872  0.00  0.00    +0.244 C 
ATOM     27  H   UNL     1      36.308 -25.238 -13.117  0.00  0.00    +0.145 HD
ATOM     28  H   UNL     1      35.281 -25.546 -14.443  0.00  0.00    +0.145 HD
ENDBRANCH   6  26
TORSDOF 3
ENDMDL
MODEL 5
REMARK VINA RESULT:     -10.8      4.157      5.389
REMARK  Name = 24958200
REMARK  3 active torsions:
REMARK  status: ('A' for Active; 'I' for Inactive)
REMARK    1  A    between atoms: N_1  and  C_13
REMARK    2  A    between atoms: C_6  and  C_26
REMARK    3  A    between atoms: C_10  and  C_17
REMARK                            x       y       z     vdW  Elec       q    Type
REMARK                         _______ _______ _______ _____ _____    ______ ____
ROOT
ATOM      1  N   UNL     1      35.980 -23.190 -15.524  0.00  0.00    -0.189 N 
ATOM      2  N   UNL     1      36.971 -24.065 -15.267  0.00  0.00    -0.174 NA
ATOM      3  C   UNL     1      35.541 -23.847 -13.516  0.00  0.00    +0.036 C 
ATOM      4  C   UNL     1      35.089 -23.019 -14.504  0.00  0.00    +0.091 C 
ATOM      5  C   UNL     1      36.728 -24.497 -14.016  0.00  0.00    +0.105 C 
ATOM      6  C   UNL     1      37.430 -25.419 -13.218  0.00  0.00    +0.072 C 
ATOM      7  C   UNL     1      34.952 -24.016 -12.270  0.00  0.00    +0.003 C 
ATOM      8  C   UNL     1      36.855 -25.613 -11.943  0.00  0.00    +0.006 C 
ATOM      9  C   UNL     1      35.674 -24.943 -11.493  0.00  0.00    +0.000 C 
ENDROOT
BRANCH   1  13
ATOM     10  C   UNL     1      35.815 -21.246 -19.213  0.00  0.00    -0.024 C 
ATOM     11  C   UNL     1      36.976 -21.183 -18.442  0.00  0.00    -0.003 C 
ATOM     12  C   UNL     1      34.709 -21.960 -18.750  0.00  0.00    -0.003 C 
ATOM     13  C   UNL     1      35.925 -22.545 -16.746  0.00  0.00    +0.074 C 
ATOM     14  C   UNL     1      37.031 -21.832 -17.209  0.00  0.00    +0.016 C 
ATOM     15  C   UNL     1      34.764 -22.609 -17.517  0.00  0.00    +0.016 C 
BRANCH  10  17
ATOM     16  N   UNL     1      34.305 -19.317 -22.156  0.00  0.00    +0.384 N 
ATOM     17  C   UNL     1      35.754 -20.538 -20.554  0.00  0.00    +0.001 C 
ATOM     18  C   UNL     1      36.819 -19.435 -20.666  0.00  0.00    +0.000 C 
ATOM     19  C   UNL     1      34.352 -19.971 -20.846  0.00  0.00    -0.077 C 
ATOM     20  C   UNL     1      36.696 -18.712 -22.005  0.00  0.00    -0.023 C 
ATOM     21  C   UNL     1      35.270 -18.222 -22.243  0.00  0.00    -0.082 C 
ATOM     22  H   UNL     1      33.367 -18.946 -22.307  0.00  0.00    -0.085 HD
ATOM     23  H   UNL     1      34.540 -20.009 -22.868  0.00  0.00    -0.085 HD
ENDBRANCH  10  17
ENDBRANCH   1  13
BRANCH   6  26
ATOM     24  O   UNL     1      38.572 -27.218 -14.221  0.00  0.00    -0.270 OA
ATOM     25  N   UNL     1      39.855 -25.483 -13.446  0.00  0.00    -0.325 N 
ATOM     26  C   UNL     1      38.625 -26.107 -13.656  0.00  0.00    +0.244 C 
ATOM     27  H   UNL     1      40.687 -25.924 -13.732  0.00  0.00    +0.145 HD
ATOM     28  H   UNL     1      39.891 -24.600 -13.011  0.00  0.00    +0.145 HD
ENDBRANCH   6  26
TORSDOF 3
ENDMDL
MODEL 6
REMARK VINA RESULT:     -10.5      8.341     12.501
REMARK  Name = 24958200
REMARK  3 active torsions:
REMARK  status: ('A' for Active; 'I' for Inactive)
REMARK    1  A    between atoms: N_1  and  C_13
REMARK    2  A    between atoms: C_6  and  C_26
REMARK    3  A    between atoms: C_10  and  C_17
REMARK                            x       y       z     vdW  Elec       q    Type
REMARK                         _______ _______ _______ _____ _____    ______ ____
ROOT
ATOM      1  N   UNL     1      33.506 -13.180 -23.213  0.00  0.00    -0.189 N 
ATOM      2  N   UNL     1      33.891 -14.045 -22.255  0.00  0.00    -0.174 NA
ATOM      3  C   UNL     1      34.070 -14.934 -24.338  0.00  0.00    +0.036 C 
ATOM      4  C   UNL     1      33.593 -13.662 -24.486  0.00  0.00    +0.091 C 
ATOM      5  C   UNL     1      34.251 -15.156 -22.923  0.00  0.00    +0.105 C 
ATOM      6  C   UNL     1      34.736 -16.388 -22.449  0.00  0.00    +0.072 C 
ATOM      7  C   UNL     1      34.325 -15.828 -25.369  0.00  0.00    +0.003 C 
ATOM      8  C   UNL     1      35.006 -17.321 -23.475  0.00  0.00    +0.006 C 
ATOM      9  C   UNL     1      34.809 -17.052 -24.866  0.00  0.00    +0.000 C 
ENDROOT
BRANCH   1  13
ATOM     10  C   UNL     1      32.175  -9.365 -22.170  0.00  0.00    -0.024 C 
ATOM     11  C   UNL     1      33.132  -9.521 -23.173  0.00  0.00    -0.003 C 
ATOM     12  C   UNL     1      31.662 -10.486 -21.516  0.00  0.00    -0.003 C 
ATOM     13  C   UNL     1      33.066 -11.916 -22.867  0.00  0.00    +0.074 C 
ATOM     14  C   UNL     1      33.578 -10.795 -23.521  0.00  0.00    +0.016 C 
ATOM     15  C   UNL     1      32.107 -11.761 -21.864  0.00  0.00    +0.016 C 
BRANCH  10  17
ATOM     16  N   UNL     1      32.317  -5.805 -20.768  0.00  0.00    +0.384 N 
ATOM     17  C   UNL     1      31.691  -7.978 -21.790  0.00  0.00    +0.001 C 
ATOM     18  C   UNL     1      31.067  -7.243 -22.987  0.00  0.00    +0.000 C 
ATOM     19  C   UNL     1      32.809  -7.129 -21.154  0.00  0.00    -0.077 C 
ATOM     20  C   UNL     1      30.638  -5.835 -22.581  0.00  0.00    -0.023 C 
ATOM     21  C   UNL     1      31.784  -5.075 -21.918  0.00  0.00    -0.082 C 
ATOM     22  H   UNL     1      33.086  -5.271 -20.363  0.00  0.00    -0.085 HD
ATOM     23  H   UNL     1      31.564  -5.928 -20.090  0.00  0.00    -0.085 HD
ENDBRANCH  10  17
ENDBRANCH   1  13
BRANCH   6  26
ATOM     24  O   UNL     1      35.671 -17.620 -20.673  0.00  0.00    -0.270 OA
ATOM     25  N   UNL     1      34.314 -15.860 -20.109  0.00  0.00    -0.325 N 
ATOM     26  C   UNL     1      34.943 -16.679 -21.047  0.00  0.00    +0.244 C 
ATOM     27  H   UNL     1      34.434 -16.031 -19.146  0.00  0.00    +0.145 HD
ATOM     28  H   UNL     1      33.750 -15.111 -20.408  0.00  0.00    +0.145 HD
ENDBRANCH   6  26
TORSDOF 3
ENDMDL
MODEL 7
REMARK VINA RESULT:     -10.4      9.604     14.419
REMARK  Name = 24958200
REMARK  3 active torsions:
REMARK  status: ('A' for Active; 'I' for Inactive)
REMARK    1  A    between atoms: N_1  and  C_13
REMARK    2  A    between atoms: C_6  and  C_26
REMARK    3  A    between atoms: C_10  and  C_17
REMARK                            x       y       z     vdW  Elec       q    Type
REMARK                         _______ _______ _______ _____ _____    ______ ____
ROOT
ATOM      1  N   UNL     1      32.693  -9.841 -22.784  0.00  0.00    -0.189 N 
ATOM      2  N   UNL     1      33.609  -8.984 -23.275  0.00  0.00    -0.174 NA
ATOM      3  C   UNL     1      31.690  -7.933 -22.665  0.00  0.00    +0.036 C 
ATOM      4  C   UNL     1      31.518  -9.263 -22.401  0.00  0.00    +0.091 C 
ATOM      5  C   UNL     1      33.015  -7.779 -23.215  0.00  0.00    +0.105 C 
ATOM      6  C   UNL     1      33.490  -6.509 -23.592  0.00  0.00    +0.072 C 
ATOM      7  C   UNL     1      30.752  -6.935 -22.437  0.00  0.00    +0.003 C 
ATOM      8  C   UNL     1      32.558  -5.470 -23.373  0.00  0.00    +0.006 C 
ATOM      9  C   UNL     1      31.253  -5.676 -22.822  0.00  0.00    +0.000 C 
ENDROOT
BRANCH   1  13
ATOM     10  C   UNL     1      33.562 -13.915 -22.539  0.00  0.00    -0.024 C 
ATOM     11  C   UNL     1      32.659 -13.339 -21.645  0.00  0.00    -0.003 C 
ATOM     12  C   UNL     1      34.175 -13.128 -23.515  0.00  0.00    -0.003 C 
ATOM     13  C   UNL     1      32.982 -11.190 -22.702  0.00  0.00    +0.074 C 
ATOM     14  C   UNL     1      32.369 -11.977 -21.727  0.00  0.00    +0.016 C 
ATOM     15  C   UNL     1      33.885 -11.767 -23.597  0.00  0.00    +0.016 C 
BRANCH  10  17
ATOM     16  N   UNL     1      34.939 -17.331 -23.585  0.00  0.00    +0.384 N 
ATOM     17  C   UNL     1      33.880 -15.396 -22.449  0.00  0.00    +0.001 C 
ATOM     18  C   UNL     1      34.626 -15.742 -21.150  0.00  0.00    +0.000 C 
ATOM     19  C   UNL     1      34.666 -15.895 -23.676  0.00  0.00    -0.077 C 
ATOM     20  C   UNL     1      34.972 -17.229 -21.116  0.00  0.00    -0.023 C 
ATOM     21  C   UNL     1      35.708 -17.656 -22.384  0.00  0.00    -0.082 C 
ATOM     22  H   UNL     1      35.469 -17.620 -24.407  0.00  0.00    -0.085 HD
ATOM     23  H   UNL     1      34.046 -17.824 -23.537  0.00  0.00    -0.085 HD
ENDBRANCH  10  17
ENDBRANCH   1  13
BRANCH   6  26
ATOM     24  O   UNL     1      34.985  -5.507 -25.110  0.00  0.00    -0.270 OA
ATOM     25  N   UNL     1      35.887  -6.942 -23.566  0.00  0.00    -0.325 N 
ATOM     26  C   UNL     1      34.805  -6.281 -24.149  0.00  0.00    +0.244 C 
ATOM     27  H   UNL     1      36.796  -6.808 -23.921  0.00  0.00    +0.145 HD
ATOM     28  H   UNL     1      35.742  -7.541 -22.799  0.00  0.00    +0.145 HD
ENDBRANCH   6  26
TORSDOF 3
ENDMDL
MODEL 8
REMARK VINA RESULT:     -10.4      2.668      3.572
REMARK  Name = 24958200
REMARK  3 active torsions:
REMARK  status: ('A' for Active; 'I' for Inactive)
REMARK    1  A    between atoms: N_1  and  C_13
REMARK    2  A    between atoms: C_6  and  C_26
REMARK    3  A    between atoms: C_10  and  C_17
REMARK                            x       y       z     vdW  Elec       q    Type
REMARK                         _______ _______ _______ _____ _____    ______ ____
ROOT
ATOM      1  N   UNL     1      35.828 -22.910 -15.926  0.00  0.00    -0.189 N 
ATOM      2  N   UNL     1      34.668 -23.159 -15.288  0.00  0.00    -0.174 NA
ATOM      3  C   UNL     1      36.470 -23.886 -14.111  0.00  0.00    +0.036 C 
ATOM      4  C   UNL     1      36.946 -23.326 -15.264  0.00  0.00    +0.091 C 
ATOM      5  C   UNL     1      35.032 -23.770 -14.146  0.00  0.00    +0.105 C 
ATOM      6  C   UNL     1      34.248 -24.262 -13.086  0.00  0.00    +0.072 C 
ATOM      7  C   UNL     1      37.244 -24.453 -13.107  0.00  0.00    +0.003 C 
ATOM      8  C   UNL     1      35.007 -24.847 -12.048  0.00  0.00    +0.006 C 
ATOM      9  C   UNL     1      36.435 -24.937 -12.060  0.00  0.00    +0.000 C 
ENDROOT
BRANCH   1  13
ATOM     10  C   UNL     1      35.803 -21.007 -19.640  0.00  0.00    -0.024 C 
ATOM     11  C   UNL     1      36.953 -20.983 -18.851  0.00  0.00    -0.003 C 
ATOM     12  C   UNL     1      34.660 -21.669 -19.187  0.00  0.00    -0.003 C 
ATOM     13  C   UNL     1      35.820 -22.279 -17.156  0.00  0.00    +0.074 C 
ATOM     14  C   UNL     1      36.962 -21.618 -17.610  0.00  0.00    +0.016 C 
ATOM     15  C   UNL     1      34.669 -22.304 -17.946  0.00  0.00    +0.016 C 
BRANCH  10  17
ATOM     16  N   UNL     1      34.385 -19.212 -22.710  0.00  0.00    +0.384 N 
ATOM     17  C   UNL     1      35.793 -20.314 -20.990  0.00  0.00    +0.001 C 
ATOM     18  C   UNL     1      36.781 -19.138 -21.035  0.00  0.00    +0.000 C 
ATOM     19  C   UNL     1      34.380 -19.852 -21.393  0.00  0.00    -0.077 C 
ATOM     20  C   UNL     1      36.708 -18.434 -22.388  0.00  0.00    -0.023 C 
ATOM     21  C   UNL     1      35.273 -18.050 -22.738  0.00  0.00    -0.082 C 
ATOM     22  H   UNL     1      33.437 -18.911 -22.936  0.00  0.00    -0.085 HD
ATOM     23  H   UNL     1      34.722 -19.889 -23.394  0.00  0.00    -0.085 HD
ENDBRANCH  10  17
ENDBRANCH   1  13
BRANCH   6  26
ATOM     24  O   UNL     1      32.098 -25.165 -12.762  0.00  0.00    -0.270 OA
ATOM     25  N   UNL     1      32.212 -22.951 -13.348  0.00  0.00    -0.325 N 
ATOM     26  C   UNL     1      32.804 -24.180 -13.055  0.00  0.00    +0.244 C 
ATOM     27  H   UNL     1      31.231 -22.861 -13.336  0.00  0.00    +0.145 HD
ATOM     28  H   UNL     1      32.774 -22.173 -13.567  0.00  0.00    +0.145 HD
ENDBRANCH   6  26
TORSDOF 3
ENDMDL
MODEL 9
REMARK VINA RESULT:     -10.3      2.629      3.761
REMARK  Name = 24958200
REMARK  3 active torsions:
REMARK  status: ('A' for Active; 'I' for Inactive)
REMARK    1  A    between atoms: N_1  and  C_13
REMARK    2  A    between atoms: C_6  and  C_26
REMARK    3  A    between atoms: C_10  and  C_17
REMARK                            x       y       z     vdW  Elec       q    Type
REMARK                         _______ _______ _______ _____ _____    ______ ____
ROOT
ATOM      1  N   UNL     1      33.746 -22.466 -17.449  0.00  0.00    -0.189 N 
ATOM      2  N   UNL     1      34.678 -22.958 -16.610  0.00  0.00    -0.174 NA
ATOM      3  C   UNL     1      32.569 -23.511 -15.973  0.00  0.00    +0.036 C 
ATOM      4  C   UNL     1      32.458 -22.768 -17.114  0.00  0.00    +0.091 C 
ATOM      5  C   UNL     1      33.976 -23.620 -15.673  0.00  0.00    +0.105 C 
ATOM      6  C   UNL     1      34.414 -24.335 -14.542  0.00  0.00    +0.072 C 
ATOM      7  C   UNL     1      31.511 -24.052 -15.253  0.00  0.00    +0.003 C 
ATOM      8  C   UNL     1      33.360 -24.898 -13.788  0.00  0.00    +0.006 C 
ATOM      9  C   UNL     1      31.977 -24.762 -14.129  0.00  0.00    +0.000 C 
ENDROOT
BRANCH   1  13
ATOM     10  C   UNL     1      34.902 -20.207 -20.761  0.00  0.00    -0.024 C 
ATOM     11  C   UNL     1      33.553 -20.312 -20.426  0.00  0.00    -0.003 C 
ATOM     12  C   UNL     1      35.866 -20.856 -19.989  0.00  0.00    -0.003 C 
ATOM     13  C   UNL     1      34.129 -21.718 -18.547  0.00  0.00    +0.074 C 
ATOM     14  C   UNL     1      33.166 -21.068 -19.319  0.00  0.00    +0.016 C 
ATOM     15  C   UNL     1      35.480 -21.612 -18.882  0.00  0.00    +0.016 C 
BRANCH  10  17
ATOM     16  N   UNL     1      34.850 -18.857 -24.345  0.00  0.00    +0.384 N 
ATOM     17  C   UNL     1      35.324 -19.386 -21.967  0.00  0.00    +0.001 C 
ATOM     18  C   UNL     1      35.393 -17.886 -21.640  0.00  0.00    +0.000 C 
ATOM     19  C   UNL     1      34.412 -19.635 -23.183  0.00  0.00    -0.077 C 
ATOM     20  C   UNL     1      35.770 -17.088 -22.886  0.00  0.00    -0.023 C 
ATOM     21  C   UNL     1      34.853 -17.423 -24.059  0.00  0.00    -0.082 C 
ATOM     22  H   UNL     1      34.218 -19.040 -25.124  0.00  0.00    -0.085 HD
ATOM     23  H   UNL     1      35.803 -19.140 -24.578  0.00  0.00    -0.085 HD
ENDBRANCH  10  17
ENDBRANCH   1  13
BRANCH   6  26
ATOM     24  O   UNL     1      36.239 -25.529 -13.656  0.00  0.00    -0.270 OA
ATOM     25  N   UNL     1      36.672 -23.425 -14.457  0.00  0.00    -0.325 N 
ATOM     26  C   UNL     1      35.807 -24.484 -14.182  0.00  0.00    +0.244 C 
ATOM     27  H   UNL     1      37.626 -23.495 -14.224  0.00  0.00    +0.145 HD
ATOM     28  H   UNL     1      36.328 -22.607 -14.884  0.00  0.00    +0.145 HD
ENDBRANCH   6  26
TORSDOF 3
ENDMDL
