MODEL 1
REMARK VINA RESULT:     -12.0      0.000      0.000
REMARK  Name = 16048422
REMARK  11 active torsions:
REMARK  status: ('A' for Active; 'I' for Inactive)
REMARK    1  A    between atoms: C_1  and  C_4
REMARK    2  A    between atoms: C_1  and  N_18
REMARK    3  A    between atoms: C_1  and  C_33
REMARK    4  A    between atoms: N_3  and  C_6
REMARK    5  A    between atoms: C_6  and  C_9
REMARK    6  A    between atoms: C_9  and  C_11
REMARK    7  A    between atoms: C_19  and  C_21
REMARK    8  A    between atoms: C_24  and  C_27
REMARK    9  A    between atoms: C_33  and  C_34
REMARK   10  A    between atoms: C_34  and  C_36
REMARK   11  A    between atoms: C_36  and  O_37
REMARK                            x       y       z     vdW  Elec       q    Type
REMARK                         _______ _______ _______ _____ _____    ______ ____
ROOT
ATOM      1  C   UNL     1      34.884 -24.192 -15.702  0.00  0.00    +0.149 C 
ENDROOT
BRANCH   1   4
ATOM      2  O   UNL     1      33.894 -23.216 -13.723  0.00  0.00    -0.273 OA
ATOM      3  N   UNL     1      32.503 -24.242 -15.273  0.00  0.00    -0.306 N 
ATOM      4  C   UNL     1      33.728 -23.812 -14.785  0.00  0.00    +0.240 C 
ATOM      5  H   UNL     1      32.482 -24.712 -16.138  0.00  0.00    +0.149 HD
BRANCH   3   6
ATOM      6  C   UNL     1      31.256 -24.034 -14.573  0.00  0.00    +0.061 C 
ATOM      7  C   UNL     1      31.382 -24.579 -13.142  0.00  0.00    +0.020 C 
ATOM      8  C   UNL     1      30.998 -22.520 -14.500  0.00  0.00    +0.020 C 
BRANCH   6   9
ATOM      9  C   UNL     1      30.082 -24.697 -15.340  0.00  0.00    +0.044 C 
BRANCH   9  11
ATOM     10  F   UNL     1      25.749 -21.320 -16.620  0.00  0.00    -0.204 F 
ATOM     11  C   UNL     1      28.920 -23.792 -15.683  0.00  0.00    -0.020 C 
ATOM     12  C   UNL     1      28.545 -23.613 -17.015  0.00  0.00    -0.002 C 
ATOM     13  C   UNL     1      28.225 -23.135 -14.668  0.00  0.00    -0.002 C 
ATOM     14  C   UNL     1      27.474 -22.779 -17.331  0.00  0.00    +0.029 C 
ATOM     15  C   UNL     1      27.153 -22.301 -14.985  0.00  0.00    +0.029 C 
ATOM     16  C   UNL     1      26.778 -22.122 -16.316  0.00  0.00    +0.140 C 
ENDBRANCH   9  11
ENDBRANCH   6   9
ENDBRANCH   3   6
ENDBRANCH   1   4
BRANCH   1  18
ATOM     17  O   UNL     1      33.358 -24.132 -18.133  0.00  0.00    -0.270 OA
ATOM     18  N   UNL     1      34.924 -23.170 -16.719  0.00  0.00    -0.295 N 
ATOM     19  C   UNL     1      34.145 -23.229 -17.866  0.00  0.00    +0.246 C 
ATOM     20  H   UNL     1      35.527 -22.403 -16.596  0.00  0.00    +0.150 HD
BRANCH  19  21
ATOM     21  C   UNL     1      34.323 -22.112 -18.830  0.00  0.00    +0.053 C 
ATOM     22  C   UNL     1      33.209 -21.442 -19.334  0.00  0.00    +0.005 C 
ATOM     23  C   UNL     1      35.605 -21.734 -19.229  0.00  0.00    +0.005 C 
ATOM     24  C   UNL     1      34.658 -20.016 -20.640  0.00  0.00    +0.000 C 
ATOM     25  C   UNL     1      33.377 -20.394 -20.240  0.00  0.00    +0.000 C 
ATOM     26  C   UNL     1      35.773 -20.686 -20.135  0.00  0.00    +0.000 C 
BRANCH  24  27
ATOM     27  C   UNL     1      34.833 -18.929 -21.578  0.00  0.00    +0.000 C 
ATOM     28  C   UNL     1      34.785 -19.178 -22.950  0.00  0.00    +0.000 C 
ATOM     29  C   UNL     1      35.047 -17.632 -21.112  0.00  0.00    +0.000 C 
ATOM     30  C   UNL     1      34.952 -18.129 -23.855  0.00  0.00    +0.000 C 
ATOM     31  C   UNL     1      35.214 -16.584 -22.018  0.00  0.00    +0.000 C 
ATOM     32  C   UNL     1      35.167 -16.833 -23.389  0.00  0.00    +0.000 C 
ENDBRANCH  24  27
ENDBRANCH  19  21
ENDBRANCH   1  18
BRANCH   1  33
ATOM     33  C   UNL     1      36.215 -24.255 -14.943  0.00  0.00    +0.041 C 
BRANCH  33  34
ATOM     34  C   UNL     1      36.399 -25.517 -14.098  0.00  0.00    +0.112 C 
BRANCH  34  36
ATOM     35  O   UNL     1      38.372 -26.926 -14.342  0.00  0.00    -0.250 OA
ATOM     36  C   UNL     1      37.283 -26.554 -14.756  0.00  0.00    +0.314 C 
BRANCH  36  37
ATOM     37  O   UNL     1      36.703 -27.063 -15.875  0.00  0.00    -0.480 OA
ATOM     38  H   UNL     1      36.564 -26.515 -16.622  0.00  0.00    +0.295 HD
ENDBRANCH  36  37
ENDBRANCH  34  36
ENDBRANCH  33  34
ENDBRANCH   1  33
TORSDOF 11
ENDMDL
MODEL 2
REMARK VINA RESULT:     -11.1      3.479      6.944
REMARK  Name = 16048422
REMARK  11 active torsions:
REMARK  status: ('A' for Active; 'I' for Inactive)
REMARK    1  A    between atoms: C_1  and  C_4
REMARK    2  A    between atoms: C_1  and  N_18
REMARK    3  A    between atoms: C_1  and  C_33
REMARK    4  A    between atoms: N_3  and  C_6
REMARK    5  A    between atoms: C_6  and  C_9
REMARK    6  A    between atoms: C_9  and  C_11
REMARK    7  A    between atoms: C_19  and  C_21
REMARK    8  A    between atoms: C_24  and  C_27
REMARK    9  A    between atoms: C_33  and  C_34
REMARK   10  A    between atoms: C_34  and  C_36
REMARK   11  A    between atoms: C_36  and  O_37
REMARK                            x       y       z     vdW  Elec       q    Type
REMARK                         _______ _______ _______ _____ _____    ______ ____
ROOT
ATOM      1  C   UNL     1      31.492 -23.276 -14.828  0.00  0.00    +0.149 C 
ENDROOT
BRANCH   1   4
ATOM      2  O   UNL     1      32.324 -25.278 -13.756  0.00  0.00    -0.273 OA
ATOM      3  N   UNL     1      33.795 -23.520 -14.127  0.00  0.00    -0.306 N 
ATOM      4  C   UNL     1      32.562 -24.152 -14.188  0.00  0.00    +0.240 C 
ATOM      5  H   UNL     1      33.876 -22.614 -14.504  0.00  0.00    +0.149 HD
BRANCH   3   6
ATOM      6  C   UNL     1      34.966 -24.126 -13.536  0.00  0.00    +0.061 C 
ATOM      7  C   UNL     1      34.736 -24.305 -12.027  0.00  0.00    +0.020 C 
ATOM      8  C   UNL     1      35.154 -25.515 -14.170  0.00  0.00    +0.020 C 
BRANCH   6   9
ATOM      9  C   UNL     1      36.229 -23.276 -13.829  0.00  0.00    +0.044 C 
BRANCH   9  11
ATOM     10  F   UNL     1      41.102 -26.104 -14.097  0.00  0.00    -0.204 F 
ATOM     11  C   UNL     1      37.536 -24.034 -13.901  0.00  0.00    -0.020 C 
ATOM     12  C   UNL     1      37.987 -24.751 -12.793  0.00  0.00    -0.002 C 
ATOM     13  C   UNL     1      38.288 -24.015 -15.075  0.00  0.00    -0.002 C 
ATOM     14  C   UNL     1      39.192 -25.451 -12.860  0.00  0.00    +0.029 C 
ATOM     15  C   UNL     1      39.493 -24.715 -15.141  0.00  0.00    +0.029 C 
ATOM     16  C   UNL     1      39.945 -25.433 -14.033  0.00  0.00    +0.140 C 
ENDBRANCH   9  11
ENDBRANCH   6   9
ENDBRANCH   3   6
ENDBRANCH   1   4
BRANCH   1  18
ATOM     17  O   UNL     1      33.078 -24.475 -16.898  0.00  0.00    -0.270 OA
ATOM     18  N   UNL     1      32.149 -22.592 -15.914  0.00  0.00    -0.295 N 
ATOM     19  C   UNL     1      32.897 -23.261 -16.872  0.00  0.00    +0.246 C 
ATOM     20  H   UNL     1      32.063 -21.614 -15.979  0.00  0.00    +0.150 HD
BRANCH  19  21
ATOM     21  C   UNL     1      33.534 -22.410 -17.910  0.00  0.00    +0.053 C 
ATOM     22  C   UNL     1      34.922 -22.392 -18.043  0.00  0.00    +0.005 C 
ATOM     23  C   UNL     1      32.742 -21.630 -18.753  0.00  0.00    +0.005 C 
ATOM     24  C   UNL     1      34.727 -20.812 -19.861  0.00  0.00    +0.000 C 
ATOM     25  C   UNL     1      35.519 -21.592 -19.018  0.00  0.00    +0.000 C 
ATOM     26  C   UNL     1      33.339 -20.831 -19.729  0.00  0.00    +0.000 C 
BRANCH  24  27
ATOM     27  C   UNL     1      35.346 -19.983 -20.872  0.00  0.00    +0.000 C 
ATOM     28  C   UNL     1      36.640 -19.499 -20.682  0.00  0.00    +0.000 C 
ATOM     29  C   UNL     1      34.649 -19.670 -22.040  0.00  0.00    +0.000 C 
ATOM     30  C   UNL     1      37.237 -18.701 -21.658  0.00  0.00    +0.000 C 
ATOM     31  C   UNL     1      35.246 -18.871 -23.015  0.00  0.00    +0.000 C 
ATOM     32  C   UNL     1      36.540 -18.387 -22.824  0.00  0.00    +0.000 C 
ENDBRANCH  24  27
ENDBRANCH  19  21
ENDBRANCH   1  18
BRANCH   1  33
ATOM     33  C   UNL     1      30.311 -24.106 -15.345  0.00  0.00    +0.041 C 
BRANCH  33  34
ATOM     34  C   UNL     1      28.951 -23.417 -15.213  0.00  0.00    +0.112 C 
BRANCH  34  36
ATOM     35  O   UNL     1      27.758 -24.195 -17.190  0.00  0.00    -0.250 OA
ATOM     36  C   UNL     1      28.222 -23.275 -16.531  0.00  0.00    +0.314 C 
BRANCH  36  37
ATOM     37  O   UNL     1      28.111 -21.972 -16.900  0.00  0.00    -0.480 OA
ATOM     38  H   UNL     1      28.227 -21.293 -16.265  0.00  0.00    +0.295 HD
ENDBRANCH  36  37
ENDBRANCH  34  36
ENDBRANCH  33  34
ENDBRANCH   1  33
TORSDOF 11
ENDMDL
MODEL 3
REMARK VINA RESULT:     -11.1      1.168      2.052
REMARK  Name = 16048422
REMARK  11 active torsions:
REMARK  status: ('A' for Active; 'I' for Inactive)
REMARK    1  A    between atoms: C_1  and  C_4
REMARK    2  A    between atoms: C_1  and  N_18
REMARK    3  A    between atoms: C_1  and  C_33
REMARK    4  A    between atoms: N_3  and  C_6
REMARK    5  A    between atoms: C_6  and  C_9
REMARK    6  A    between atoms: C_9  and  C_11
REMARK    7  A    between atoms: C_19  and  C_21
REMARK    8  A    between atoms: C_24  and  C_27
REMARK    9  A    between atoms: C_33  and  C_34
REMARK   10  A    between atoms: C_34  and  C_36
REMARK   11  A    between atoms: C_36  and  O_37
REMARK                            x       y       z     vdW  Elec       q    Type
REMARK                         _______ _______ _______ _____ _____    ______ ____
ROOT
ATOM      1  C   UNL     1      36.030 -23.890 -15.709  0.00  0.00    +0.149 C 
ENDROOT
BRANCH   1   4
ATOM      2  O   UNL     1      35.163 -22.374 -14.036  0.00  0.00    -0.273 OA
ATOM      3  N   UNL     1      34.025 -24.358 -14.437  0.00  0.00    -0.306 N 
ATOM      4  C   UNL     1      35.038 -23.434 -14.646  0.00  0.00    +0.240 C 
ATOM      5  H   UNL     1      34.020 -25.179 -14.982  0.00  0.00    +0.149 HD
BRANCH   3   6
ATOM      6  C   UNL     1      32.979 -24.176 -13.457  0.00  0.00    +0.061 C 
ATOM      7  C   UNL     1      31.987 -25.346 -13.553  0.00  0.00    +0.020 C 
ATOM      8  C   UNL     1      33.625 -24.194 -12.062  0.00  0.00    +0.020 C 
BRANCH   6   9
ATOM      9  C   UNL     1      32.276 -22.808 -13.656  0.00  0.00    +0.044 C 
BRANCH   9  11
ATOM     10  F   UNL     1      27.869 -22.785 -17.177  0.00  0.00    -0.204 F 
ATOM     11  C   UNL     1      31.094 -22.802 -14.600  0.00  0.00    -0.020 C 
ATOM     12  C   UNL     1      31.304 -22.792 -15.979  0.00  0.00    -0.002 C 
ATOM     13  C   UNL     1      29.796 -22.805 -14.091  0.00  0.00    -0.002 C 
ATOM     14  C   UNL     1      30.214 -22.787 -16.850  0.00  0.00    +0.029 C 
ATOM     15  C   UNL     1      28.706 -22.801 -14.962  0.00  0.00    +0.029 C 
ATOM     16  C   UNL     1      28.915 -22.791 -16.341  0.00  0.00    +0.140 C 
ENDBRANCH   9  11
ENDBRANCH   6   9
ENDBRANCH   3   6
ENDBRANCH   1   4
BRANCH   1  18
ATOM     17  O   UNL     1      33.869 -23.704 -17.591  0.00  0.00    -0.270 OA
ATOM     18  N   UNL     1      35.907 -22.941 -16.788  0.00  0.00    -0.295 N 
ATOM     19  C   UNL     1      34.819 -22.928 -17.650  0.00  0.00    +0.246 C 
ATOM     20  H   UNL     1      36.620 -22.276 -16.917  0.00  0.00    +0.150 HD
BRANCH  19  21
ATOM     21  C   UNL     1      34.855 -21.905 -18.726  0.00  0.00    +0.053 C 
ATOM     22  C   UNL     1      36.079 -21.420 -19.187  0.00  0.00    +0.005 C 
ATOM     23  C   UNL     1      33.665 -21.430 -19.276  0.00  0.00    +0.005 C 
ATOM     24  C   UNL     1      34.921 -19.984 -20.747  0.00  0.00    +0.000 C 
ATOM     25  C   UNL     1      36.112 -20.458 -20.197  0.00  0.00    +0.000 C 
ATOM     26  C   UNL     1      33.697 -20.469 -20.287  0.00  0.00    +0.000 C 
BRANCH  24  27
ATOM     27  C   UNL     1      34.955 -18.987 -21.795  0.00  0.00    +0.000 C 
ATOM     28  C   UNL     1      35.198 -17.650 -21.480  0.00  0.00    +0.000 C 
ATOM     29  C   UNL     1      34.747 -19.363 -23.123  0.00  0.00    +0.000 C 
ATOM     30  C   UNL     1      35.232 -16.690 -22.491  0.00  0.00    +0.000 C 
ATOM     31  C   UNL     1      34.780 -18.401 -24.133  0.00  0.00    +0.000 C 
ATOM     32  C   UNL     1      35.023 -17.065 -23.817  0.00  0.00    +0.000 C 
ENDBRANCH  24  27
ENDBRANCH  19  21
ENDBRANCH   1  18
BRANCH   1  33
ATOM     33  C   UNL     1      37.466 -23.919 -15.173  0.00  0.00    +0.041 C 
BRANCH  33  34
ATOM     34  C   UNL     1      37.674 -24.849 -13.976  0.00  0.00    +0.112 C 
BRANCH  34  36
ATOM     35  O   UNL     1      36.800 -27.060 -14.512  0.00  0.00    -0.250 OA
ATOM     36  C   UNL     1      37.755 -26.310 -14.361  0.00  0.00    +0.314 C 
BRANCH  36  37
ATOM     37  O   UNL     1      39.041 -26.702 -14.555  0.00  0.00    -0.480 OA
ATOM     38  H   UNL     1      39.277 -27.603 -14.459  0.00  0.00    +0.295 HD
ENDBRANCH  36  37
ENDBRANCH  34  36
ENDBRANCH  33  34
ENDBRANCH   1  33
TORSDOF 11
ENDMDL
MODEL 4
REMARK VINA RESULT:     -11.0      5.827     10.975
REMARK  Name = 16048422
REMARK  11 active torsions:
REMARK  status: ('A' for Active; 'I' for Inactive)
REMARK    1  A    between atoms: C_1  and  C_4
REMARK    2  A    between atoms: C_1  and  N_18
REMARK    3  A    between atoms: C_1  and  C_33
REMARK    4  A    between atoms: N_3  and  C_6
REMARK    5  A    between atoms: C_6  and  C_9
REMARK    6  A    between atoms: C_9  and  C_11
REMARK    7  A    between atoms: C_19  and  C_21
REMARK    8  A    between atoms: C_24  and  C_27
REMARK    9  A    between atoms: C_33  and  C_34
REMARK   10  A    between atoms: C_34  and  C_36
REMARK   11  A    between atoms: C_36  and  O_37
REMARK                            x       y       z     vdW  Elec       q    Type
REMARK                         _______ _______ _______ _____ _____    ______ ____
ROOT
ATOM      1  C   UNL     1      35.290 -16.812 -22.988  0.00  0.00    +0.149 C 
ENDROOT
BRANCH   1   4
ATOM      2  O   UNL     1      35.303 -14.404 -22.761  0.00  0.00    -0.273 OA
ATOM      3  N   UNL     1      33.762 -15.630 -21.531  0.00  0.00    -0.306 N 
ATOM      4  C   UNL     1      34.799 -15.478 -22.440  0.00  0.00    +0.240 C 
ATOM      5  H   UNL     1      33.432 -16.539 -21.345  0.00  0.00    +0.149 HD
BRANCH   3   6
ATOM      6  C   UNL     1      33.143 -14.520 -20.844  0.00  0.00    +0.061 C 
ATOM      7  C   UNL     1      32.251 -15.058 -19.715  0.00  0.00    +0.020 C 
ATOM      8  C   UNL     1      34.259 -13.664 -20.222  0.00  0.00    +0.020 C 
BRANCH   6   9
ATOM      9  C   UNL     1      32.344 -13.639 -21.839  0.00  0.00    +0.044 C 
BRANCH   9  11
ATOM     10  F   UNL     1      31.606  -8.255 -20.327  0.00  0.00    -0.204 F 
ATOM     11  C   UNL     1      32.146 -12.195 -21.434  0.00  0.00    -0.020 C 
ATOM     12  C   UNL     1      32.548 -11.169 -22.290  0.00  0.00    -0.002 C 
ATOM     13  C   UNL     1      31.562 -11.890 -20.205  0.00  0.00    -0.002 C 
ATOM     14  C   UNL     1      32.364  -9.838 -21.916  0.00  0.00    +0.029 C 
ATOM     15  C   UNL     1      31.379 -10.559 -19.831  0.00  0.00    +0.029 C 
ATOM     16  C   UNL     1      31.781  -9.533 -20.687  0.00  0.00    +0.140 C 
ENDBRANCH   9  11
ENDBRANCH   6   9
ENDBRANCH   3   6
ENDBRANCH   1   4
BRANCH   1  18
ATOM     17  O   UNL     1      35.267 -19.671 -23.254  0.00  0.00    -0.270 OA
ATOM     18  N   UNL     1      35.060 -17.772 -21.937  0.00  0.00    -0.295 N 
ATOM     19  C   UNL     1      35.068 -19.141 -22.164  0.00  0.00    +0.246 C 
ATOM     20  H   UNL     1      34.890 -17.445 -21.025  0.00  0.00    +0.150 HD
BRANCH  19  21
ATOM     21  C   UNL     1      34.786 -19.997 -20.983  0.00  0.00    +0.053 C 
ATOM     22  C   UNL     1      33.471 -20.201 -20.567  0.00  0.00    +0.005 C 
ATOM     23  C   UNL     1      35.838 -20.597 -20.290  0.00  0.00    +0.005 C 
ATOM     24  C   UNL     1      34.257 -21.604 -18.765  0.00  0.00    +0.000 C 
ATOM     25  C   UNL     1      33.206 -21.004 -19.457  0.00  0.00    +0.000 C 
ATOM     26  C   UNL     1      35.573 -21.401 -19.180  0.00  0.00    +0.000 C 
BRANCH  24  27
ATOM     27  C   UNL     1      33.984 -22.438 -17.614  0.00  0.00    +0.000 C 
ATOM     28  C   UNL     1      35.033 -22.891 -16.816  0.00  0.00    +0.000 C 
ATOM     29  C   UNL     1      32.669 -22.787 -17.302  0.00  0.00    +0.000 C 
ATOM     30  C   UNL     1      34.769 -23.694 -15.706  0.00  0.00    +0.000 C 
ATOM     31  C   UNL     1      32.406 -23.590 -16.192  0.00  0.00    +0.000 C 
ATOM     32  C   UNL     1      33.456 -24.043 -15.395  0.00  0.00    +0.000 C 
ENDBRANCH  24  27
ENDBRANCH  19  21
ENDBRANCH   1  18
BRANCH   1  33
ATOM     33  C   UNL     1      34.540 -17.214 -24.264  0.00  0.00    +0.041 C 
BRANCH  33  34
ATOM     34  C   UNL     1      34.909 -16.387 -25.498  0.00  0.00    +0.112 C 
BRANCH  34  36
ATOM     35  O   UNL     1      33.007 -14.926 -25.070  0.00  0.00    -0.250 OA
ATOM     36  C   UNL     1      33.904 -15.300 -25.812  0.00  0.00    +0.314 C 
BRANCH  36  37
ATOM     37  O   UNL     1      34.134 -14.749 -27.032  0.00  0.00    -0.480 OA
ATOM     38  H   UNL     1      34.022 -13.827 -27.159  0.00  0.00    +0.295 HD
ENDBRANCH  36  37
ENDBRANCH  34  36
ENDBRANCH  33  34
ENDBRANCH   1  33
TORSDOF 11
ENDMDL
MODEL 5
REMARK VINA RESULT:     -10.8      3.421      6.858
REMARK  Name = 16048422
REMARK  11 active torsions:
REMARK  status: ('A' for Active; 'I' for Inactive)
REMARK    1  A    between atoms: C_1  and  C_4
REMARK    2  A    between atoms: C_1  and  N_18
REMARK    3  A    between atoms: C_1  and  C_33
REMARK    4  A    between atoms: N_3  and  C_6
REMARK    5  A    between atoms: C_6  and  C_9
REMARK    6  A    between atoms: C_9  and  C_11
REMARK    7  A    between atoms: C_19  and  C_21
REMARK    8  A    between atoms: C_24  and  C_27
REMARK    9  A    between atoms: C_33  and  C_34
REMARK   10  A    between atoms: C_34  and  C_36
REMARK   11  A    between atoms: C_36  and  O_37
REMARK                            x       y       z     vdW  Elec       q    Type
REMARK                         _______ _______ _______ _____ _____    ______ ____
ROOT
ATOM      1  C   UNL     1      32.305 -23.176 -15.213  0.00  0.00    +0.149 C 
ENDROOT
BRANCH   1   4
ATOM      2  O   UNL     1      33.635 -24.924 -14.200  0.00  0.00    -0.273 OA
ATOM      3  N   UNL     1      34.684 -22.953 -14.836  0.00  0.00    -0.306 N 
ATOM      4  C   UNL     1      33.596 -23.802 -14.701  0.00  0.00    +0.240 C 
ATOM      5  H   UNL     1      34.542 -22.072 -15.252  0.00  0.00    +0.149 HD
BRANCH   3   6
ATOM      6  C   UNL     1      36.016 -23.298 -14.395  0.00  0.00    +0.061 C 
ATOM      7  C   UNL     1      37.002 -22.221 -14.871  0.00  0.00    +0.020 C 
ATOM      8  C   UNL     1      36.018 -23.319 -12.857  0.00  0.00    +0.020 C 
BRANCH   6   9
ATOM      9  C   UNL     1      36.413 -24.708 -14.906  0.00  0.00    +0.044 C 
BRANCH   9  11
ATOM     10  F   UNL     1      41.548 -26.515 -13.431  0.00  0.00    -0.204 F 
ATOM     11  C   UNL     1      37.790 -25.193 -14.511  0.00  0.00    -0.020 C 
ATOM     12  C   UNL     1      38.914 -24.732 -15.196  0.00  0.00    -0.002 C 
ATOM     13  C   UNL     1      37.935 -26.100 -13.461  0.00  0.00    -0.002 C 
ATOM     14  C   UNL     1      40.184 -25.178 -14.830  0.00  0.00    +0.029 C 
ATOM     15  C   UNL     1      39.204 -26.546 -13.096  0.00  0.00    +0.029 C 
ATOM     16  C   UNL     1      40.329 -26.085 -13.781  0.00  0.00    +0.140 C 
ENDBRANCH   9  11
ENDBRANCH   6   9
ENDBRANCH   3   6
ENDBRANCH   1   4
BRANCH   1  18
ATOM     17  O   UNL     1      33.599 -24.106 -17.601  0.00  0.00    -0.270 OA
ATOM     18  N   UNL     1      32.686 -22.378 -16.353  0.00  0.00    -0.295 N 
ATOM     19  C   UNL     1      33.310 -22.920 -17.467  0.00  0.00    +0.246 C 
ATOM     20  H   UNL     1      32.497 -21.413 -16.339  0.00  0.00    +0.150 HD
BRANCH  19  21
ATOM     21  C   UNL     1      33.663 -21.961 -18.545  0.00  0.00    +0.053 C 
ATOM     22  C   UNL     1      32.668 -21.195 -19.151  0.00  0.00    +0.005 C 
ATOM     23  C   UNL     1      34.991 -21.826 -18.949  0.00  0.00    +0.005 C 
ATOM     24  C   UNL     1      34.328 -20.159 -20.568  0.00  0.00    +0.000 C 
ATOM     25  C   UNL     1      33.000 -20.295 -20.164  0.00  0.00    +0.000 C 
ATOM     26  C   UNL     1      35.324 -20.925 -19.962  0.00  0.00    +0.000 C 
BRANCH  24  27
ATOM     27  C   UNL     1      34.673 -19.226 -21.618  0.00  0.00    +0.000 C 
ATOM     28  C   UNL     1      34.587 -19.615 -22.955  0.00  0.00    +0.000 C 
ATOM     29  C   UNL     1      35.090 -17.934 -21.294  0.00  0.00    +0.000 C 
ATOM     30  C   UNL     1      34.918 -18.714 -23.967  0.00  0.00    +0.000 C 
ATOM     31  C   UNL     1      35.422 -17.034 -22.307  0.00  0.00    +0.000 C 
ATOM     32  C   UNL     1      35.336 -17.424 -23.643  0.00  0.00    +0.000 C 
ENDBRANCH  24  27
ENDBRANCH  19  21
ENDBRANCH   1  18
BRANCH   1  33
ATOM     33  C   UNL     1      31.277 -24.241 -15.616  0.00  0.00    +0.041 C 
BRANCH  33  34
ATOM     34  C   UNL     1      29.862 -23.980 -15.096  0.00  0.00    +0.112 C 
BRANCH  34  36
ATOM     35  O   UNL     1      29.214 -22.451 -16.879  0.00  0.00    -0.250 OA
ATOM     36  C   UNL     1      29.224 -22.744 -15.691  0.00  0.00    +0.314 C 
BRANCH  36  37
ATOM     37  O   UNL     1      28.620 -21.988 -14.737  0.00  0.00    -0.480 OA
ATOM     38  H   UNL     1      27.721 -21.744 -14.832  0.00  0.00    +0.295 HD
ENDBRANCH  36  37
ENDBRANCH  34  36
ENDBRANCH  33  34
ENDBRANCH   1  33
TORSDOF 11
ENDMDL
MODEL 6
REMARK VINA RESULT:     -10.2      2.519      7.226
REMARK  Name = 16048422
REMARK  11 active torsions:
REMARK  status: ('A' for Active; 'I' for Inactive)
REMARK    1  A    between atoms: C_1  and  C_4
REMARK    2  A    between atoms: C_1  and  N_18
REMARK    3  A    between atoms: C_1  and  C_33
REMARK    4  A    between atoms: N_3  and  C_6
REMARK    5  A    between atoms: C_6  and  C_9
REMARK    6  A    between atoms: C_9  and  C_11
REMARK    7  A    between atoms: C_19  and  C_21
REMARK    8  A    between atoms: C_24  and  C_27
REMARK    9  A    between atoms: C_33  and  C_34
REMARK   10  A    between atoms: C_34  and  C_36
REMARK   11  A    between atoms: C_36  and  O_37
REMARK                            x       y       z     vdW  Elec       q    Type
REMARK                         _______ _______ _______ _____ _____    ______ ____
ROOT
ATOM      1  C   UNL     1      36.037 -24.926 -14.195  0.00  0.00    +0.149 C 
ENDROOT
BRANCH   1   4
ATOM      2  O   UNL     1      37.916 -23.407 -14.072  0.00  0.00    -0.273 OA
ATOM      3  N   UNL     1      36.563 -23.355 -15.959  0.00  0.00    -0.306 N 
ATOM      4  C   UNL     1      36.956 -23.828 -14.716  0.00  0.00    +0.240 C 
ATOM      5  H   UNL     1      35.777 -23.764 -16.388  0.00  0.00    +0.149 HD
BRANCH   3   6
ATOM      6  C   UNL     1      37.251 -22.290 -16.653  0.00  0.00    +0.061 C 
ATOM      7  C   UNL     1      36.729 -20.937 -16.147  0.00  0.00    +0.020 C 
ATOM      8  C   UNL     1      38.748 -22.394 -16.321  0.00  0.00    +0.020 C 
BRANCH   6   9
ATOM      9  C   UNL     1      37.076 -22.437 -18.188  0.00  0.00    +0.044 C 
BRANCH   9  11
ATOM     10  F   UNL     1      32.297 -20.352 -20.340  0.00  0.00    -0.204 F 
ATOM     11  C   UNL     1      35.795 -21.878 -18.765  0.00  0.00    -0.020 C 
ATOM     12  C   UNL     1      34.563 -22.337 -18.300  0.00  0.00    -0.002 C 
ATOM     13  C   UNL     1      35.846 -20.904 -19.761  0.00  0.00    -0.002 C 
ATOM     14  C   UNL     1      33.381 -21.821 -18.832  0.00  0.00    +0.029 C 
ATOM     15  C   UNL     1      34.665 -20.388 -20.293  0.00  0.00    +0.029 C 
ATOM     16  C   UNL     1      33.432 -20.847 -19.828  0.00  0.00    +0.140 C 
ENDBRANCH   9  11
ENDBRANCH   6   9
ENDBRANCH   3   6
ENDBRANCH   1   4
BRANCH   1  18
ATOM     17  O   UNL     1      33.848 -24.469 -12.395  0.00  0.00    -0.270 OA
ATOM     18  N   UNL     1      34.701 -24.514 -14.551  0.00  0.00    -0.295 N 
ATOM     19  C   UNL     1      33.705 -24.317 -13.606  0.00  0.00    +0.246 C 
ATOM     20  H   UNL     1      34.488 -24.368 -15.500  0.00  0.00    +0.150 HD
BRANCH  19  21
ATOM     21  C   UNL     1      32.375 -23.921 -14.136  0.00  0.00    +0.053 C 
ATOM     22  C   UNL     1      32.284 -23.216 -15.336  0.00  0.00    +0.005 C 
ATOM     23  C   UNL     1      31.218 -24.255 -13.434  0.00  0.00    +0.005 C 
ATOM     24  C   UNL     1      29.878 -23.178 -15.131  0.00  0.00    +0.000 C 
ATOM     25  C   UNL     1      31.035 -22.844 -15.834  0.00  0.00    +0.000 C 
ATOM     26  C   UNL     1      29.968 -23.884 -13.931  0.00  0.00    +0.000 C 
BRANCH  24  27
ATOM     27  C   UNL     1      28.582 -22.792 -15.647  0.00  0.00    +0.000 C 
ATOM     28  C   UNL     1      27.576 -22.384 -14.771  0.00  0.00    +0.000 C 
ATOM     29  C   UNL     1      28.339 -22.828 -17.020  0.00  0.00    +0.000 C 
ATOM     30  C   UNL     1      26.327 -22.011 -15.269  0.00  0.00    +0.000 C 
ATOM     31  C   UNL     1      27.089 -22.455 -17.517  0.00  0.00    +0.000 C 
ATOM     32  C   UNL     1      26.084 -22.047 -16.641  0.00  0.00    +0.000 C 
ENDBRANCH  24  27
ENDBRANCH  19  21
ENDBRANCH   1  18
BRANCH   1  33
ATOM     33  C   UNL     1      36.369 -26.288 -14.817  0.00  0.00    +0.041 C 
BRANCH  33  34
ATOM     34  C   UNL     1      37.197 -27.207 -13.916  0.00  0.00    +0.112 C 
BRANCH  34  36
ATOM     35  O   UNL     1      36.965 -26.495 -11.598  0.00  0.00    -0.250 OA
ATOM     36  C   UNL     1      37.628 -26.548 -12.624  0.00  0.00    +0.314 C 
BRANCH  36  37
ATOM     37  O   UNL     1      38.881 -26.032 -12.723  0.00  0.00    -0.480 OA
ATOM     38  H   UNL     1      39.043 -25.142 -12.478  0.00  0.00    +0.295 HD
ENDBRANCH  36  37
ENDBRANCH  34  36
ENDBRANCH  33  34
ENDBRANCH   1  33
TORSDOF 11
ENDMDL
MODEL 7
REMARK VINA RESULT:     -10.1      8.287     13.809
REMARK  Name = 16048422
REMARK  11 active torsions:
REMARK  status: ('A' for Active; 'I' for Inactive)
REMARK    1  A    between atoms: C_1  and  C_4
REMARK    2  A    between atoms: C_1  and  N_18
REMARK    3  A    between atoms: C_1  and  C_33
REMARK    4  A    between atoms: N_3  and  C_6
REMARK    5  A    between atoms: C_6  and  C_9
REMARK    6  A    between atoms: C_9  and  C_11
REMARK    7  A    between atoms: C_19  and  C_21
REMARK    8  A    between atoms: C_24  and  C_27
REMARK    9  A    between atoms: C_33  and  C_34
REMARK   10  A    between atoms: C_34  and  C_36
REMARK   11  A    between atoms: C_36  and  O_37
REMARK                            x       y       z     vdW  Elec       q    Type
REMARK                         _______ _______ _______ _____ _____    ______ ____
ROOT
ATOM      1  C   UNL     1      33.907 -12.474 -23.381  0.00  0.00    +0.149 C 
ENDROOT
BRANCH   1   4
ATOM      2  O   UNL     1      31.979 -12.271 -21.934  0.00  0.00    -0.273 OA
ATOM      3  N   UNL     1      33.109 -10.341 -22.560  0.00  0.00    -0.306 N 
ATOM      4  C   UNL     1      32.894 -11.711 -22.536  0.00  0.00    +0.240 C 
ATOM      5  H   UNL     1      33.874  -9.997 -23.076  0.00  0.00    +0.149 HD
BRANCH   3   6
ATOM      6  C   UNL     1      32.265  -9.395 -21.867  0.00  0.00    +0.061 C 
ATOM      7  C   UNL     1      31.056  -9.054 -22.750  0.00  0.00    +0.020 C 
ATOM      8  C   UNL     1      31.758 -10.065 -20.579  0.00  0.00    +0.020 C 
BRANCH   6   9
ATOM      9  C   UNL     1      33.070  -8.128 -21.478  0.00  0.00    +0.044 C 
BRANCH   9  11
ATOM     10  F   UNL     1      35.085  -5.071 -25.769  0.00  0.00    -0.204 F 
ATOM     11  C   UNL     1      33.610  -7.308 -22.628  0.00  0.00    -0.020 C 
ATOM     12  C   UNL     1      34.912  -7.518 -23.083  0.00  0.00    -0.002 C 
ATOM     13  C   UNL     1      32.807  -6.342 -23.234  0.00  0.00    -0.002 C 
ATOM     14  C   UNL     1      35.410  -6.763 -24.145  0.00  0.00    +0.029 C 
ATOM     15  C   UNL     1      33.305  -5.587 -24.296  0.00  0.00    +0.029 C 
ATOM     16  C   UNL     1      34.607  -5.797 -24.750  0.00  0.00    +0.140 C 
ENDBRANCH   9  11
ENDBRANCH   6   9
ENDBRANCH   3   6
ENDBRANCH   1   4
BRANCH   1  18
ATOM     17  O   UNL     1      35.723 -14.570 -24.124  0.00  0.00    -0.270 OA
ATOM     18  N   UNL     1      33.994 -13.787 -22.790  0.00  0.00    -0.295 N 
ATOM     19  C   UNL     1      34.909 -14.737 -23.219  0.00  0.00    +0.246 C 
ATOM     20  H   UNL     1      33.382 -14.017 -22.056  0.00  0.00    +0.150 HD
BRANCH  19  21
ATOM     21  C   UNL     1      34.854 -16.051 -22.527  0.00  0.00    +0.053 C 
ATOM     22  C   UNL     1      35.067 -17.227 -23.246  0.00  0.00    +0.005 C 
ATOM     23  C   UNL     1      34.590 -16.107 -21.159  0.00  0.00    +0.005 C 
ATOM     24  C   UNL     1      34.750 -18.517 -21.228  0.00  0.00    +0.000 C 
ATOM     25  C   UNL     1      35.015 -18.461 -22.596  0.00  0.00    +0.000 C 
ATOM     26  C   UNL     1      34.538 -17.341 -20.509  0.00  0.00    +0.000 C 
BRANCH  24  27
ATOM     27  C   UNL     1      34.696 -19.796 -20.554  0.00  0.00    +0.000 C 
ATOM     28  C   UNL     1      35.877 -20.473 -20.247  0.00  0.00    +0.000 C 
ATOM     29  C   UNL     1      33.464 -20.352 -20.209  0.00  0.00    +0.000 C 
ATOM     30  C   UNL     1      35.824 -21.706 -19.595  0.00  0.00    +0.000 C 
ATOM     31  C   UNL     1      33.412 -21.585 -19.558  0.00  0.00    +0.000 C 
ATOM     32  C   UNL     1      34.593 -22.261 -19.252  0.00  0.00    +0.000 C 
ENDBRANCH  24  27
ENDBRANCH  19  21
ENDBRANCH   1  18
BRANCH   1  33
ATOM     33  C   UNL     1      33.470 -12.567 -24.848  0.00  0.00    +0.041 C 
BRANCH  33  34
ATOM     34  C   UNL     1      32.927 -13.937 -25.257  0.00  0.00    +0.112 C 
BRANCH  34  36
ATOM     35  O   UNL     1      34.002 -13.896 -27.443  0.00  0.00    -0.250 OA
ATOM     36  C   UNL     1      33.630 -14.524 -26.461  0.00  0.00    +0.314 C 
BRANCH  36  37
ATOM     37  O   UNL     1      33.835 -15.859 -26.315  0.00  0.00    -0.480 OA
ATOM     38  H   UNL     1      33.158 -16.402 -25.961  0.00  0.00    +0.295 HD
ENDBRANCH  36  37
ENDBRANCH  34  36
ENDBRANCH  33  34
ENDBRANCH   1  33
TORSDOF 11
ENDMDL
MODEL 8
REMARK VINA RESULT:     -10.1      1.516      2.143
REMARK  Name = 16048422
REMARK  11 active torsions:
REMARK  status: ('A' for Active; 'I' for Inactive)
REMARK    1  A    between atoms: C_1  and  C_4
REMARK    2  A    between atoms: C_1  and  N_18
REMARK    3  A    between atoms: C_1  and  C_33
REMARK    4  A    between atoms: N_3  and  C_6
REMARK    5  A    between atoms: C_6  and  C_9
REMARK    6  A    between atoms: C_9  and  C_11
REMARK    7  A    between atoms: C_19  and  C_21
REMARK    8  A    between atoms: C_24  and  C_27
REMARK    9  A    between atoms: C_33  and  C_34
REMARK   10  A    between atoms: C_34  and  C_36
REMARK   11  A    between atoms: C_36  and  O_37
REMARK                            x       y       z     vdW  Elec       q    Type
REMARK                         _______ _______ _______ _____ _____    ______ ____
ROOT
ATOM      1  C   UNL     1      34.850 -25.167 -14.608  0.00  0.00    +0.149 C 
ENDROOT
BRANCH   1   4
ATOM      2  O   UNL     1      33.679 -24.117 -12.771  0.00  0.00    -0.273 OA
ATOM      3  N   UNL     1      32.444 -24.910 -14.571  0.00  0.00    -0.306 N 
ATOM      4  C   UNL     1      33.617 -24.659 -13.873  0.00  0.00    +0.240 C 
ATOM      5  H   UNL     1      32.508 -25.351 -15.449  0.00  0.00    +0.149 HD
BRANCH   3   6
ATOM      6  C   UNL     1      31.135 -24.555 -14.072  0.00  0.00    +0.061 C 
ATOM      7  C   UNL     1      30.091 -25.509 -14.671  0.00  0.00    +0.020 C 
ATOM      8  C   UNL     1      31.144 -24.734 -12.545  0.00  0.00    +0.020 C 
BRANCH   6   9
ATOM      9  C   UNL     1      30.811 -23.072 -14.392  0.00  0.00    +0.044 C 
BRANCH   9  11
ATOM     10  F   UNL     1      25.912 -22.127 -17.022  0.00  0.00    -0.204 F 
ATOM     11  C   UNL     1      29.498 -22.819 -15.097  0.00  0.00    -0.020 C 
ATOM     12  C   UNL     1      28.392 -22.374 -14.373  0.00  0.00    -0.002 C 
ATOM     13  C   UNL     1      29.392 -23.031 -16.472  0.00  0.00    -0.002 C 
ATOM     14  C   UNL     1      27.181 -22.139 -15.023  0.00  0.00    +0.029 C 
ATOM     15  C   UNL     1      28.181 -22.797 -17.122  0.00  0.00    +0.029 C 
ATOM     16  C   UNL     1      27.075 -22.351 -16.398  0.00  0.00    +0.140 C 
ENDBRANCH   9  11
ENDBRANCH   6   9
ENDBRANCH   3   6
ENDBRANCH   1   4
BRANCH   1  18
ATOM     17  O   UNL     1      36.445 -22.787 -14.793  0.00  0.00    -0.270 OA
ATOM     18  N   UNL     1      34.993 -24.313 -15.762  0.00  0.00    -0.295 N 
ATOM     19  C   UNL     1      35.791 -23.178 -15.756  0.00  0.00    +0.246 C 
ATOM     20  H   UNL     1      34.506 -24.544 -16.585  0.00  0.00    +0.150 HD
BRANCH  19  21
ATOM     21  C   UNL     1      35.811 -22.390 -17.015  0.00  0.00    +0.053 C 
ATOM     22  C   UNL     1      34.701 -22.399 -17.860  0.00  0.00    +0.005 C 
ATOM     23  C   UNL     1      36.938 -21.641 -17.350  0.00  0.00    +0.005 C 
ATOM     24  C   UNL     1      35.847 -20.910 -19.379  0.00  0.00    +0.000 C 
ATOM     25  C   UNL     1      34.720 -21.659 -19.043  0.00  0.00    +0.000 C 
ATOM     26  C   UNL     1      36.957 -20.900 -18.533  0.00  0.00    +0.000 C 
BRANCH  24  27
ATOM     27  C   UNL     1      35.867 -20.142 -20.605  0.00  0.00    +0.000 C 
ATOM     28  C   UNL     1      34.769 -20.173 -21.465  0.00  0.00    +0.000 C 
ATOM     29  C   UNL     1      36.983 -19.369 -20.926  0.00  0.00    +0.000 C 
ATOM     30  C   UNL     1      34.788 -19.431 -22.646  0.00  0.00    +0.000 C 
ATOM     31  C   UNL     1      37.001 -18.628 -22.109  0.00  0.00    +0.000 C 
ATOM     32  C   UNL     1      35.904 -18.660 -22.968  0.00  0.00    +0.000 C 
ENDBRANCH  24  27
ENDBRANCH  19  21
ENDBRANCH   1  18
BRANCH   1  33
ATOM     33  C   UNL     1      36.104 -25.102 -13.728  0.00  0.00    +0.041 C 
BRANCH  33  34
ATOM     34  C   UNL     1      37.048 -26.297 -13.887  0.00  0.00    +0.112 C 
BRANCH  34  36
ATOM     35  O   UNL     1      39.432 -26.666 -14.222  0.00  0.00    -0.250 OA
ATOM     36  C   UNL     1      38.491 -25.895 -14.099  0.00  0.00    +0.314 C 
BRANCH  36  37
ATOM     37  O   UNL     1      38.626 -24.545 -14.168  0.00  0.00    -0.480 OA
ATOM     38  H   UNL     1      39.268 -24.110 -13.643  0.00  0.00    +0.295 HD
ENDBRANCH  36  37
ENDBRANCH  34  36
ENDBRANCH  33  34
ENDBRANCH   1  33
TORSDOF 11
ENDMDL
MODEL 9
REMARK VINA RESULT:      -9.9      9.445     14.644
REMARK  Name = 16048422
REMARK  11 active torsions:
REMARK  status: ('A' for Active; 'I' for Inactive)
REMARK    1  A    between atoms: C_1  and  C_4
REMARK    2  A    between atoms: C_1  and  N_18
REMARK    3  A    between atoms: C_1  and  C_33
REMARK    4  A    between atoms: N_3  and  C_6
REMARK    5  A    between atoms: C_6  and  C_9
REMARK    6  A    between atoms: C_9  and  C_11
REMARK    7  A    between atoms: C_19  and  C_21
REMARK    8  A    between atoms: C_24  and  C_27
REMARK    9  A    between atoms: C_33  and  C_34
REMARK   10  A    between atoms: C_34  and  C_36
REMARK   11  A    between atoms: C_36  and  O_37
REMARK                            x       y       z     vdW  Elec       q    Type
REMARK                         _______ _______ _______ _____ _____    ______ ____
ROOT
ATOM      1  C   UNL     1      32.279 -11.232 -22.898  0.00  0.00    +0.149 C 
ENDROOT
BRANCH   1   4
ATOM      2  O   UNL     1      34.553 -10.707 -23.534  0.00  0.00    -0.273 OA
ATOM      3  N   UNL     1      33.095  -8.961 -23.067  0.00  0.00    -0.306 N 
ATOM      4  C   UNL     1      33.438 -10.296 -23.214  0.00  0.00    +0.240 C 
ATOM      5  H   UNL     1      32.171  -8.741 -22.806  0.00  0.00    +0.149 HD
BRANCH   3   6
ATOM      6  C   UNL     1      34.027  -7.876 -23.276  0.00  0.00    +0.061 C 
ATOM      7  C   UNL     1      34.409  -7.269 -21.918  0.00  0.00    +0.020 C 
ATOM      8  C   UNL     1      35.294  -8.457 -23.927  0.00  0.00    +0.020 C 
BRANCH   6   9
ATOM      9  C   UNL     1      33.424  -6.815 -24.233  0.00  0.00    +0.044 C 
BRANCH   9  11
ATOM     10  F   UNL     1      29.904  -3.086 -21.882  0.00  0.00    -0.204 F 
ATOM     11  C   UNL     1      32.481  -5.815 -23.602  0.00  0.00    -0.020 C 
ATOM     12  C   UNL     1      32.508  -4.480 -24.006  0.00  0.00    -0.002 C 
ATOM     13  C   UNL     1      31.584  -6.228 -22.618  0.00  0.00    -0.002 C 
ATOM     14  C   UNL     1      31.637  -3.558 -23.426  0.00  0.00    +0.029 C 
ATOM     15  C   UNL     1      30.713  -5.307 -22.037  0.00  0.00    +0.029 C 
ATOM     16  C   UNL     1      30.740  -3.972 -22.441  0.00  0.00    +0.140 C 
ENDBRANCH   9  11
ENDBRANCH   6   9
ENDBRANCH   3   6
ENDBRANCH   1   4
BRANCH   1  18
ATOM     17  O   UNL     1      33.013 -13.398 -24.634  0.00  0.00    -0.270 OA
ATOM     18  N   UNL     1      32.884 -12.482 -22.507  0.00  0.00    -0.295 N 
ATOM     19  C   UNL     1      33.205 -13.473 -23.423  0.00  0.00    +0.246 C 
ATOM     20  H   UNL     1      33.078 -12.637 -21.555  0.00  0.00    +0.150 HD
BRANCH  19  21
ATOM     21  C   UNL     1      33.798 -14.713 -22.858  0.00  0.00    +0.053 C 
ATOM     22  C   UNL     1      33.842 -14.898 -21.476  0.00  0.00    +0.005 C 
ATOM     23  C   UNL     1      34.310 -15.691 -23.710  0.00  0.00    +0.005 C 
ATOM     24  C   UNL     1      34.911 -17.040 -21.798  0.00  0.00    +0.000 C 
ATOM     25  C   UNL     1      34.399 -16.062 -20.946  0.00  0.00    +0.000 C 
ATOM     26  C   UNL     1      34.867 -16.856 -23.180  0.00  0.00    +0.000 C 
BRANCH  24  27
ATOM     27  C   UNL     1      35.489 -18.248 -21.249  0.00  0.00    +0.000 C 
ATOM     28  C   UNL     1      34.666 -19.321 -20.904  0.00  0.00    +0.000 C 
ATOM     29  C   UNL     1      36.869 -18.340 -21.064  0.00  0.00    +0.000 C 
ATOM     30  C   UNL     1      35.224 -20.485 -20.376  0.00  0.00    +0.000 C 
ATOM     31  C   UNL     1      37.425 -19.505 -20.535  0.00  0.00    +0.000 C 
ATOM     32  C   UNL     1      36.603 -20.577 -20.191  0.00  0.00    +0.000 C 
ENDBRANCH  24  27
ENDBRANCH  19  21
ENDBRANCH   1  18
BRANCH   1  33
ATOM     33  C   UNL     1      31.395 -10.683 -21.772  0.00  0.00    +0.041 C 
BRANCH  33  34
ATOM     34  C   UNL     1      31.863 -11.057 -20.364  0.00  0.00    +0.112 C 
BRANCH  34  36
ATOM     35  O   UNL     1      32.565  -9.895 -18.341  0.00  0.00    -0.250 OA
ATOM     36  C   UNL     1      32.127  -9.856 -19.482  0.00  0.00    +0.314 C 
BRANCH  36  37
ATOM     37  O   UNL     1      31.842  -8.694 -20.127  0.00  0.00    -0.480 OA
ATOM     38  H   UNL     1      32.477  -8.006 -20.155  0.00  0.00    +0.295 HD
ENDBRANCH  36  37
ENDBRANCH  34  36
ENDBRANCH  33  34
ENDBRANCH   1  33
TORSDOF 11
ENDMDL
