MODEL 1
REMARK VINA RESULT:     -11.3      0.000      0.000
REMARK  Name = 46892373
REMARK  3 active torsions:
REMARK  status: ('A' for Active; 'I' for Inactive)
REMARK    1  A    between atoms: C_7  and  C_20
REMARK    2  A    between atoms: C_20  and  C_22
REMARK    3  A    between atoms: C_20  and  O_28
REMARK                            x       y       z     vdW  Elec       q    Type
REMARK                         _______ _______ _______ _____ _____    ______ ____
ROOT
ATOM      1  N   UNL     1      33.325 -23.651 -15.237  0.00  0.00    -0.326 NA
ATOM      2  N   UNL     1      31.689 -22.962 -16.782  0.00  0.00    -0.271 N 
ATOM      3  N   UNL     1      35.667 -23.303 -15.688  0.00  0.00    -0.345 NA
ATOM      4  N   UNL     1      29.133 -22.630 -14.456  0.00  0.00    -0.239 N 
ATOM      5  N   UNL     1      30.450 -22.761 -14.689  0.00  0.00    -0.166 NA
ATOM      6  C   UNL     1      34.030 -22.586 -17.290  0.00  0.00    +0.072 C 
ATOM      7  C   UNL     1      34.631 -23.732 -14.939  0.00  0.00    +0.146 C 
ATOM      8  C   UNL     1      33.056 -23.072 -16.422  0.00  0.00    +0.199 C 
ATOM      9  C   UNL     1      35.362 -22.729 -16.866  0.00  0.00    +0.129 C 
ATOM     10  C   UNL     1      33.724 -21.985 -18.522  0.00  0.00    +0.006 C 
ATOM     11  C   UNL     1      36.366 -22.254 -17.708  0.00  0.00    +0.086 C 
ATOM     12  C   UNL     1      30.517 -22.825 -16.021  0.00  0.00    +0.152 C 
ATOM     13  C   UNL     1      34.746 -21.520 -19.343  0.00  0.00    -0.004 C 
ATOM     14  C   UNL     1      36.068 -21.655 -18.935  0.00  0.00    -0.019 C 
ATOM     15  C   UNL     1      29.253 -22.735 -16.634  0.00  0.00    +0.048 C 
ATOM     16  C   UNL     1      28.373 -22.609 -15.587  0.00  0.00    +0.046 C 
ATOM     17  C   UNL     1      26.908 -22.475 -15.546  0.00  0.00    +0.049 C 
ATOM     18  H   UNL     1      31.531 -22.990 -17.753  0.00  0.00    +0.156 HD
ATOM     19  H   UNL     1      28.753 -22.556 -13.550  0.00  0.00    +0.174 HD
ENDROOT
BRANCH   7  20
ATOM     20  C   UNL     1      34.978 -24.368 -13.634  0.00  0.00    +0.243 C 
BRANCH  20  22
ATOM     21  F   UNL     1      40.293 -26.275 -13.365  0.00  0.00    -0.204 F 
ATOM     22  C   UNL     1      36.411 -24.882 -13.562  0.00  0.00    +0.021 C 
ATOM     23  C   UNL     1      36.794 -25.988 -14.320  0.00  0.00    +0.001 C 
ATOM     24  C   UNL     1      37.339 -24.247 -12.736  0.00  0.00    +0.001 C 
ATOM     25  C   UNL     1      38.105 -26.458 -14.255  0.00  0.00    +0.029 C 
ATOM     26  C   UNL     1      38.651 -24.718 -12.669  0.00  0.00    +0.029 C 
ATOM     27  C   UNL     1      39.034 -25.823 -13.429  0.00  0.00    +0.140 C 
ENDBRANCH  20  22
BRANCH  20  28
ATOM     28  O   UNL     1      34.731 -23.492 -12.519  0.00  0.00    -0.366 OA
ATOM     29  H   UNL     1      34.292 -23.987 -11.809  0.00  0.00    +0.212 HD
ENDBRANCH  20  28
ENDBRANCH   7  20
TORSDOF 3
ENDMDL
MODEL 2
REMARK VINA RESULT:     -11.0      3.267      7.293
REMARK  Name = 46892373
REMARK  3 active torsions:
REMARK  status: ('A' for Active; 'I' for Inactive)
REMARK    1  A    between atoms: C_7  and  C_20
REMARK    2  A    between atoms: C_20  and  C_22
REMARK    3  A    between atoms: C_20  and  O_28
REMARK                            x       y       z     vdW  Elec       q    Type
REMARK                         _______ _______ _______ _____ _____    ______ ____
ROOT
ATOM      1  N   UNL     1      34.373 -23.796 -15.069  0.00  0.00    -0.326 NA
ATOM      2  N   UNL     1      36.627 -23.501 -15.675  0.00  0.00    -0.271 N 
ATOM      3  N   UNL     1      32.601 -23.014 -16.503  0.00  0.00    -0.345 NA
ATOM      4  N   UNL     1      37.842 -26.161 -13.803  0.00  0.00    -0.239 N 
ATOM      5  N   UNL     1      36.779 -25.541 -14.343  0.00  0.00    -0.166 NA
ATOM      6  C   UNL     1      34.887 -22.692 -17.157  0.00  0.00    +0.072 C 
ATOM      7  C   UNL     1      33.084 -23.609 -15.394  0.00  0.00    +0.146 C 
ATOM      8  C   UNL     1      35.252 -23.326 -15.973  0.00  0.00    +0.199 C 
ATOM      9  C   UNL     1      33.508 -22.555 -17.385  0.00  0.00    +0.129 C 
ATOM     10  C   UNL     1      35.824 -22.209 -18.086  0.00  0.00    +0.006 C 
ATOM     11  C   UNL     1      33.102 -21.926 -18.560  0.00  0.00    +0.086 C 
ATOM     12  C   UNL     1      37.322 -24.482 -14.949  0.00  0.00    +0.152 C 
ATOM     13  C   UNL     1      35.392 -21.584 -19.251  0.00  0.00    -0.004 C 
ATOM     14  C   UNL     1      34.029 -21.443 -19.488  0.00  0.00    -0.019 C 
ATOM     15  C   UNL     1      38.720 -24.426 -14.797  0.00  0.00    +0.048 C 
ATOM     16  C   UNL     1      39.028 -25.533 -14.045  0.00  0.00    +0.046 C 
ATOM     17  C   UNL     1      40.308 -26.053 -13.538  0.00  0.00    +0.049 C 
ATOM     18  H   UNL     1      37.207 -22.798 -16.048  0.00  0.00    +0.156 HD
ATOM     19  H   UNL     1      37.770 -26.992 -13.279  0.00  0.00    +0.174 HD
ENDROOT
BRANCH   7  20
ATOM     20  C   UNL     1      32.072 -24.115 -14.421  0.00  0.00    +0.243 C 
BRANCH  20  22
ATOM     21  F   UNL     1      26.739 -22.877 -15.830  0.00  0.00    -0.204 F 
ATOM     22  C   UNL     1      30.634 -23.782 -14.800  0.00  0.00    +0.021 C 
ATOM     23  C   UNL     1      29.863 -24.713 -15.495  0.00  0.00    +0.001 C 
ATOM     24  C   UNL     1      30.090 -22.545 -14.454  0.00  0.00    +0.001 C 
ATOM     25  C   UNL     1      28.546 -24.408 -15.842  0.00  0.00    +0.029 C 
ATOM     26  C   UNL     1      28.774 -22.239 -14.802  0.00  0.00    +0.029 C 
ATOM     27  C   UNL     1      28.002 -23.171 -15.496  0.00  0.00    +0.140 C 
ENDBRANCH  20  22
BRANCH  20  28
ATOM     28  O   UNL     1      32.189 -25.532 -14.201  0.00  0.00    -0.366 OA
ATOM     29  H   UNL     1      31.510 -25.997 -14.715  0.00  0.00    +0.212 HD
ENDBRANCH  20  28
ENDBRANCH   7  20
TORSDOF 3
ENDMDL
MODEL 3
REMARK VINA RESULT:     -10.8      2.290      2.725
REMARK  Name = 46892373
REMARK  3 active torsions:
REMARK  status: ('A' for Active; 'I' for Inactive)
REMARK    1  A    between atoms: C_7  and  C_20
REMARK    2  A    between atoms: C_20  and  C_22
REMARK    3  A    between atoms: C_20  and  O_28
REMARK                            x       y       z     vdW  Elec       q    Type
REMARK                         _______ _______ _______ _____ _____    ______ ____
ROOT
ATOM      1  N   UNL     1      35.551 -23.174 -15.931  0.00  0.00    -0.326 NA
ATOM      2  N   UNL     1      33.331 -23.322 -16.695  0.00  0.00    -0.271 N 
ATOM      3  N   UNL     1      37.216 -21.993 -17.212  0.00  0.00    -0.345 NA
ATOM      4  N   UNL     1      31.914 -23.780 -13.558  0.00  0.00    -0.239 N 
ATOM      5  N   UNL     1      32.987 -23.414 -14.280  0.00  0.00    -0.166 NA
ATOM      6  C   UNL     1      34.963 -22.122 -18.026  0.00  0.00    +0.072 C 
ATOM      7  C   UNL     1      36.792 -22.714 -16.155  0.00  0.00    +0.146 C 
ATOM      8  C   UNL     1      34.657 -22.860 -16.886  0.00  0.00    +0.199 C 
ATOM      9  C   UNL     1      36.297 -21.698 -18.149  0.00  0.00    +0.129 C 
ATOM     10  C   UNL     1      34.012 -21.808 -19.011  0.00  0.00    +0.006 C 
ATOM     11  C   UNL     1      36.642 -20.956 -19.276  0.00  0.00    +0.086 C 
ATOM     12  C   UNL     1      32.573 -23.575 -15.540  0.00  0.00    +0.152 C 
ATOM     13  C   UNL     1      34.384 -21.066 -20.128  0.00  0.00    -0.004 C 
ATOM     14  C   UNL     1      35.701 -20.640 -20.260  0.00  0.00    -0.019 C 
ATOM     15  C   UNL     1      31.247 -24.040 -15.622  0.00  0.00    +0.048 C 
ATOM     16  C   UNL     1      30.846 -24.163 -14.314  0.00  0.00    +0.046 C 
ATOM     17  C   UNL     1      29.576 -24.602 -13.712  0.00  0.00    +0.049 C 
ATOM     18  H   UNL     1      32.847 -23.502 -17.533  0.00  0.00    +0.156 HD
ATOM     19  H   UNL     1      31.901 -23.772 -12.573  0.00  0.00    +0.174 HD
ENDROOT
BRANCH   7  20
ATOM     20  C   UNL     1      37.818 -23.038 -15.120  0.00  0.00    +0.243 C 
BRANCH  20  22
ATOM     21  F   UNL     1      35.695 -25.514 -10.503  0.00  0.00    -0.204 F 
ATOM     22  C   UNL     1      37.247 -23.706 -13.875  0.00  0.00    +0.021 C 
ATOM     23  C   UNL     1      37.301 -25.093 -13.740  0.00  0.00    +0.001 C 
ATOM     24  C   UNL     1      36.667 -22.930 -12.872  0.00  0.00    +0.001 C 
ATOM     25  C   UNL     1      36.778 -25.704 -12.601  0.00  0.00    +0.029 C 
ATOM     26  C   UNL     1      36.142 -23.541 -11.732  0.00  0.00    +0.029 C 
ATOM     27  C   UNL     1      36.198 -24.928 -11.597  0.00  0.00    +0.140 C 
ENDBRANCH  20  22
BRANCH  20  28
ATOM     28  O   UNL     1      38.885 -23.849 -15.646  0.00  0.00    -0.366 OA
ATOM     29  H   UNL     1      38.692 -24.785 -15.481  0.00  0.00    +0.212 HD
ENDBRANCH  20  28
ENDBRANCH   7  20
TORSDOF 3
ENDMDL
MODEL 4
REMARK VINA RESULT:     -10.7      2.952      7.147
REMARK  Name = 46892373
REMARK  3 active torsions:
REMARK  status: ('A' for Active; 'I' for Inactive)
REMARK    1  A    between atoms: C_7  and  C_20
REMARK    2  A    between atoms: C_20  and  C_22
REMARK    3  A    between atoms: C_20  and  O_28
REMARK                            x       y       z     vdW  Elec       q    Type
REMARK                         _______ _______ _______ _____ _____    ______ ____
ROOT
ATOM      1  N   UNL     1      34.234 -23.752 -16.813  0.00  0.00    -0.326 NA
ATOM      2  N   UNL     1      34.819 -24.422 -14.634  0.00  0.00    -0.271 N 
ATOM      3  N   UNL     1      32.059 -22.823 -17.272  0.00  0.00    -0.345 NA
ATOM      4  N   UNL     1      38.244 -24.060 -15.067  0.00  0.00    -0.239 N 
ATOM      5  N   UNL     1      37.007 -23.800 -15.520  0.00  0.00    -0.166 NA
ATOM      6  C   UNL     1      32.615 -23.493 -15.037  0.00  0.00    +0.072 C 
ATOM      7  C   UNL     1      33.297 -23.227 -17.618  0.00  0.00    +0.146 C 
ATOM      8  C   UNL     1      33.862 -23.872 -15.525  0.00  0.00    +0.199 C 
ATOM      9  C   UNL     1      31.720 -22.957 -15.977  0.00  0.00    +0.129 C 
ATOM     10  C   UNL     1      32.250 -23.629 -13.687  0.00  0.00    +0.006 C 
ATOM     11  C   UNL     1      30.461 -22.566 -15.527  0.00  0.00    +0.086 C 
ATOM     12  C   UNL     1      36.223 -24.399 -14.620  0.00  0.00    +0.152 C 
ATOM     13  C   UNL     1      30.986 -23.231 -13.264  0.00  0.00    -0.004 C 
ATOM     14  C   UNL     1      30.091 -22.698 -14.185  0.00  0.00    -0.019 C 
ATOM     15  C   UNL     1      36.954 -25.036 -13.600  0.00  0.00    +0.048 C 
ATOM     16  C   UNL     1      38.268 -24.797 -13.920  0.00  0.00    +0.046 C 
ATOM     17  C   UNL     1      39.527 -25.188 -13.265  0.00  0.00    +0.049 C 
ATOM     18  H   UNL     1      34.422 -24.916 -13.881  0.00  0.00    +0.156 HD
ATOM     19  H   UNL     1      39.060 -23.747 -15.523  0.00  0.00    +0.174 HD
ENDROOT
BRANCH   7  20
ATOM     20  C   UNL     1      33.666 -23.075 -19.057  0.00  0.00    +0.243 C 
BRANCH  20  22
ATOM     21  F   UNL     1      37.582 -19.109 -20.000  0.00  0.00    -0.204 F 
ATOM     22  C   UNL     1      34.721 -22.005 -19.311  0.00  0.00    +0.021 C 
ATOM     23  C   UNL     1      34.479 -20.993 -20.240  0.00  0.00    +0.001 C 
ATOM     24  C   UNL     1      35.930 -22.039 -18.615  0.00  0.00    +0.001 C 
ATOM     25  C   UNL     1      35.445 -20.014 -20.472  0.00  0.00    +0.029 C 
ATOM     26  C   UNL     1      36.897 -21.060 -18.848  0.00  0.00    +0.029 C 
ATOM     27  C   UNL     1      36.654 -20.048 -19.777  0.00  0.00    +0.140 C 
ENDBRANCH  20  22
BRANCH  20  28
ATOM     28  O   UNL     1      34.097 -24.316 -19.643  0.00  0.00    -0.366 OA
ATOM     29  H   UNL     1      35.040 -24.450 -19.461  0.00  0.00    +0.212 HD
ENDBRANCH  20  28
ENDBRANCH   7  20
TORSDOF 3
ENDMDL
MODEL 5
REMARK VINA RESULT:     -10.7      3.084      5.546
REMARK  Name = 46892373
REMARK  3 active torsions:
REMARK  status: ('A' for Active; 'I' for Inactive)
REMARK    1  A    between atoms: C_7  and  C_20
REMARK    2  A    between atoms: C_20  and  C_22
REMARK    3  A    between atoms: C_20  and  O_28
REMARK                            x       y       z     vdW  Elec       q    Type
REMARK                         _______ _______ _______ _____ _____    ______ ____
ROOT
ATOM      1  N   UNL     1      32.254 -22.839 -17.102  0.00  0.00    -0.326 NA
ATOM      2  N   UNL     1      30.908 -22.627 -15.183  0.00  0.00    -0.271 N 
ATOM      3  N   UNL     1      34.505 -23.684 -16.939  0.00  0.00    -0.345 NA
ATOM      4  N   UNL     1      27.876 -22.843 -16.859  0.00  0.00    -0.239 N 
ATOM      5  N   UNL     1      29.207 -23.021 -16.888  0.00  0.00    -0.166 NA
ATOM      6  C   UNL     1      33.166 -23.483 -14.958  0.00  0.00    +0.072 C 
ATOM      7  C   UNL     1      33.442 -23.199 -17.612  0.00  0.00    +0.146 C 
ATOM      8  C   UNL     1      32.146 -22.993 -15.769  0.00  0.00    +0.199 C 
ATOM      9  C   UNL     1      34.363 -23.825 -15.608  0.00  0.00    +0.129 C 
ATOM     10  C   UNL     1      33.030 -23.635 -13.568  0.00  0.00    +0.006 C 
ATOM     11  C   UNL     1      35.408 -24.319 -14.830  0.00  0.00    +0.086 C 
ATOM     12  C   UNL     1      29.591 -22.633 -15.669  0.00  0.00    +0.152 C 
ATOM     13  C   UNL     1      34.089 -24.130 -12.814  0.00  0.00    -0.004 C 
ATOM     14  C   UNL     1      35.279 -24.473 -13.447  0.00  0.00    -0.019 C 
ATOM     15  C   UNL     1      28.514 -22.211 -14.868  0.00  0.00    +0.048 C 
ATOM     16  C   UNL     1      27.410 -22.360 -15.672  0.00  0.00    +0.046 C 
ATOM     17  C   UNL     1      25.981 -22.095 -15.439  0.00  0.00    +0.049 C 
ATOM     18  H   UNL     1      30.988 -22.305 -14.256  0.00  0.00    +0.156 HD
ATOM     19  H   UNL     1      27.290 -23.044 -17.625  0.00  0.00    +0.174 HD
ENDROOT
BRANCH   7  20
ATOM     20  C   UNL     1      33.607 -23.045 -19.087  0.00  0.00    +0.243 C 
BRANCH  20  22
ATOM     21  F   UNL     1      37.089 -18.843 -20.565  0.00  0.00    -0.204 F 
ATOM     22  C   UNL     1      34.545 -21.912 -19.485  0.00  0.00    +0.021 C 
ATOM     23  C   UNL     1      34.060 -20.829 -20.218  0.00  0.00    +0.001 C 
ATOM     24  C   UNL     1      35.890 -21.958 -19.119  0.00  0.00    +0.001 C 
ATOM     25  C   UNL     1      34.918 -19.792 -20.582  0.00  0.00    +0.029 C 
ATOM     26  C   UNL     1      36.750 -20.922 -19.484  0.00  0.00    +0.029 C 
ATOM     27  C   UNL     1      36.263 -19.838 -20.216  0.00  0.00    +0.140 C 
ENDBRANCH  20  22
BRANCH  20  28
ATOM     28  O   UNL     1      34.040 -24.264 -19.717  0.00  0.00    -0.366 OA
ATOM     29  H   UNL     1      34.235 -24.928 -19.037  0.00  0.00    +0.212 HD
ENDBRANCH  20  28
ENDBRANCH   7  20
TORSDOF 3
ENDMDL
MODEL 6
REMARK VINA RESULT:     -10.6      2.981      6.069
REMARK  Name = 46892373
REMARK  3 active torsions:
REMARK  status: ('A' for Active; 'I' for Inactive)
REMARK    1  A    between atoms: C_7  and  C_20
REMARK    2  A    between atoms: C_20  and  C_22
REMARK    3  A    between atoms: C_20  and  O_28
REMARK                            x       y       z     vdW  Elec       q    Type
REMARK                         _______ _______ _______ _____ _____    ______ ____
ROOT
ATOM      1  N   UNL     1      33.575 -23.080 -16.435  0.00  0.00    -0.326 NA
ATOM      2  N   UNL     1      35.884 -23.117 -15.986  0.00  0.00    -0.271 N 
ATOM      3  N   UNL     1      32.727 -22.036 -18.435  0.00  0.00    -0.345 NA
ATOM      4  N   UNL     1      35.799 -25.939 -13.964  0.00  0.00    -0.239 N 
ATOM      5  N   UNL     1      35.171 -25.166 -14.866  0.00  0.00    -0.166 NA
ATOM      6  C   UNL     1      35.089 -22.051 -18.013  0.00  0.00    +0.072 C 
ATOM      7  C   UNL     1      32.594 -22.703 -17.271  0.00  0.00    +0.146 C 
ATOM      8  C   UNL     1      34.814 -22.740 -16.835  0.00  0.00    +0.199 C 
ATOM      9  C   UNL     1      33.979 -21.710 -18.804  0.00  0.00    +0.129 C 
ATOM     10  C   UNL     1      36.392 -21.706 -18.409  0.00  0.00    +0.006 C 
ATOM     11  C   UNL     1      34.214 -21.021 -19.992  0.00  0.00    +0.086 C 
ATOM     12  C   UNL     1      36.057 -24.195 -15.102  0.00  0.00    +0.152 C 
ATOM     13  C   UNL     1      36.599 -21.017 -19.600  0.00  0.00    -0.004 C 
ATOM     14  C   UNL     1      35.508 -20.675 -20.392  0.00  0.00    -0.019 C 
ATOM     15  C   UNL     1      37.242 -24.346 -14.357  0.00  0.00    +0.048 C 
ATOM     16  C   UNL     1      37.042 -25.492 -13.626  0.00  0.00    +0.046 C 
ATOM     17  C   UNL     1      37.891 -26.198 -12.653  0.00  0.00    +0.049 C 
ATOM     18  H   UNL     1      36.654 -22.505 -16.021  0.00  0.00    +0.156 HD
ATOM     19  H   UNL     1      35.398 -26.754 -13.583  0.00  0.00    +0.174 HD
ENDROOT
BRANCH   7  20
ATOM     20  C   UNL     1      31.202 -23.060 -16.868  0.00  0.00    +0.243 C 
BRANCH  20  22
ATOM     21  F   UNL     1      30.837 -25.350 -11.712  0.00  0.00    -0.204 F 
ATOM     22  C   UNL     1      31.104 -23.678 -15.478  0.00  0.00    +0.021 C 
ATOM     23  C   UNL     1      30.480 -24.913 -15.307  0.00  0.00    +0.001 C 
ATOM     24  C   UNL     1      31.637 -23.007 -14.377  0.00  0.00    +0.001 C 
ATOM     25  C   UNL     1      30.390 -25.479 -14.035  0.00  0.00    +0.029 C 
ATOM     26  C   UNL     1      31.547 -23.572 -13.104  0.00  0.00    +0.029 C 
ATOM     27  C   UNL     1      30.923 -24.808 -12.934  0.00  0.00    +0.140 C 
ENDBRANCH  20  22
BRANCH  20  28
ATOM     28  O   UNL     1      30.306 -21.937 -16.952  0.00  0.00    -0.366 OA
ATOM     29  H   UNL     1      30.287 -21.473 -16.101  0.00  0.00    +0.212 HD
ENDBRANCH  20  28
ENDBRANCH   7  20
TORSDOF 3
ENDMDL
MODEL 7
REMARK VINA RESULT:     -10.6      1.841      4.828
REMARK  Name = 46892373
REMARK  3 active torsions:
REMARK  status: ('A' for Active; 'I' for Inactive)
REMARK    1  A    between atoms: C_7  and  C_20
REMARK    2  A    between atoms: C_20  and  C_22
REMARK    3  A    between atoms: C_20  and  O_28
REMARK                            x       y       z     vdW  Elec       q    Type
REMARK                         _______ _______ _______ _____ _____    ______ ____
ROOT
ATOM      1  N   UNL     1      33.449 -23.588 -14.772  0.00  0.00    -0.326 NA
ATOM      2  N   UNL     1      32.519 -22.697 -16.741  0.00  0.00    -0.271 N 
ATOM      3  N   UNL     1      32.121 -24.946 -13.289  0.00  0.00    -0.345 NA
ATOM      4  N   UNL     1      35.528 -22.410 -18.448  0.00  0.00    -0.239 N 
ATOM      5  N   UNL     1      34.855 -22.930 -17.409  0.00  0.00    -0.166 NA
ATOM      6  C   UNL     1      31.134 -24.056 -15.287  0.00  0.00    +0.072 C 
ATOM      7  C   UNL     1      33.258 -24.329 -13.669  0.00  0.00    +0.146 C 
ATOM      8  C   UNL     1      32.366 -23.470 -15.563  0.00  0.00    +0.199 C 
ATOM      9  C   UNL     1      31.058 -24.807 -14.102  0.00  0.00    +0.129 C 
ATOM     10  C   UNL     1      30.018 -23.919 -16.128  0.00  0.00    +0.006 C 
ATOM     11  C   UNL     1      29.841 -25.411 -13.792  0.00  0.00    +0.086 C 
ATOM     12  C   UNL     1      33.621 -22.446 -17.574  0.00  0.00    +0.152 C 
ATOM     13  C   UNL     1      28.814 -24.531 -15.794  0.00  0.00    -0.004 C 
ATOM     14  C   UNL     1      28.726 -25.278 -14.624  0.00  0.00    -0.019 C 
ATOM     15  C   UNL     1      33.508 -21.623 -18.710  0.00  0.00    +0.048 C 
ATOM     16  C   UNL     1      34.767 -21.620 -19.258  0.00  0.00    +0.046 C 
ATOM     17  C   UNL     1      35.319 -20.956 -20.450  0.00  0.00    +0.049 C 
ATOM     18  H   UNL     1      31.692 -22.248 -17.031  0.00  0.00    +0.156 HD
ATOM     19  H   UNL     1      36.484 -22.584 -18.611  0.00  0.00    +0.174 HD
ENDROOT
BRANCH   7  20
ATOM     20  C   UNL     1      34.432 -24.487 -12.762  0.00  0.00    +0.243 C 
BRANCH  20  22
ATOM     21  F   UNL     1      39.417 -24.222 -15.415  0.00  0.00    -0.204 F 
ATOM     22  C   UNL     1      35.776 -24.416 -13.477  0.00  0.00    +0.021 C 
ATOM     23  C   UNL     1      36.444 -25.590 -13.825  0.00  0.00    +0.001 C 
ATOM     24  C   UNL     1      36.339 -23.177 -13.783  0.00  0.00    +0.001 C 
ATOM     25  C   UNL     1      37.674 -25.524 -14.481  0.00  0.00    +0.029 C 
ATOM     26  C   UNL     1      37.569 -23.110 -14.437  0.00  0.00    +0.029 C 
ATOM     27  C   UNL     1      38.236 -24.285 -14.786  0.00  0.00    +0.140 C 
ENDBRANCH  20  22
BRANCH  20  28
ATOM     28  O   UNL     1      34.418 -23.535 -11.682  0.00  0.00    -0.366 OA
ATOM     29  H   UNL     1      33.835 -23.855 -10.976  0.00  0.00    +0.212 HD
ENDBRANCH  20  28
ENDBRANCH   7  20
TORSDOF 3
ENDMDL
MODEL 8
REMARK VINA RESULT:     -10.4      1.089      1.569
REMARK  Name = 46892373
REMARK  3 active torsions:
REMARK  status: ('A' for Active; 'I' for Inactive)
REMARK    1  A    between atoms: C_7  and  C_20
REMARK    2  A    between atoms: C_20  and  C_22
REMARK    3  A    between atoms: C_20  and  O_28
REMARK                            x       y       z     vdW  Elec       q    Type
REMARK                         _______ _______ _______ _____ _____    ______ ____
ROOT
ATOM      1  N   UNL     1      32.774 -23.870 -15.172  0.00  0.00    -0.326 NA
ATOM      2  N   UNL     1      31.243 -22.982 -16.723  0.00  0.00    -0.271 N 
ATOM      3  N   UNL     1      35.148 -23.653 -15.525  0.00  0.00    -0.345 NA
ATOM      4  N   UNL     1      28.632 -22.618 -14.464  0.00  0.00    -0.239 N 
ATOM      5  N   UNL     1      29.944 -22.823 -14.662  0.00  0.00    -0.166 NA
ATOM      6  C   UNL     1      33.620 -22.734 -17.131  0.00  0.00    +0.072 C 
ATOM      7  C   UNL     1      34.060 -24.055 -14.837  0.00  0.00    +0.146 C 
ATOM      8  C   UNL     1      32.586 -23.204 -16.326  0.00  0.00    +0.199 C 
ATOM      9  C   UNL     1      34.924 -22.991 -16.674  0.00  0.00    +0.129 C 
ATOM     10  C   UNL     1      33.399 -22.042 -18.333  0.00  0.00    +0.006 C 
ATOM     11  C   UNL     1      35.986 -22.536 -17.452  0.00  0.00    +0.086 C 
ATOM     12  C   UNL     1      30.055 -22.812 -15.993  0.00  0.00    +0.152 C 
ATOM     13  C   UNL     1      34.478 -21.599 -19.091  0.00  0.00    -0.004 C 
ATOM     14  C   UNL     1      35.773 -21.846 -18.649  0.00  0.00    -0.019 C 
ATOM     15  C   UNL     1      28.823 -22.602 -16.640  0.00  0.00    +0.048 C 
ATOM     16  C   UNL     1      27.916 -22.479 -15.616  0.00  0.00    +0.046 C 
ATOM     17  C   UNL     1      26.462 -22.249 -15.614  0.00  0.00    +0.049 C 
ATOM     18  H   UNL     1      31.118 -22.942 -17.698  0.00  0.00    +0.156 HD
ATOM     19  H   UNL     1      28.224 -22.572 -13.569  0.00  0.00    +0.174 HD
ENDROOT
BRANCH   7  20
ATOM     20  C   UNL     1      34.317 -24.789 -13.563  0.00  0.00    +0.243 C 
BRANCH  20  22
ATOM     21  F   UNL     1      39.334 -23.621 -11.233  0.00  0.00    -0.204 F 
ATOM     22  C   UNL     1      35.669 -24.474 -12.934  0.00  0.00    +0.021 C 
ATOM     23  C   UNL     1      35.795 -23.402 -12.050  0.00  0.00    +0.001 C 
ATOM     24  C   UNL     1      36.782 -25.257 -13.244  0.00  0.00    +0.001 C 
ATOM     25  C   UNL     1      37.033 -23.114 -11.475  0.00  0.00    +0.029 C 
ATOM     26  C   UNL     1      38.020 -24.969 -12.670  0.00  0.00    +0.029 C 
ATOM     27  C   UNL     1      38.145 -23.897 -11.785  0.00  0.00    +0.140 C 
ENDBRANCH  20  22
BRANCH  20  28
ATOM     28  O   UNL     1      33.279 -24.571 -12.590  0.00  0.00    -0.366 OA
ATOM     29  H   UNL     1      32.412 -24.666 -13.014  0.00  0.00    +0.212 HD
ENDBRANCH  20  28
ENDBRANCH   7  20
TORSDOF 3
ENDMDL
MODEL 9
REMARK VINA RESULT:     -10.4      2.872      5.805
REMARK  Name = 46892373
REMARK  3 active torsions:
REMARK  status: ('A' for Active; 'I' for Inactive)
REMARK    1  A    between atoms: C_7  and  C_20
REMARK    2  A    between atoms: C_20  and  C_22
REMARK    3  A    between atoms: C_20  and  O_28
REMARK                            x       y       z     vdW  Elec       q    Type
REMARK                         _______ _______ _______ _____ _____    ______ ____
ROOT
ATOM      1  N   UNL     1      35.680 -22.647 -15.470  0.00  0.00    -0.326 NA
ATOM      2  N   UNL     1      34.048 -23.368 -13.936  0.00  0.00    -0.271 N 
ATOM      3  N   UNL     1      37.958 -23.415 -15.293  0.00  0.00    -0.345 NA
ATOM      4  N   UNL     1      31.341 -22.876 -16.054  0.00  0.00    -0.239 N 
ATOM      5  N   UNL     1      32.673 -22.986 -15.917  0.00  0.00    -0.166 NA
ATOM      6  C   UNL     1      36.323 -24.173 -13.708  0.00  0.00    +0.072 C 
ATOM      7  C   UNL     1      36.963 -22.705 -15.862  0.00  0.00    +0.146 C 
ATOM      8  C   UNL     1      35.391 -23.395 -14.389  0.00  0.00    +0.199 C 
ATOM      9  C   UNL     1      37.634 -24.150 -14.214  0.00  0.00    +0.129 C 
ATOM     10  C   UNL     1      35.997 -24.944 -12.581  0.00  0.00    +0.006 C 
ATOM     11  C   UNL     1      38.596 -24.917 -13.560  0.00  0.00    +0.086 C 
ATOM     12  C   UNL     1      32.826 -23.186 -14.605  0.00  0.00    +0.152 C 
ATOM     13  C   UNL     1      36.977 -25.701 -11.947  0.00  0.00    -0.004 C 
ATOM     14  C   UNL     1      38.278 -25.687 -12.438  0.00  0.00    -0.019 C 
ATOM     15  C   UNL     1      31.603 -23.203 -13.910  0.00  0.00    +0.048 C 
ATOM     16  C   UNL     1      30.654 -22.998 -14.883  0.00  0.00    +0.046 C 
ATOM     17  C   UNL     1      29.187 -22.905 -14.820  0.00  0.00    +0.049 C 
ATOM     18  H   UNL     1      33.952 -23.501 -12.966  0.00  0.00    +0.156 HD
ATOM     19  H   UNL     1      30.901 -22.721 -16.922  0.00  0.00    +0.174 HD
ENDROOT
BRANCH   7  20
ATOM     20  C   UNL     1      37.330 -21.892 -17.058  0.00  0.00    +0.243 C 
BRANCH  20  22
ATOM     21  F   UNL     1      33.067 -21.129 -20.691  0.00  0.00    -0.204 F 
ATOM     22  C   UNL     1      36.181 -21.686 -18.038  0.00  0.00    +0.021 C 
ATOM     23  C   UNL     1      36.367 -20.900 -19.175  0.00  0.00    +0.001 C 
ATOM     24  C   UNL     1      34.944 -22.283 -17.797  0.00  0.00    +0.001 C 
ATOM     25  C   UNL     1      35.315 -20.712 -20.072  0.00  0.00    +0.029 C 
ATOM     26  C   UNL     1      33.891 -22.095 -18.693  0.00  0.00    +0.029 C 
ATOM     27  C   UNL     1      34.077 -21.309 -19.831  0.00  0.00    +0.140 C 
ENDBRANCH  20  22
BRANCH  20  28
ATOM     28  O   UNL     1      37.882 -20.612 -16.698  0.00  0.00    -0.366 OA
ATOM     29  H   UNL     1      37.257 -19.911 -16.938  0.00  0.00    +0.212 HD
ENDBRANCH  20  28
ENDBRANCH   7  20
TORSDOF 3
ENDMDL
