MODEL 1
REMARK VINA RESULT:     -12.1      0.000      0.000
REMARK  Name = 9911830
REMARK  5 active torsions:
REMARK  status: ('A' for Active; 'I' for Inactive)
REMARK    1  A    between atoms: C_2  and  O_20
REMARK    2  A    between atoms: C_3  and  N_10
REMARK    3  A    between atoms: O_20  and  C_24
REMARK    4  A    between atoms: C_26  and  O_31
REMARK    5  A    between atoms: C_28  and  O_33
REMARK                            x       y       z     vdW  Elec       q    Type
REMARK                         _______ _______ _______ _____ _____    ______ ____
ROOT
ATOM      1 CL   UNL     1      37.451 -19.130 -21.024  0.00  0.00    -0.081 Cl
ATOM      2  C   UNL     1      35.090 -21.741 -19.174  0.00  0.00    +0.146 C 
ATOM      3  C   UNL     1      34.766 -19.606 -20.905  0.00  0.00    +0.062 C 
ATOM      4  C   UNL     1      36.207 -21.052 -19.613  0.00  0.00    +0.050 C 
ATOM      5  C   UNL     1      33.815 -21.388 -19.580  0.00  0.00    +0.039 C 
ATOM      6  C   UNL     1      36.044 -19.977 -20.486  0.00  0.00    +0.074 C 
ATOM      7  C   UNL     1      33.652 -20.313 -20.453  0.00  0.00    +0.019 C 
ENDROOT
BRANCH   3  10
ATOM      8  O   UNL     1      34.462 -12.930 -22.399  0.00  0.00    -0.357 OA
ATOM      9  O   UNL     1      34.900 -16.664 -20.410  0.00  0.00    -0.252 OA
ATOM     10  N   UNL     1      34.568 -18.534 -21.781  0.00  0.00    -0.267 N 
ATOM     11  N   UNL     1      34.374 -16.417 -22.675  0.00  0.00    -0.251 N 
ATOM     12  N   UNL     1      34.587 -14.192 -21.832  0.00  0.00    -0.062 NA
ATOM     13  C   UNL     1      34.642 -17.148 -21.508  0.00  0.00    +0.309 C 
ATOM     14  C   UNL     1      34.346 -15.011 -22.836  0.00  0.00    +0.177 C 
ATOM     15  C   UNL     1      34.069 -14.386 -24.041  0.00  0.00    +0.073 C 
ATOM     16  C   UNL     1      34.154 -13.059 -23.715  0.00  0.00    +0.156 C 
ATOM     17  C   UNL     1      33.985 -11.813 -24.474  0.00  0.00    +0.075 C 
ATOM     18  H   UNL     1      34.350 -18.776 -22.710  0.00  0.00    +0.156 HD
ATOM     19  H   UNL     1      34.182 -16.947 -23.483  0.00  0.00    +0.158 HD
ENDBRANCH   3  10
BRANCH   2  20
ATOM     20  O   UNL     1      35.251 -22.807 -18.307  0.00  0.00    -0.453 OA
BRANCH  20  24
ATOM     21  N   UNL     1      32.523 -23.115 -15.199  0.00  0.00    -0.244 NA
ATOM     22  C   UNL     1      34.812 -23.109 -15.952  0.00  0.00    +0.055 C 
ATOM     23  C   UNL     1      33.840 -23.207 -14.935  0.00  0.00    +0.087 C 
ATOM     24  C   UNL     1      34.372 -22.912 -17.268  0.00  0.00    +0.148 C 
ATOM     25  C   UNL     1      36.179 -23.210 -15.640  0.00  0.00    +0.045 C 
ATOM     26  C   UNL     1      36.588 -23.405 -14.324  0.00  0.00    +0.173 C 
ATOM     27  C   UNL     1      34.277 -23.403 -13.627  0.00  0.00    +0.059 C 
ATOM     28  C   UNL     1      35.636 -23.502 -13.318  0.00  0.00    +0.174 C 
ATOM     29  C   UNL     1      33.015 -22.817 -17.543  0.00  0.00    +0.058 C 
ATOM     30  C   UNL     1      32.140 -22.925 -16.482  0.00  0.00    +0.102 C 
BRANCH  26  31
ATOM     31  O   UNL     1      37.916 -23.500 -14.039  0.00  0.00    -0.468 OA
ATOM     32  C   UNL     1      38.550 -24.750 -14.304  0.00  0.00    +0.253 C 
ENDBRANCH  26  31
BRANCH  28  33
ATOM     33  O   UNL     1      36.014 -23.694 -12.022  0.00  0.00    -0.468 OA
ATOM     34  C   UNL     1      35.944 -25.025 -11.516  0.00  0.00    +0.253 C 
ENDBRANCH  28  33
ENDBRANCH  20  24
ENDBRANCH   2  20
TORSDOF 5
ENDMDL
MODEL 2
REMARK VINA RESULT:     -12.0      1.503      2.388
REMARK  Name = 9911830
REMARK  5 active torsions:
REMARK  status: ('A' for Active; 'I' for Inactive)
REMARK    1  A    between atoms: C_2  and  O_20
REMARK    2  A    between atoms: C_3  and  N_10
REMARK    3  A    between atoms: O_20  and  C_24
REMARK    4  A    between atoms: C_26  and  O_31
REMARK    5  A    between atoms: C_28  and  O_33
REMARK                            x       y       z     vdW  Elec       q    Type
REMARK                         _______ _______ _______ _____ _____    ______ ____
ROOT
ATOM      1 CL   UNL     1      37.322 -19.424 -21.020  0.00  0.00    -0.081 Cl
ATOM      2  C   UNL     1      34.806 -21.756 -19.008  0.00  0.00    +0.146 C 
ATOM      3  C   UNL     1      34.611 -19.680 -20.828  0.00  0.00    +0.062 C 
ATOM      4  C   UNL     1      35.963 -21.177 -19.500  0.00  0.00    +0.050 C 
ATOM      5  C   UNL     1      33.553 -21.320 -19.406  0.00  0.00    +0.039 C 
ATOM      6  C   UNL     1      35.865 -20.132 -20.417  0.00  0.00    +0.074 C 
ATOM      7  C   UNL     1      33.456 -20.275 -20.323  0.00  0.00    +0.019 C 
ENDROOT
BRANCH   3  10
ATOM      8  O   UNL     1      34.450 -13.053 -22.546  0.00  0.00    -0.357 OA
ATOM      9  O   UNL     1      34.732 -16.724 -20.418  0.00  0.00    -0.252 OA
ATOM     10  N   UNL     1      34.478 -18.635 -21.749  0.00  0.00    -0.267 N 
ATOM     11  N   UNL     1      34.357 -16.546 -22.719  0.00  0.00    -0.251 N 
ATOM     12  N   UNL     1      34.529 -14.297 -21.933  0.00  0.00    -0.062 NA
ATOM     13  C   UNL     1      34.543 -17.241 -21.514  0.00  0.00    +0.309 C 
ATOM     14  C   UNL     1      34.350 -15.146 -22.925  0.00  0.00    +0.177 C 
ATOM     15  C   UNL     1      34.156 -14.558 -24.164  0.00  0.00    +0.073 C 
ATOM     16  C   UNL     1      34.228 -13.221 -23.875  0.00  0.00    +0.156 C 
ATOM     17  C   UNL     1      34.117 -11.999 -24.681  0.00  0.00    +0.075 C 
ATOM     18  H   UNL     1      34.320 -18.904 -22.682  0.00  0.00    +0.156 HD
ATOM     19  H   UNL     1      34.215 -17.100 -23.521  0.00  0.00    +0.158 HD
ENDBRANCH   3  10
BRANCH   2  20
ATOM     20  O   UNL     1      34.902 -22.791 -18.097  0.00  0.00    -0.453 OA
BRANCH  20  24
ATOM     21  N   UNL     1      37.535 -22.256 -14.939  0.00  0.00    -0.244 NA
ATOM     22  C   UNL     1      35.433 -23.099 -15.761  0.00  0.00    +0.055 C 
ATOM     23  C   UNL     1      36.366 -22.889 -14.726  0.00  0.00    +0.087 C 
ATOM     24  C   UNL     1      35.752 -22.627 -17.042  0.00  0.00    +0.148 C 
ATOM     25  C   UNL     1      34.222 -23.764 -15.503  0.00  0.00    +0.045 C 
ATOM     26  C   UNL     1      33.931 -24.223 -14.222  0.00  0.00    +0.173 C 
ATOM     27  C   UNL     1      36.049 -23.358 -13.453  0.00  0.00    +0.059 C 
ATOM     28  C   UNL     1      34.845 -24.019 -13.196  0.00  0.00    +0.174 C 
ATOM     29  C   UNL     1      36.956 -21.974 -17.265  0.00  0.00    +0.058 C 
ATOM     30  C   UNL     1      37.805 -21.816 -16.189  0.00  0.00    +0.102 C 
BRANCH  26  31
ATOM     31  O   UNL     1      32.753 -24.865 -13.988  0.00  0.00    -0.468 OA
ATOM     32  C   UNL     1      31.588 -24.055 -13.846  0.00  0.00    +0.253 C 
ENDBRANCH  26  31
BRANCH  28  33
ATOM     33  O   UNL     1      34.581 -24.461 -11.934  0.00  0.00    -0.468 OA
ATOM     34  C   UNL     1      35.700 -24.714 -11.088  0.00  0.00    +0.253 C 
ENDBRANCH  28  33
ENDBRANCH  20  24
ENDBRANCH   2  20
TORSDOF 5
ENDMDL
MODEL 3
REMARK VINA RESULT:     -11.9      2.266      3.278
REMARK  Name = 9911830
REMARK  5 active torsions:
REMARK  status: ('A' for Active; 'I' for Inactive)
REMARK    1  A    between atoms: C_2  and  O_20
REMARK    2  A    between atoms: C_3  and  N_10
REMARK    3  A    between atoms: O_20  and  C_24
REMARK    4  A    between atoms: C_26  and  O_31
REMARK    5  A    between atoms: C_28  and  O_33
REMARK                            x       y       z     vdW  Elec       q    Type
REMARK                         _______ _______ _______ _____ _____    ______ ____
ROOT
ATOM      1 CL   UNL     1      37.514 -18.631 -21.336  0.00  0.00    -0.081 Cl
ATOM      2  C   UNL     1      35.277 -21.408 -19.578  0.00  0.00    +0.146 C 
ATOM      3  C   UNL     1      34.846 -19.029 -20.924  0.00  0.00    +0.062 C 
ATOM      4  C   UNL     1      36.362 -20.699 -20.061  0.00  0.00    +0.050 C 
ATOM      5  C   UNL     1      33.980 -20.956 -19.753  0.00  0.00    +0.039 C 
ATOM      6  C   UNL     1      36.146 -19.500 -20.740  0.00  0.00    +0.074 C 
ATOM      7  C   UNL     1      33.763 -19.757 -20.432  0.00  0.00    +0.019 C 
ENDROOT
BRANCH   3  10
ATOM      8  O   UNL     1      34.131 -15.276 -26.608  0.00  0.00    -0.357 OA
ATOM      9  O   UNL     1      34.782 -18.451 -23.854  0.00  0.00    -0.252 OA
ATOM     10  N   UNL     1      34.594 -17.832 -21.603  0.00  0.00    -0.267 N 
ATOM     11  N   UNL     1      34.276 -16.249 -23.250  0.00  0.00    -0.251 N 
ATOM     12  N   UNL     1      34.328 -16.251 -25.638  0.00  0.00    -0.062 NA
ATOM     13  C   UNL     1      34.571 -17.598 -22.998  0.00  0.00    +0.309 C 
ATOM     14  C   UNL     1      34.158 -15.603 -24.504  0.00  0.00    +0.177 C 
ATOM     15  C   UNL     1      33.861 -14.257 -24.643  0.00  0.00    +0.073 C 
ATOM     16  C   UNL     1      33.854 -14.092 -26.003  0.00  0.00    +0.156 C 
ATOM     17  C   UNL     1      33.617 -12.944 -26.886  0.00  0.00    +0.075 C 
ATOM     18  H   UNL     1      34.406 -17.050 -21.035  0.00  0.00    +0.156 HD
ATOM     19  H   UNL     1      34.131 -15.683 -22.458  0.00  0.00    +0.158 HD
ENDBRANCH   3  10
BRANCH   2  20
ATOM     20  O   UNL     1      35.491 -22.596 -18.903  0.00  0.00    -0.453 OA
BRANCH  20  24
ATOM     21  N   UNL     1      36.454 -22.347 -14.877  0.00  0.00    -0.244 NA
ATOM     22  C   UNL     1      34.830 -22.825 -16.592  0.00  0.00    +0.055 C 
ATOM     23  C   UNL     1      35.213 -22.723 -15.239  0.00  0.00    +0.087 C 
ATOM     24  C   UNL     1      35.784 -22.521 -17.572  0.00  0.00    +0.148 C 
ATOM     25  C   UNL     1      33.525 -23.221 -16.933  0.00  0.00    +0.045 C 
ATOM     26  C   UNL     1      32.597 -23.518 -15.939  0.00  0.00    +0.173 C 
ATOM     27  C   UNL     1      34.264 -23.025 -14.265  0.00  0.00    +0.059 C 
ATOM     28  C   UNL     1      32.967 -23.420 -14.604  0.00  0.00    +0.174 C 
ATOM     29  C   UNL     1      37.064 -22.132 -17.203  0.00  0.00    +0.058 C 
ATOM     30  C   UNL     1      37.345 -22.062 -15.854  0.00  0.00    +0.102 C 
BRANCH  26  31
ATOM     31  O   UNL     1      31.337 -23.901 -16.286  0.00  0.00    -0.468 OA
ATOM     32  C   UNL     1      30.308 -22.918 -16.184  0.00  0.00    +0.253 C 
ENDBRANCH  26  31
BRANCH  28  33
ATOM     33  O   UNL     1      32.075 -23.706 -13.614  0.00  0.00    -0.468 OA
ATOM     34  C   UNL     1      31.930 -25.076 -13.247  0.00  0.00    +0.253 C 
ENDBRANCH  28  33
ENDBRANCH  20  24
ENDBRANCH   2  20
TORSDOF 5
ENDMDL
MODEL 4
REMARK VINA RESULT:     -11.5      1.449      1.605
REMARK  Name = 9911830
REMARK  5 active torsions:
REMARK  status: ('A' for Active; 'I' for Inactive)
REMARK    1  A    between atoms: C_2  and  O_20
REMARK    2  A    between atoms: C_3  and  N_10
REMARK    3  A    between atoms: O_20  and  C_24
REMARK    4  A    between atoms: C_26  and  O_31
REMARK    5  A    between atoms: C_28  and  O_33
REMARK                            x       y       z     vdW  Elec       q    Type
REMARK                         _______ _______ _______ _____ _____    ______ ____
ROOT
ATOM      1 CL   UNL     1      37.486 -18.867 -20.836  0.00  0.00    -0.081 Cl
ATOM      2  C   UNL     1      35.048 -21.599 -19.288  0.00  0.00    +0.146 C 
ATOM      3  C   UNL     1      34.785 -19.233 -20.700  0.00  0.00    +0.062 C 
ATOM      4  C   UNL     1      36.185 -20.906 -19.663  0.00  0.00    +0.050 C 
ATOM      5  C   UNL     1      33.781 -21.136 -19.602  0.00  0.00    +0.039 C 
ATOM      6  C   UNL     1      36.054 -19.715 -20.376  0.00  0.00    +0.074 C 
ATOM      7  C   UNL     1      33.650 -19.944 -20.315  0.00  0.00    +0.019 C 
ENDROOT
BRANCH   3  10
ATOM      8  O   UNL     1      34.154 -15.641 -26.496  0.00  0.00    -0.357 OA
ATOM      9  O   UNL     1      34.627 -18.761 -23.645  0.00  0.00    -0.252 OA
ATOM     10  N   UNL     1      34.618 -18.043 -21.416  0.00  0.00    -0.267 N 
ATOM     11  N   UNL     1      34.374 -16.499 -23.112  0.00  0.00    -0.251 N 
ATOM     12  N   UNL     1      34.302 -16.595 -25.497  0.00  0.00    -0.062 NA
ATOM     13  C   UNL     1      34.547 -17.860 -22.817  0.00  0.00    +0.309 C 
ATOM     14  C   UNL     1      34.257 -15.891 -24.384  0.00  0.00    +0.177 C 
ATOM     15  C   UNL     1      34.088 -14.528 -24.566  0.00  0.00    +0.073 C 
ATOM     16  C   UNL     1      34.027 -14.414 -25.929  0.00  0.00    +0.156 C 
ATOM     17  C   UNL     1      33.860 -13.281 -26.849  0.00  0.00    +0.075 C 
ATOM     18  H   UNL     1      34.539 -17.226 -20.873  0.00  0.00    +0.156 HD
ATOM     19  H   UNL     1      34.328 -15.891 -22.338  0.00  0.00    +0.158 HD
ENDBRANCH   3  10
BRANCH   2  20
ATOM     20  O   UNL     1      35.177 -22.779 -18.579  0.00  0.00    -0.453 OA
BRANCH  20  24
ATOM     21  N   UNL     1      32.712 -23.273 -15.281  0.00  0.00    -0.244 NA
ATOM     22  C   UNL     1      34.934 -23.146 -16.205  0.00  0.00    +0.055 C 
ATOM     23  C   UNL     1      34.048 -23.308 -15.120  0.00  0.00    +0.087 C 
ATOM     24  C   UNL     1      34.386 -22.945 -17.479  0.00  0.00    +0.148 C 
ATOM     25  C   UNL     1      36.324 -23.188 -15.999  0.00  0.00    +0.045 C 
ATOM     26  C   UNL     1      36.841 -23.389 -14.723  0.00  0.00    +0.173 C 
ATOM     27  C   UNL     1      34.593 -23.508 -13.854  0.00  0.00    +0.059 C 
ATOM     28  C   UNL     1      35.974 -23.549 -13.650  0.00  0.00    +0.174 C 
ATOM     29  C   UNL     1      33.009 -22.908 -17.649  0.00  0.00    +0.058 C 
ATOM     30  C   UNL     1      32.223 -23.076 -16.527  0.00  0.00    +0.102 C 
BRANCH  26  31
ATOM     31  O   UNL     1      38.190 -23.427 -14.541  0.00  0.00    -0.468 OA
ATOM     32  C   UNL     1      38.826 -24.698 -14.661  0.00  0.00    +0.253 C 
ENDBRANCH  26  31
BRANCH  28  33
ATOM     33  O   UNL     1      36.459 -23.747 -12.391  0.00  0.00    -0.468 OA
ATOM     34  C   UNL     1      35.614 -24.436 -11.472  0.00  0.00    +0.253 C 
ENDBRANCH  28  33
ENDBRANCH  20  24
ENDBRANCH   2  20
TORSDOF 5
ENDMDL
MODEL 5
REMARK VINA RESULT:     -11.3      1.850      3.038
REMARK  Name = 9911830
REMARK  5 active torsions:
REMARK  status: ('A' for Active; 'I' for Inactive)
REMARK    1  A    between atoms: C_2  and  O_20
REMARK    2  A    between atoms: C_3  and  N_10
REMARK    3  A    between atoms: O_20  and  C_24
REMARK    4  A    between atoms: C_26  and  O_31
REMARK    5  A    between atoms: C_28  and  O_33
REMARK                            x       y       z     vdW  Elec       q    Type
REMARK                         _______ _______ _______ _____ _____    ______ ____
ROOT
ATOM      1 CL   UNL     1      37.377 -19.316 -21.113  0.00  0.00    -0.081 Cl
ATOM      2  C   UNL     1      34.828 -21.840 -19.399  0.00  0.00    +0.146 C 
ATOM      3  C   UNL     1      34.664 -19.584 -20.994  0.00  0.00    +0.062 C 
ATOM      4  C   UNL     1      35.993 -21.216 -19.808  0.00  0.00    +0.050 C 
ATOM      5  C   UNL     1      33.582 -21.362 -19.769  0.00  0.00    +0.039 C 
ATOM      6  C   UNL     1      35.911 -20.080 -20.612  0.00  0.00    +0.074 C 
ATOM      7  C   UNL     1      33.500 -20.226 -20.573  0.00  0.00    +0.019 C 
ENDROOT
BRANCH   3  10
ATOM      8  O   UNL     1      34.370 -12.815 -21.985  0.00  0.00    -0.357 OA
ATOM      9  O   UNL     1      34.659 -16.690 -20.257  0.00  0.00    -0.252 OA
ATOM     10  N   UNL     1      34.547 -18.448 -21.801  0.00  0.00    -0.267 N 
ATOM     11  N   UNL     1      34.408 -16.268 -22.543  0.00  0.00    -0.251 N 
ATOM     12  N   UNL     1      34.457 -14.116 -21.508  0.00  0.00    -0.062 NA
ATOM     13  C   UNL     1      34.550 -17.088 -21.412  0.00  0.00    +0.309 C 
ATOM     14  C   UNL     1      34.364 -14.855 -22.595  0.00  0.00    +0.177 C 
ATOM     15  C   UNL     1      34.219 -14.139 -23.772  0.00  0.00    +0.073 C 
ATOM     16  C   UNL     1      34.229 -12.841 -23.336  0.00  0.00    +0.156 C 
ATOM     17  C   UNL     1      34.121 -11.541 -24.009  0.00  0.00    +0.075 C 
ATOM     18  H   UNL     1      34.451 -18.617 -22.765  0.00  0.00    +0.156 HD
ATOM     19  H   UNL     1      34.331 -16.734 -23.407  0.00  0.00    +0.158 HD
ENDBRANCH   3  10
BRANCH   2  20
ATOM     20  O   UNL     1      34.907 -22.966 -18.600  0.00  0.00    -0.453 OA
BRANCH  20  24
ATOM     21  N   UNL     1      35.690 -22.381 -14.570  0.00  0.00    -0.244 NA
ATOM     22  C   UNL     1      34.136 -22.978 -16.312  0.00  0.00    +0.055 C 
ATOM     23  C   UNL     1      34.458 -22.764 -14.956  0.00  0.00    +0.087 C 
ATOM     24  C   UNL     1      35.141 -22.779 -17.268  0.00  0.00    +0.148 C 
ATOM     25  C   UNL     1      32.839 -23.377 -16.679  0.00  0.00    +0.045 C 
ATOM     26  C   UNL     1      31.860 -23.567 -15.709  0.00  0.00    +0.173 C 
ATOM     27  C   UNL     1      33.459 -22.960 -14.006  0.00  0.00    +0.059 C 
ATOM     28  C   UNL     1      32.171 -23.358 -14.371  0.00  0.00    +0.174 C 
ATOM     29  C   UNL     1      36.411 -22.385 -16.874  0.00  0.00    +0.058 C 
ATOM     30  C   UNL     1      36.632 -22.200 -15.524  0.00  0.00    +0.102 C 
BRANCH  26  31
ATOM     31  O   UNL     1      30.608 -23.955 -16.081  0.00  0.00    -0.468 OA
ATOM     32  C   UNL     1      29.616 -22.935 -16.182  0.00  0.00    +0.253 C 
ENDBRANCH  26  31
BRANCH  28  33
ATOM     33  O   UNL     1      31.227 -23.538 -13.404  0.00  0.00    -0.468 OA
ATOM     34  C   UNL     1      30.978 -24.878 -12.983  0.00  0.00    +0.253 C 
ENDBRANCH  28  33
ENDBRANCH  20  24
ENDBRANCH   2  20
TORSDOF 5
ENDMDL
MODEL 6
REMARK VINA RESULT:     -11.3      1.259      1.547
REMARK  Name = 9911830
REMARK  5 active torsions:
REMARK  status: ('A' for Active; 'I' for Inactive)
REMARK    1  A    between atoms: C_2  and  O_20
REMARK    2  A    between atoms: C_3  and  N_10
REMARK    3  A    between atoms: O_20  and  C_24
REMARK    4  A    between atoms: C_26  and  O_31
REMARK    5  A    between atoms: C_28  and  O_33
REMARK                            x       y       z     vdW  Elec       q    Type
REMARK                         _______ _______ _______ _____ _____    ______ ____
ROOT
ATOM      1 CL   UNL     1      32.587 -20.513 -20.521  0.00  0.00    -0.081 Cl
ATOM      2  C   UNL     1      35.892 -21.700 -18.657  0.00  0.00    +0.146 C 
ATOM      3  C   UNL     1      35.246 -19.919 -20.675  0.00  0.00    +0.062 C 
ATOM      4  C   UNL     1      34.570 -21.566 -19.042  0.00  0.00    +0.050 C 
ATOM      5  C   UNL     1      36.900 -20.965 -19.259  0.00  0.00    +0.039 C 
ATOM      6  C   UNL     1      34.244 -20.668 -20.057  0.00  0.00    +0.074 C 
ATOM      7  C   UNL     1      36.574 -20.067 -20.274  0.00  0.00    +0.019 C 
ENDROOT
BRANCH   3  10
ATOM      8  O   UNL     1      34.359 -13.587 -23.126  0.00  0.00    -0.357 OA
ATOM      9  O   UNL     1      35.127 -16.936 -20.619  0.00  0.00    -0.252 OA
ATOM     10  N   UNL     1      34.953 -19.009 -21.695  0.00  0.00    -0.267 N 
ATOM     11  N   UNL     1      34.573 -17.071 -22.887  0.00  0.00    -0.251 N 
ATOM     12  N   UNL     1      34.595 -14.737 -22.382  0.00  0.00    -0.062 NA
ATOM     13  C   UNL     1      34.908 -17.597 -21.629  0.00  0.00    +0.309 C 
ATOM     14  C   UNL     1      34.423 -15.712 -23.251  0.00  0.00    +0.177 C 
ATOM     15  C   UNL     1      34.087 -15.297 -24.530  0.00  0.00    +0.073 C 
ATOM     16  C   UNL     1      34.058 -13.934 -24.404  0.00  0.00    +0.156 C 
ATOM     17  C   UNL     1      33.779 -12.833 -25.334  0.00  0.00    +0.075 C 
ATOM     18  H   UNL     1      34.754 -19.403 -22.575  0.00  0.00    +0.156 HD
ATOM     19  H   UNL     1      34.425 -17.729 -23.605  0.00  0.00    +0.158 HD
ENDBRANCH   3  10
BRANCH   2  20
ATOM     20  O   UNL     1      36.217 -22.592 -17.651  0.00  0.00    -0.453 OA
BRANCH  20  24
ATOM     21  N   UNL     1      33.140 -23.718 -15.109  0.00  0.00    -0.244 NA
ATOM     22  C   UNL     1      35.502 -23.467 -15.517  0.00  0.00    +0.055 C 
ATOM     23  C   UNL     1      34.416 -23.835 -14.696  0.00  0.00    +0.087 C 
ATOM     24  C   UNL     1      35.221 -22.969 -16.797  0.00  0.00    +0.148 C 
ATOM     25  C   UNL     1      36.822 -23.603 -15.053  0.00  0.00    +0.045 C 
ATOM     26  C   UNL     1      37.072 -24.100 -13.778  0.00  0.00    +0.173 C 
ATOM     27  C   UNL     1      34.695 -24.330 -13.424  0.00  0.00    +0.059 C 
ATOM     28  C   UNL     1      36.007 -24.464 -12.963  0.00  0.00    +0.174 C 
ATOM     29  C   UNL     1      33.908 -22.848 -17.226  0.00  0.00    +0.058 C 
ATOM     30  C   UNL     1      32.912 -23.232 -16.351  0.00  0.00    +0.102 C 
BRANCH  26  31
ATOM     31  O   UNL     1      38.356 -24.225 -13.343  0.00  0.00    -0.468 OA
ATOM     32  C   UNL     1      39.071 -25.389 -13.754  0.00  0.00    +0.253 C 
ENDBRANCH  26  31
BRANCH  28  33
ATOM     33  O   UNL     1      36.229 -24.953 -11.710  0.00  0.00    -0.468 OA
ATOM     34  C   UNL     1      36.089 -24.041 -10.624  0.00  0.00    +0.253 C 
ENDBRANCH  28  33
ENDBRANCH  20  24
ENDBRANCH   2  20
TORSDOF 5
ENDMDL
MODEL 7
REMARK VINA RESULT:     -11.1      7.093     16.037
REMARK  Name = 9911830
REMARK  5 active torsions:
REMARK  status: ('A' for Active; 'I' for Inactive)
REMARK    1  A    between atoms: C_2  and  O_20
REMARK    2  A    between atoms: C_3  and  N_10
REMARK    3  A    between atoms: O_20  and  C_24
REMARK    4  A    between atoms: C_26  and  O_31
REMARK    5  A    between atoms: C_28  and  O_33
REMARK                            x       y       z     vdW  Elec       q    Type
REMARK                         _______ _______ _______ _____ _____    ______ ____
ROOT
ATOM      1 CL   UNL     1      31.933 -11.409 -22.350  0.00  0.00    -0.081 Cl
ATOM      2  C   UNL     1      34.196  -8.259 -23.228  0.00  0.00    +0.146 C 
ATOM      3  C   UNL     1      34.228 -10.975 -23.762  0.00  0.00    +0.062 C 
ATOM      4  C   UNL     1      33.187  -9.059 -22.721  0.00  0.00    +0.050 C 
ATOM      5  C   UNL     1      35.221  -8.785 -23.996  0.00  0.00    +0.039 C 
ATOM      6  C   UNL     1      33.202 -10.427 -22.991  0.00  0.00    +0.074 C 
ATOM      7  C   UNL     1      35.236 -10.153 -24.266  0.00  0.00    +0.019 C 
ENDROOT
BRANCH   3  10
ATOM      8  O   UNL     1      35.123 -17.545 -22.053  0.00  0.00    -0.357 OA
ATOM      9  O   UNL     1      34.806 -13.304 -21.985  0.00  0.00    -0.252 OA
ATOM     10  N   UNL     1      34.271 -12.342 -24.053  0.00  0.00    -0.267 N 
ATOM     11  N   UNL     1      34.488 -14.632 -23.883  0.00  0.00    -0.251 N 
ATOM     12  N   UNL     1      34.998 -16.163 -22.123  0.00  0.00    -0.062 NA
ATOM     13  C   UNL     1      34.549 -13.419 -23.179  0.00  0.00    +0.309 C 
ATOM     14  C   UNL     1      34.701 -15.940 -23.387  0.00  0.00    +0.177 C 
ATOM     15  C   UNL     1      34.616 -17.078 -24.173  0.00  0.00    +0.073 C 
ATOM     16  C   UNL     1      34.893 -18.079 -23.280  0.00  0.00    +0.156 C 
ATOM     17  C   UNL     1      34.985 -19.540 -23.387  0.00  0.00    +0.075 C 
ATOM     18  H   UNL     1      34.082 -12.587 -24.987  0.00  0.00    +0.156 HD
ATOM     19  H   UNL     1      34.270 -14.565 -24.842  0.00  0.00    +0.158 HD
ENDBRANCH   3  10
BRANCH   2  20
ATOM     20  O   UNL     1      34.183  -6.903 -22.959  0.00  0.00    -0.453 OA
BRANCH  20  24
ATOM     21  N   UNL     1      33.808  -4.348 -26.204  0.00  0.00    -0.244 NA
ATOM     22  C   UNL     1      32.980  -5.136 -24.083  0.00  0.00    +0.055 C 
ATOM     23  C   UNL     1      32.902  -4.292 -25.210  0.00  0.00    +0.087 C 
ATOM     24  C   UNL     1      34.039  -6.052 -24.017  0.00  0.00    +0.148 C 
ATOM     25  C   UNL     1      32.016  -5.050 -23.063  0.00  0.00    +0.045 C 
ATOM     26  C   UNL     1      30.975  -4.131 -23.154  0.00  0.00    +0.173 C 
ATOM     27  C   UNL     1      31.850  -3.382 -25.275  0.00  0.00    +0.059 C 
ATOM     28  C   UNL     1      30.892  -3.297 -24.261  0.00  0.00    +0.174 C 
ATOM     29  C   UNL     1      34.974  -6.113 -25.040  0.00  0.00    +0.058 C 
ATOM     30  C   UNL     1      34.815  -5.246 -26.102  0.00  0.00    +0.102 C 
BRANCH  26  31
ATOM     31  O   UNL     1      30.050  -4.061 -22.157  0.00  0.00    -0.468 OA
ATOM     32  C   UNL     1      30.057  -5.109 -21.190  0.00  0.00    +0.253 C 
ENDBRANCH  26  31
BRANCH  28  33
ATOM     33  O   UNL     1      29.881  -2.389 -24.371  0.00  0.00    -0.468 OA
ATOM     34  C   UNL     1      29.352  -2.162 -25.675  0.00  0.00    +0.253 C 
ENDBRANCH  28  33
ENDBRANCH  20  24
ENDBRANCH   2  20
TORSDOF 5
ENDMDL
MODEL 8
REMARK VINA RESULT:     -10.4      7.310     16.042
REMARK  Name = 9911830
REMARK  5 active torsions:
REMARK  status: ('A' for Active; 'I' for Inactive)
REMARK    1  A    between atoms: C_2  and  O_20
REMARK    2  A    between atoms: C_3  and  N_10
REMARK    3  A    between atoms: O_20  and  C_24
REMARK    4  A    between atoms: C_26  and  O_31
REMARK    5  A    between atoms: C_28  and  O_33
REMARK                            x       y       z     vdW  Elec       q    Type
REMARK                         _______ _______ _______ _____ _____    ______ ____
ROOT
ATOM      1 CL   UNL     1      31.854 -11.215 -22.212  0.00  0.00    -0.081 Cl
ATOM      2  C   UNL     1      34.072  -8.015 -23.020  0.00  0.00    +0.146 C 
ATOM      3  C   UNL     1      34.115 -10.709 -23.655  0.00  0.00    +0.062 C 
ATOM      4  C   UNL     1      33.081  -8.842 -22.522  0.00  0.00    +0.050 C 
ATOM      5  C   UNL     1      35.085  -8.503 -23.828  0.00  0.00    +0.039 C 
ATOM      6  C   UNL     1      33.102 -10.199 -22.842  0.00  0.00    +0.074 C 
ATOM      7  C   UNL     1      35.105  -9.860 -24.149  0.00  0.00    +0.019 C 
ENDROOT
BRANCH   3  10
ATOM      8  O   UNL     1      35.057 -17.333 -22.198  0.00  0.00    -0.357 OA
ATOM      9  O   UNL     1      34.718 -13.100 -21.970  0.00  0.00    -0.252 OA
ATOM     10  N   UNL     1      34.163 -12.064 -23.997  0.00  0.00    -0.267 N 
ATOM     11  N   UNL     1      34.393 -14.357 -23.914  0.00  0.00    -0.251 N 
ATOM     12  N   UNL     1      34.925 -15.950 -22.216  0.00  0.00    -0.062 NA
ATOM     13  C   UNL     1      34.453 -13.171 -23.166  0.00  0.00    +0.309 C 
ATOM     14  C   UNL     1      34.616 -15.682 -23.468  0.00  0.00    +0.177 C 
ATOM     15  C   UNL     1      34.532 -16.790 -24.295  0.00  0.00    +0.073 C 
ATOM     16  C   UNL     1      34.821 -17.822 -23.443  0.00  0.00    +0.156 C 
ATOM     17  C   UNL     1      34.919 -19.278 -23.605  0.00  0.00    +0.075 C 
ATOM     18  H   UNL     1      33.969 -12.275 -24.938  0.00  0.00    +0.156 HD
ATOM     19  H   UNL     1      34.168 -14.256 -24.868  0.00  0.00    +0.158 HD
ENDBRANCH   3  10
BRANCH   2  20
ATOM     20  O   UNL     1      34.054  -6.669 -22.702  0.00  0.00    -0.453 OA
BRANCH  20  24
ATOM     21  N   UNL     1      30.341  -4.907 -22.151  0.00  0.00    -0.244 NA
ATOM     22  C   UNL     1      32.349  -5.138 -23.463  0.00  0.00    +0.055 C 
ATOM     23  C   UNL     1      31.080  -4.571 -23.225  0.00  0.00    +0.087 C 
ATOM     24  C   UNL     1      32.835  -6.076 -22.541  0.00  0.00    +0.148 C 
ATOM     25  C   UNL     1      33.093  -4.764 -24.595  0.00  0.00    +0.045 C 
ATOM     26  C   UNL     1      32.586  -3.831 -25.494  0.00  0.00    +0.173 C 
ATOM     27  C   UNL     1      30.597  -3.640 -24.141  0.00  0.00    +0.059 C 
ATOM     28  C   UNL     1      31.337  -3.269 -25.266  0.00  0.00    +0.174 C 
ATOM     29  C   UNL     1      32.077  -6.424 -21.433  0.00  0.00    +0.058 C 
ATOM     30  C   UNL     1      30.847  -5.815 -21.286  0.00  0.00    +0.102 C 
BRANCH  26  31
ATOM     31  O   UNL     1      33.320  -3.480 -26.587  0.00  0.00    -0.468 OA
ATOM     32  C   UNL     1      34.214  -4.460 -27.110  0.00  0.00    +0.253 C 
ENDBRANCH  26  31
BRANCH  28  33
ATOM     33  O   UNL     1      30.820  -2.353 -26.134  0.00  0.00    -0.468 OA
ATOM     34  C   UNL     1      29.406  -2.174 -26.122  0.00  0.00    +0.253 C 
ENDBRANCH  28  33
ENDBRANCH  20  24
ENDBRANCH   2  20
TORSDOF 5
ENDMDL
MODEL 9
REMARK VINA RESULT:     -10.2      3.235      6.461
REMARK  Name = 9911830
REMARK  5 active torsions:
REMARK  status: ('A' for Active; 'I' for Inactive)
REMARK    1  A    between atoms: C_2  and  O_20
REMARK    2  A    between atoms: C_3  and  N_10
REMARK    3  A    between atoms: O_20  and  C_24
REMARK    4  A    between atoms: C_26  and  O_31
REMARK    5  A    between atoms: C_28  and  O_33
REMARK                            x       y       z     vdW  Elec       q    Type
REMARK                         _______ _______ _______ _____ _____    ______ ____
ROOT
ATOM      1 CL   UNL     1      34.482 -13.712 -20.378  0.00  0.00    -0.081 Cl
ATOM      2  C   UNL     1      34.570 -16.859 -22.806  0.00  0.00    +0.146 C 
ATOM      3  C   UNL     1      34.393 -14.110 -23.076  0.00  0.00    +0.062 C 
ATOM      4  C   UNL     1      34.569 -16.067 -21.671  0.00  0.00    +0.050 C 
ATOM      5  C   UNL     1      34.485 -16.308 -24.073  0.00  0.00    +0.039 C 
ATOM      6  C   UNL     1      34.481 -14.682 -21.807  0.00  0.00    +0.074 C 
ATOM      7  C   UNL     1      34.397 -14.923 -24.209  0.00  0.00    +0.019 C 
ENDROOT
BRANCH   3  10
ATOM      8  O   UNL     1      31.270  -8.062 -22.329  0.00  0.00    -0.357 OA
ATOM      9  O   UNL     1      32.266 -12.195 -22.222  0.00  0.00    -0.252 OA
ATOM     10  N   UNL     1      34.305 -12.725 -23.247  0.00  0.00    -0.267 N 
ATOM     11  N   UNL     1      33.588 -10.533 -23.201  0.00  0.00    -0.251 N 
ATOM     12  N   UNL     1      31.675  -9.391 -22.340  0.00  0.00    -0.062 NA
ATOM     13  C   UNL     1      33.277 -11.849 -22.825  0.00  0.00    +0.309 C 
ATOM     14  C   UNL     1      32.830  -9.360 -22.974  0.00  0.00    +0.177 C 
ATOM     15  C   UNL     1      33.230  -8.101 -23.390  0.00  0.00    +0.073 C 
ATOM     16  C   UNL     1      32.204  -7.303 -22.958  0.00  0.00    +0.156 C 
ATOM     17  C   UNL     1      31.933  -5.862 -23.037  0.00  0.00    +0.075 C 
ATOM     18  H   UNL     1      35.058 -12.304 -23.721  0.00  0.00    +0.156 HD
ATOM     19  H   UNL     1      34.438 -10.410 -23.683  0.00  0.00    +0.158 HD
ENDBRANCH   3  10
BRANCH   2  20
ATOM     20  O   UNL     1      34.657 -18.233 -22.673  0.00  0.00    -0.453 OA
BRANCH  20  24
ATOM     21  N   UNL     1      37.823 -19.698 -20.432  0.00  0.00    -0.244 NA
ATOM     22  C   UNL     1      35.473 -19.728 -20.961  0.00  0.00    +0.055 C 
ATOM     23  C   UNL     1      36.586 -20.189 -20.229  0.00  0.00    +0.087 C 
ATOM     24  C   UNL     1      35.683 -18.730 -21.923  0.00  0.00    +0.148 C 
ATOM     25  C   UNL     1      34.195 -20.263 -20.723  0.00  0.00    +0.045 C 
ATOM     26  C   UNL     1      34.014 -21.254 -19.762  0.00  0.00    +0.173 C 
ATOM     27  C   UNL     1      36.377 -21.181 -19.274  0.00  0.00    +0.059 C 
ATOM     28  C   UNL     1      35.107 -21.712 -19.037  0.00  0.00    +0.174 C 
ATOM     29  C   UNL     1      36.957 -18.222 -22.134  0.00  0.00    +0.058 C 
ATOM     30  C   UNL     1      37.984 -18.736 -21.369  0.00  0.00    +0.102 C 
BRANCH  26  31
ATOM     31  O   UNL     1      32.770 -21.762 -19.544  0.00  0.00    -0.468 OA
ATOM     32  C   UNL     1      32.272 -21.709 -18.208  0.00  0.00    +0.253 C 
ENDBRANCH  26  31
BRANCH  28  33
ATOM     33  O   UNL     1      34.953 -22.682 -18.092  0.00  0.00    -0.468 OA
ATOM     34  C   UNL     1      35.660 -22.510 -16.865  0.00  0.00    +0.253 C 
ENDBRANCH  28  33
ENDBRANCH  20  24
ENDBRANCH   2  20
TORSDOF 5
ENDMDL
