MODEL 1
REMARK VINA RESULT:     -12.1      0.000      0.000
REMARK  Name = 42628060
REMARK  6 active torsions:
REMARK  status: ('A' for Active; 'I' for Inactive)
REMARK    1  A    between atoms: N_2  and  C_6
REMARK    2  A    between atoms: C_3  and  C_19
REMARK    3  A    between atoms: C_9  and  N_13
REMARK    4  A    between atoms: C_19  and  N_20
REMARK    5  A    between atoms: C_21  and  N_27
REMARK    6  A    between atoms: C_28  and  C_32
REMARK                            x       y       z     vdW  Elec       q    Type
REMARK                         _______ _______ _______ _____ _____    ______ ____
ROOT
ATOM      1  O   UNL     1      32.702 -13.639 -23.009  0.00  0.00    -0.277 OA
ATOM      2  N   UNL     1      34.664 -14.599 -23.870  0.00  0.00    -0.284 N 
ATOM      3  C   UNL     1      33.662 -13.635 -23.772  0.00  0.00    +0.205 C 
ATOM      4  H   UNL     1      35.360 -14.436 -24.547  0.00  0.00    +0.155 HD
ENDROOT
BRANCH   2   6
ATOM      5  F   UNL     1      34.925 -17.090 -25.091  0.00  0.00    -0.203 F 
ATOM      6  C   UNL     1      34.797 -15.785 -23.111  0.00  0.00    +0.078 C 
ATOM      7  C   UNL     1      34.926 -17.017 -23.753  0.00  0.00    +0.155 C 
ATOM      8  C   UNL     1      34.797 -15.722 -21.717  0.00  0.00    +0.018 C 
ATOM      9  C   UNL     1      35.056 -18.121 -21.608  0.00  0.00    +0.061 C 
ATOM     10  C   UNL     1      35.055 -18.185 -23.001  0.00  0.00    +0.046 C 
ATOM     11  C   UNL     1      34.927 -16.890 -20.965  0.00  0.00    +0.017 C 
BRANCH   9  13
ATOM     12  O   UNL     1      37.530 -19.134 -20.505  0.00  0.00    -0.269 OA
ATOM     13  N   UNL     1      35.190 -19.335 -20.826  0.00  0.00    -0.233 N 
ATOM     14  C   UNL     1      36.470 -19.747 -20.375  0.00  0.00    +0.257 C 
ATOM     15  C   UNL     1      34.064 -20.093 -20.495  0.00  0.00    +0.072 C 
ATOM     16  C   UNL     1      36.526 -21.035 -19.614  0.00  0.00    +0.059 C 
ATOM     17  C   UNL     1      34.137 -21.224 -19.785  0.00  0.00    +0.017 C 
ATOM     18  C   UNL     1      35.408 -21.710 -19.339  0.00  0.00    +0.006 C 
ENDBRANCH   9  13
ENDBRANCH   2   6
BRANCH   3  19
ATOM     19  C   UNL     1      33.904 -12.523 -24.778  0.00  0.00    +0.010 C 
BRANCH  19  20
ATOM     20  N   UNL     1      34.496 -11.379 -24.101  0.00  0.00    +0.394 N 
ATOM     21  C   UNL     1      34.288  -9.253 -23.167  0.00  0.00    +0.049 C 
ATOM     22  C   UNL     1      35.402  -9.221 -24.216  0.00  0.00    -0.005 C 
ATOM     23  C   UNL     1      33.490 -10.514 -23.482  0.00  0.00    -0.057 C 
ATOM     24  C   UNL     1      35.227 -10.505 -25.019  0.00  0.00    -0.075 C 
ATOM     25  H   UNL     1      35.114 -11.795 -23.405  0.00  0.00    -0.079 HD
BRANCH  21  27
ATOM     26  O   UNL     1      33.023  -8.011 -20.909  0.00  0.00    -0.270 OA
ATOM     27  N   UNL     1      33.470  -8.072 -23.184  0.00  0.00    -0.304 N 
ATOM     28  C   UNL     1      32.895  -7.539 -22.037  0.00  0.00    +0.252 C 
ATOM     29  H   UNL     1      33.309  -7.622 -24.045  0.00  0.00    +0.150 HD
BRANCH  28  32
ATOM     30 CL   UNL     1      30.712  -2.888 -24.086  0.00  0.00    -0.075 Cl
ATOM     31  S   UNL     1      32.328  -5.329 -23.589  0.00  0.00    -0.071 S 
ATOM     32  C   UNL     1      32.054  -6.329 -22.226  0.00  0.00    +0.084 C 
ATOM     33  C   UNL     1      31.030  -5.857 -21.436  0.00  0.00    +0.012 C 
ATOM     34  C   UNL     1      30.462  -4.658 -21.956  0.00  0.00    +0.019 C 
ATOM     35  C   UNL     1      31.074  -4.260 -23.124  0.00  0.00    +0.087 C 
ENDBRANCH  28  32
ENDBRANCH  21  27
ENDBRANCH  19  20
ENDBRANCH   3  19
TORSDOF 6
ENDMDL
MODEL 2
REMARK VINA RESULT:     -11.6      7.466     13.820
REMARK  Name = 42628060
REMARK  6 active torsions:
REMARK  status: ('A' for Active; 'I' for Inactive)
REMARK    1  A    between atoms: N_2  and  C_6
REMARK    2  A    between atoms: C_3  and  C_19
REMARK    3  A    between atoms: C_9  and  N_13
REMARK    4  A    between atoms: C_19  and  N_20
REMARK    5  A    between atoms: C_21  and  N_27
REMARK    6  A    between atoms: C_28  and  C_32
REMARK                            x       y       z     vdW  Elec       q    Type
REMARK                         _______ _______ _______ _____ _____    ______ ____
ROOT
ATOM      1  O   UNL     1      33.598 -20.090 -20.410  0.00  0.00    -0.277 OA
ATOM      2  N   UNL     1      35.627 -19.450 -21.406  0.00  0.00    -0.284 N 
ATOM      3  C   UNL     1      34.791 -20.261 -20.639  0.00  0.00    +0.205 C 
ATOM      4  H   UNL     1      36.565 -19.739 -21.479  0.00  0.00    +0.155 HD
ENDROOT
BRANCH   2   6
ATOM      5  F   UNL     1      35.076 -19.450 -24.137  0.00  0.00    -0.203 F 
ATOM      6  C   UNL     1      35.283 -18.262 -22.091  0.00  0.00    +0.078 C 
ATOM      7  C   UNL     1      35.013 -18.296 -23.459  0.00  0.00    +0.155 C 
ATOM      8  C   UNL     1      35.217 -17.053 -21.397  0.00  0.00    +0.018 C 
ATOM      9  C   UNL     1      34.609 -15.914 -23.439  0.00  0.00    +0.061 C 
ATOM     10  C   UNL     1      34.676 -17.121 -24.133  0.00  0.00    +0.046 C 
ATOM     11  C   UNL     1      34.879 -15.879 -22.071  0.00  0.00    +0.017 C 
BRANCH   9  13
ATOM     12  O   UNL     1      33.726 -15.758 -26.188  0.00  0.00    -0.269 OA
ATOM     13  N   UNL     1      34.259 -14.693 -24.139  0.00  0.00    -0.233 N 
ATOM     14  C   UNL     1      33.878 -14.746 -25.504  0.00  0.00    +0.257 C 
ATOM     15  C   UNL     1      34.274 -13.465 -23.473  0.00  0.00    +0.072 C 
ATOM     16  C   UNL     1      33.577 -13.436 -26.163  0.00  0.00    +0.059 C 
ATOM     17  C   UNL     1      33.969 -12.312 -24.077  0.00  0.00    +0.017 C 
ATOM     18  C   UNL     1      33.617 -12.300 -25.465  0.00  0.00    +0.006 C 
ENDBRANCH   9  13
ENDBRANCH   2   6
BRANCH   3  19
ATOM     19  C   UNL     1      35.571 -21.440 -20.082  0.00  0.00    +0.010 C 
BRANCH  19  20
ATOM     20  N   UNL     1      35.226 -21.630 -18.681  0.00  0.00    +0.394 N 
ATOM     21  C   UNL     1      35.781 -22.391 -16.549  0.00  0.00    +0.049 C 
ATOM     22  C   UNL     1      34.458 -23.035 -16.972  0.00  0.00    -0.005 C 
ATOM     23  C   UNL     1      36.402 -21.885 -17.847  0.00  0.00    -0.057 C 
ATOM     24  C   UNL     1      34.359 -22.790 -18.473  0.00  0.00    -0.075 C 
ATOM     25  H   UNL     1      34.761 -20.761 -18.421  0.00  0.00    -0.079 HD
BRANCH  21  27
ATOM     26  O   UNL     1      35.790 -22.919 -13.727  0.00  0.00    -0.270 OA
ATOM     27  N   UNL     1      36.646 -23.300 -15.849  0.00  0.00    -0.304 N 
ATOM     28  C   UNL     1      36.579 -23.492 -14.475  0.00  0.00    +0.252 C 
ATOM     29  H   UNL     1      37.314 -23.807 -16.365  0.00  0.00    +0.150 HD
BRANCH  28  32
ATOM     30 CL   UNL     1      41.052 -26.655 -13.709  0.00  0.00    -0.075 Cl
ATOM     31  S   UNL     1      39.007 -24.774 -14.755  0.00  0.00    -0.071 S 
ATOM     32  C   UNL     1      37.561 -24.447 -13.898  0.00  0.00    +0.084 C 
ATOM     33  C   UNL     1      37.490 -25.151 -12.716  0.00  0.00    +0.012 C 
ATOM     34  C   UNL     1      38.639 -25.969 -12.511  0.00  0.00    +0.019 C 
ATOM     35  C   UNL     1      39.543 -25.859 -13.544  0.00  0.00    +0.087 C 
ENDBRANCH  28  32
ENDBRANCH  21  27
ENDBRANCH  19  20
ENDBRANCH   3  19
TORSDOF 6
ENDMDL
MODEL 3
REMARK VINA RESULT:     -11.3      5.118      8.491
REMARK  Name = 42628060
REMARK  6 active torsions:
REMARK  status: ('A' for Active; 'I' for Inactive)
REMARK    1  A    between atoms: N_2  and  C_6
REMARK    2  A    between atoms: C_3  and  C_19
REMARK    3  A    between atoms: C_9  and  N_13
REMARK    4  A    between atoms: C_19  and  N_20
REMARK    5  A    between atoms: C_21  and  N_27
REMARK    6  A    between atoms: C_28  and  C_32
REMARK                            x       y       z     vdW  Elec       q    Type
REMARK                         _______ _______ _______ _____ _____    ______ ____
ROOT
ATOM      1  O   UNL     1      36.845 -20.479 -19.692  0.00  0.00    -0.277 OA
ATOM      2  N   UNL     1      35.034 -21.715 -18.851  0.00  0.00    -0.284 N 
ATOM      3  C   UNL     1      35.697 -20.906 -19.771  0.00  0.00    +0.205 C 
ATOM      4  H   UNL     1      34.108 -21.960 -19.076  0.00  0.00    +0.155 HD
ENDROOT
BRANCH   2   6
ATOM      5  F   UNL     1      33.410 -23.128 -17.082  0.00  0.00    -0.203 F 
ATOM      6  C   UNL     1      35.537 -22.225 -17.631  0.00  0.00    +0.078 C 
ATOM      7  C   UNL     1      34.697 -22.928 -16.767  0.00  0.00    +0.155 C 
ATOM      8  C   UNL     1      36.875 -22.023 -17.292  0.00  0.00    +0.018 C 
ATOM      9  C   UNL     1      36.533 -23.227 -15.226  0.00  0.00    +0.061 C 
ATOM     10  C   UNL     1      35.196 -23.430 -15.564  0.00  0.00    +0.046 C 
ATOM     11  C   UNL     1      37.373 -22.524 -16.089  0.00  0.00    +0.017 C 
BRANCH   9  13
ATOM     12  O   UNL     1      37.625 -25.878 -14.842  0.00  0.00    -0.269 OA
ATOM     13  N   UNL     1      37.052 -23.747 -13.975  0.00  0.00    -0.233 N 
ATOM     14  C   UNL     1      37.524 -25.083 -13.907  0.00  0.00    +0.257 C 
ATOM     15  C   UNL     1      37.109 -22.935 -12.840  0.00  0.00    +0.072 C 
ATOM     16  C   UNL     1      37.999 -25.554 -12.568  0.00  0.00    +0.059 C 
ATOM     17  C   UNL     1      37.569 -23.371 -11.662  0.00  0.00    +0.017 C 
ATOM     18  C   UNL     1      38.021 -24.723 -11.524  0.00  0.00    +0.006 C 
ENDBRANCH   9  13
ENDBRANCH   2   6
BRANCH   3  19
ATOM     19  C   UNL     1      34.786 -20.589 -20.945  0.00  0.00    +0.010 C 
BRANCH  19  20
ATOM     20  N   UNL     1      35.306 -19.437 -21.665  0.00  0.00    +0.394 N 
ATOM     21  C   UNL     1      35.313 -17.140 -22.067  0.00  0.00    +0.049 C 
ATOM     22  C   UNL     1      35.073 -17.870 -23.391  0.00  0.00    -0.005 C 
ATOM     23  C   UNL     1      35.003 -18.173 -20.989  0.00  0.00    -0.057 C 
ATOM     24  C   UNL     1      34.719 -19.299 -22.997  0.00  0.00    -0.075 C 
ATOM     25  H   UNL     1      36.310 -19.607 -21.711  0.00  0.00    -0.079 HD
BRANCH  21  27
ATOM     26  O   UNL     1      35.380 -14.825 -23.764  0.00  0.00    -0.270 OA
ATOM     27  N   UNL     1      34.515 -15.953 -21.930  0.00  0.00    -0.304 N 
ATOM     28  C   UNL     1      34.616 -14.876 -22.803  0.00  0.00    +0.252 C 
ATOM     29  H   UNL     1      33.871 -15.901 -21.187  0.00  0.00    +0.150 HD
BRANCH  28  32
ATOM     30 CL   UNL     1      30.849 -11.543 -20.500  0.00  0.00    -0.075 Cl
ATOM     31  S   UNL     1      32.647 -13.802 -21.194  0.00  0.00    -0.071 S 
ATOM     32  C   UNL     1      33.739 -13.713 -22.509  0.00  0.00    +0.084 C 
ATOM     33  C   UNL     1      33.662 -12.503 -23.165  0.00  0.00    +0.012 C 
ATOM     34  C   UNL     1      32.694 -11.638 -22.578  0.00  0.00    +0.019 C 
ATOM     35  C   UNL     1      32.068 -12.219 -21.498  0.00  0.00    +0.087 C 
ENDBRANCH  28  32
ENDBRANCH  21  27
ENDBRANCH  19  20
ENDBRANCH   3  19
TORSDOF 6
ENDMDL
MODEL 4
REMARK VINA RESULT:     -10.7      5.363      8.933
REMARK  Name = 42628060
REMARK  6 active torsions:
REMARK  status: ('A' for Active; 'I' for Inactive)
REMARK    1  A    between atoms: N_2  and  C_6
REMARK    2  A    between atoms: C_3  and  C_19
REMARK    3  A    between atoms: C_9  and  N_13
REMARK    4  A    between atoms: C_19  and  N_20
REMARK    5  A    between atoms: C_21  and  N_27
REMARK    6  A    between atoms: C_28  and  C_32
REMARK                            x       y       z     vdW  Elec       q    Type
REMARK                         _______ _______ _______ _____ _____    ______ ____
ROOT
ATOM      1  O   UNL     1      32.755 -21.635 -18.469  0.00  0.00    -0.277 OA
ATOM      2  N   UNL     1      35.091 -21.730 -18.692  0.00  0.00    -0.284 N 
ATOM      3  C   UNL     1      33.789 -21.445 -19.101  0.00  0.00    +0.205 C 
ATOM      4  H   UNL     1      35.805 -21.515 -19.334  0.00  0.00    +0.155 HD
ENDROOT
BRANCH   2   6
ATOM      5  F   UNL     1      37.574 -21.133 -17.579  0.00  0.00    -0.203 F 
ATOM      6  C   UNL     1      35.504 -22.292 -17.461  0.00  0.00    +0.078 C 
ATOM      7  C   UNL     1      36.754 -21.973 -16.931  0.00  0.00    +0.155 C 
ATOM      8  C   UNL     1      34.661 -23.169 -16.779  0.00  0.00    +0.018 C 
ATOM      9  C   UNL     1      36.317 -23.406 -15.036  0.00  0.00    +0.061 C 
ATOM     10  C   UNL     1      37.160 -22.529 -15.717  0.00  0.00    +0.046 C 
ATOM     11  C   UNL     1      35.067 -23.726 -15.565  0.00  0.00    +0.017 C 
BRANCH   9  13
ATOM     12  O   UNL     1      37.615 -25.972 -14.727  0.00  0.00    -0.269 OA
ATOM     13  N   UNL     1      36.739 -23.985 -13.775  0.00  0.00    -0.233 N 
ATOM     14  C   UNL     1      37.330 -25.274 -13.753  0.00  0.00    +0.257 C 
ATOM     15  C   UNL     1      36.586 -23.274 -12.582  0.00  0.00    +0.072 C 
ATOM     16  C   UNL     1      37.695 -25.817 -12.406  0.00  0.00    +0.059 C 
ATOM     17  C   UNL     1      36.950 -23.769 -11.395  0.00  0.00    +0.017 C 
ATOM     18  C   UNL     1      37.515 -25.082 -11.307  0.00  0.00    +0.006 C 
ENDBRANCH   9  13
ENDBRANCH   2   6
BRANCH   3  19
ATOM     19  C   UNL     1      33.797 -20.848 -20.497  0.00  0.00    +0.010 C 
BRANCH  19  20
ATOM     20  N   UNL     1      34.763 -19.761 -20.553  0.00  0.00    +0.394 N 
ATOM     21  C   UNL     1      35.345 -17.608 -21.231  0.00  0.00    +0.049 C 
ATOM     22  C   UNL     1      36.403 -18.587 -21.745  0.00  0.00    -0.005 C 
ATOM     23  C   UNL     1      34.141 -18.478 -20.886  0.00  0.00    -0.057 C 
ATOM     24  C   UNL     1      35.775 -19.967 -21.590  0.00  0.00    -0.075 C 
ATOM     25  H   UNL     1      35.176 -19.749 -19.621  0.00  0.00    -0.079 HD
BRANCH  21  27
ATOM     26  O   UNL     1      34.440 -14.947 -20.646  0.00  0.00    -0.270 OA
ATOM     27  N   UNL     1      35.022 -16.583 -22.184  0.00  0.00    -0.304 N 
ATOM     28  C   UNL     1      34.589 -15.317 -21.808  0.00  0.00    +0.252 C 
ATOM     29  H   UNL     1      35.111 -16.786 -23.144  0.00  0.00    +0.150 HD
BRANCH  28  32
ATOM     30 CL   UNL     1      33.256 -13.242 -26.760  0.00  0.00    -0.075 Cl
ATOM     31  S   UNL     1      33.916 -15.010 -24.467  0.00  0.00    -0.071 S 
ATOM     32  C   UNL     1      34.270 -14.379 -22.915  0.00  0.00    +0.084 C 
ATOM     33  C   UNL     1      34.209 -13.002 -22.890  0.00  0.00    +0.012 C 
ATOM     34  C   UNL     1      33.866 -12.460 -24.163  0.00  0.00    +0.019 C 
ATOM     35  C   UNL     1      33.679 -13.441 -25.111  0.00  0.00    +0.087 C 
ENDBRANCH  28  32
ENDBRANCH  21  27
ENDBRANCH  19  20
ENDBRANCH   3  19
TORSDOF 6
ENDMDL
MODEL 5
REMARK VINA RESULT:     -10.2      8.147     13.061
REMARK  Name = 42628060
REMARK  6 active torsions:
REMARK  status: ('A' for Active; 'I' for Inactive)
REMARK    1  A    between atoms: N_2  and  C_6
REMARK    2  A    between atoms: C_3  and  C_19
REMARK    3  A    between atoms: C_9  and  N_13
REMARK    4  A    between atoms: C_19  and  N_20
REMARK    5  A    between atoms: C_21  and  N_27
REMARK    6  A    between atoms: C_28  and  C_32
REMARK                            x       y       z     vdW  Elec       q    Type
REMARK                         _______ _______ _______ _____ _____    ______ ____
ROOT
ATOM      1  O   UNL     1      35.613 -21.991 -15.896  0.00  0.00    -0.277 OA
ATOM      2  N   UNL     1      34.652 -23.055 -17.756  0.00  0.00    -0.284 N 
ATOM      3  C   UNL     1      35.087 -22.959 -16.435  0.00  0.00    +0.205 C 
ATOM      4  H   UNL     1      34.255 -23.916 -18.021  0.00  0.00    +0.155 HD
ENDROOT
BRANCH   2   6
ATOM      5  F   UNL     1      37.090 -22.099 -18.707  0.00  0.00    -0.203 F 
ATOM      6  C   UNL     1      34.716 -22.060 -18.759  0.00  0.00    +0.078 C 
ATOM      7  C   UNL     1      35.953 -21.603 -19.214  0.00  0.00    +0.155 C 
ATOM      8  C   UNL     1      33.539 -21.535 -19.293  0.00  0.00    +0.018 C 
ATOM      9  C   UNL     1      34.836 -20.095 -20.736  0.00  0.00    +0.061 C 
ATOM     10  C   UNL     1      36.012 -20.620 -20.203  0.00  0.00    +0.046 C 
ATOM     11  C   UNL     1      33.599 -20.552 -20.282  0.00  0.00    +0.017 C 
BRANCH   9  13
ATOM     12  O   UNL     1      35.441 -17.303 -20.282  0.00  0.00    -0.269 OA
ATOM     13  N   UNL     1      34.897 -19.073 -21.763  0.00  0.00    -0.233 N 
ATOM     14  C   UNL     1      35.166 -17.727 -21.405  0.00  0.00    +0.257 C 
ATOM     15  C   UNL     1      34.715 -19.407 -23.107  0.00  0.00    +0.072 C 
ATOM     16  C   UNL     1      35.166 -16.729 -22.520  0.00  0.00    +0.059 C 
ATOM     17  C   UNL     1      34.753 -18.501 -24.089  0.00  0.00    +0.017 C 
ATOM     18  C   UNL     1      34.979 -17.120 -23.782  0.00  0.00    +0.006 C 
ENDBRANCH   9  13
ENDBRANCH   2   6
BRANCH   3  19
ATOM     19  C   UNL     1      34.828 -24.264 -15.701  0.00  0.00    +0.010 C 
BRANCH  19  20
ATOM     20  N   UNL     1      33.715 -24.088 -14.780  0.00  0.00    +0.394 N 
ATOM     21  C   UNL     1      31.455 -23.663 -14.400  0.00  0.00    +0.049 C 
ATOM     22  C   UNL     1      32.285 -22.653 -13.604  0.00  0.00    -0.005 C 
ATOM     23  C   UNL     1      32.416 -24.226 -15.442  0.00  0.00    -0.057 C 
ATOM     24  C   UNL     1      33.692 -22.753 -14.182  0.00  0.00    -0.075 C 
ATOM     25  H   UNL     1      33.858 -24.813 -14.078  0.00  0.00    -0.079 HD
BRANCH  21  27
ATOM     26  O   UNL     1      28.845 -24.848 -14.572  0.00  0.00    -0.270 OA
ATOM     27  N   UNL     1      30.285 -23.080 -14.996  0.00  0.00    -0.304 N 
ATOM     28  C   UNL     1      29.058 -23.729 -15.034  0.00  0.00    +0.252 C 
ATOM     29  H   UNL     1      30.357 -22.182 -15.395  0.00  0.00    +0.150 HD
BRANCH  28  32
ATOM     30 CL   UNL     1      25.696 -21.624 -18.890  0.00  0.00    -0.075 Cl
ATOM     31  S   UNL     1      27.858 -23.031 -17.420  0.00  0.00    -0.071 S 
ATOM     32  C   UNL     1      27.952 -23.002 -15.711  0.00  0.00    +0.084 C 
ATOM     33  C   UNL     1      26.932 -22.266 -15.149  0.00  0.00    +0.012 C 
ATOM     34  C   UNL     1      26.061 -21.720 -16.136  0.00  0.00    +0.019 C 
ATOM     35  C   UNL     1      26.449 -22.058 -17.413  0.00  0.00    +0.087 C 
ENDBRANCH  28  32
ENDBRANCH  21  27
ENDBRANCH  19  20
ENDBRANCH   3  19
TORSDOF 6
ENDMDL
MODEL 6
REMARK VINA RESULT:     -10.2      5.614     11.779
REMARK  Name = 42628060
REMARK  6 active torsions:
REMARK  status: ('A' for Active; 'I' for Inactive)
REMARK    1  A    between atoms: N_2  and  C_6
REMARK    2  A    between atoms: C_3  and  C_19
REMARK    3  A    between atoms: C_9  and  N_13
REMARK    4  A    between atoms: C_19  and  N_20
REMARK    5  A    between atoms: C_21  and  N_27
REMARK    6  A    between atoms: C_28  and  C_32
REMARK                            x       y       z     vdW  Elec       q    Type
REMARK                         _______ _______ _______ _____ _____    ______ ____
ROOT
ATOM      1  O   UNL     1      35.352 -15.559 -25.454  0.00  0.00    -0.277 OA
ATOM      2  N   UNL     1      33.803 -15.325 -23.704  0.00  0.00    -0.284 N 
ATOM      3  C   UNL     1      34.602 -16.028 -24.604  0.00  0.00    +0.205 C 
ATOM      4  H   UNL     1      33.257 -15.868 -23.091  0.00  0.00    +0.155 HD
ENDROOT
BRANCH   2   6
ATOM      5  F   UNL     1      32.444 -14.177 -21.560  0.00  0.00    -0.203 F 
ATOM      6  C   UNL     1      33.687 -13.922 -23.568  0.00  0.00    +0.078 C 
ATOM      7  C   UNL     1      32.999 -13.379 -22.483  0.00  0.00    +0.155 C 
ATOM      8  C   UNL     1      34.259 -13.081 -24.523  0.00  0.00    +0.018 C 
ATOM      9  C   UNL     1      33.457 -11.154 -23.306  0.00  0.00    +0.061 C 
ATOM     10  C   UNL     1      32.885 -11.994 -22.352  0.00  0.00    +0.046 C 
ATOM     11  C   UNL     1      34.144 -11.697 -24.392  0.00  0.00    +0.017 C 
BRANCH   9  13
ATOM     12  O   UNL     1      35.531  -9.238 -23.934  0.00  0.00    -0.269 OA
ATOM     13  N   UNL     1      33.338  -9.715 -23.171  0.00  0.00    -0.233 N 
ATOM     14  C   UNL     1      34.445  -8.883 -23.475  0.00  0.00    +0.257 C 
ATOM     15  C   UNL     1      32.132  -9.139 -22.764  0.00  0.00    +0.072 C 
ATOM     16  C   UNL     1      34.252  -7.414 -23.265  0.00  0.00    +0.059 C 
ATOM     17  C   UNL     1      31.975  -7.820 -22.615  0.00  0.00    +0.017 C 
ATOM     18  C   UNL     1      33.071  -6.934 -22.867  0.00  0.00    +0.006 C 
ENDBRANCH   9  13
ENDBRANCH   2   6
BRANCH   3  19
ATOM     19  C   UNL     1      34.423 -17.524 -24.407  0.00  0.00    +0.010 C 
BRANCH  19  20
ATOM     20  N   UNL     1      35.292 -17.978 -23.332  0.00  0.00    +0.394 N 
ATOM     21  C   UNL     1      35.679 -19.360 -21.494  0.00  0.00    +0.049 C 
ATOM     22  C   UNL     1      35.898 -17.905 -21.070  0.00  0.00    -0.005 C 
ATOM     23  C   UNL     1      34.877 -19.273 -22.789  0.00  0.00    -0.057 C 
ATOM     24  C   UNL     1      35.280 -17.070 -22.185  0.00  0.00    -0.075 C 
ATOM     25  H   UNL     1      36.214 -18.029 -23.763  0.00  0.00    -0.079 HD
BRANCH  21  27
ATOM     26  O   UNL     1      36.894 -21.238 -19.695  0.00  0.00    -0.270 OA
ATOM     27  N   UNL     1      35.012 -20.141 -20.490  0.00  0.00    -0.304 N 
ATOM     28  C   UNL     1      35.683 -21.030 -19.660  0.00  0.00    +0.252 C 
ATOM     29  H   UNL     1      34.037 -20.043 -20.387  0.00  0.00    +0.150 HD
BRANCH  28  32
ATOM     30 CL   UNL     1      34.009 -23.945 -15.268  0.00  0.00    -0.075 Cl
ATOM     31  S   UNL     1      35.575 -22.429 -17.284  0.00  0.00    -0.071 S 
ATOM     32  C   UNL     1      34.845 -21.782 -18.691  0.00  0.00    +0.084 C 
ATOM     33  C   UNL     1      33.496 -22.056 -18.747  0.00  0.00    +0.012 C 
ATOM     34  C   UNL     1      33.056 -22.808 -17.619  0.00  0.00    +0.019 C 
ATOM     35  C   UNL     1      34.085 -23.079 -16.744  0.00  0.00    +0.087 C 
ENDBRANCH  28  32
ENDBRANCH  21  27
ENDBRANCH  19  20
ENDBRANCH   3  19
TORSDOF 6
ENDMDL
MODEL 7
REMARK VINA RESULT:     -10.0      7.475     13.746
REMARK  Name = 42628060
REMARK  6 active torsions:
REMARK  status: ('A' for Active; 'I' for Inactive)
REMARK    1  A    between atoms: N_2  and  C_6
REMARK    2  A    between atoms: C_3  and  C_19
REMARK    3  A    between atoms: C_9  and  N_13
REMARK    4  A    between atoms: C_19  and  N_20
REMARK    5  A    between atoms: C_21  and  N_27
REMARK    6  A    between atoms: C_28  and  C_32
REMARK                            x       y       z     vdW  Elec       q    Type
REMARK                         _______ _______ _______ _____ _____    ______ ____
ROOT
ATOM      1  O   UNL     1      33.461 -20.097 -20.575  0.00  0.00    -0.277 OA
ATOM      2  N   UNL     1      35.539 -19.401 -21.419  0.00  0.00    -0.284 N 
ATOM      3  C   UNL     1      34.677 -20.216 -20.688  0.00  0.00    +0.205 C 
ATOM      4  H   UNL     1      36.493 -19.644 -21.394  0.00  0.00    +0.155 HD
ENDROOT
BRANCH   2   6
ATOM      5  F   UNL     1      35.233 -16.886 -20.261  0.00  0.00    -0.203 F 
ATOM      6  C   UNL     1      35.203 -18.266 -22.194  0.00  0.00    +0.078 C 
ATOM      7  C   UNL     1      35.057 -17.021 -21.583  0.00  0.00    +0.155 C 
ATOM      8  C   UNL     1      35.016 -18.394 -23.570  0.00  0.00    +0.018 C 
ATOM      9  C   UNL     1      34.538 -16.032 -23.725  0.00  0.00    +0.061 C 
ATOM     10  C   UNL     1      34.724 -15.903 -22.349  0.00  0.00    +0.046 C 
ATOM     11  C   UNL     1      34.684 -17.276 -24.337  0.00  0.00    +0.017 C 
BRANCH   9  13
ATOM     12  O   UNL     1      34.547 -13.297 -22.785  0.00  0.00    -0.269 OA
ATOM     13  N   UNL     1      34.191 -14.870 -24.522  0.00  0.00    -0.233 N 
ATOM     14  C   UNL     1      34.196 -13.581 -23.930  0.00  0.00    +0.257 C 
ATOM     15  C   UNL     1      33.873 -15.008 -25.875  0.00  0.00    +0.072 C 
ATOM     16  C   UNL     1      33.782 -12.443 -24.810  0.00  0.00    +0.059 C 
ATOM     17  C   UNL     1      33.538 -13.970 -26.648  0.00  0.00    +0.017 C 
ATOM     18  C   UNL     1      33.485 -12.651 -26.094  0.00  0.00    +0.006 C 
ENDBRANCH   9  13
ENDBRANCH   2   6
BRANCH   3  19
ATOM     19  C   UNL     1      35.458 -21.325 -20.003  0.00  0.00    +0.010 C 
BRANCH  19  20
ATOM     20  N   UNL     1      34.746 -21.751 -18.808  0.00  0.00    +0.394 N 
ATOM     21  C   UNL     1      34.757 -22.715 -16.685  0.00  0.00    +0.049 C 
ATOM     22  C   UNL     1      33.755 -23.471 -17.562  0.00  0.00    -0.005 C 
ATOM     23  C   UNL     1      35.641 -21.954 -17.667  0.00  0.00    -0.057 C 
ATOM     24  C   UNL     1      34.072 -23.037 -18.989  0.00  0.00    -0.075 C 
ATOM     25  H   UNL     1      34.081 -20.998 -18.634  0.00  0.00    -0.079 HD
BRANCH  21  27
ATOM     26  O   UNL     1      37.194 -22.067 -15.314  0.00  0.00    -0.270 OA
ATOM     27  N   UNL     1      35.515 -23.583 -15.828  0.00  0.00    -0.304 N 
ATOM     28  C   UNL     1      36.690 -23.182 -15.203  0.00  0.00    +0.252 C 
ATOM     29  H   UNL     1      35.189 -24.500 -15.677  0.00  0.00    +0.150 HD
BRANCH  28  32
ATOM     30 CL   UNL     1      37.838 -26.839 -11.215  0.00  0.00    -0.075 Cl
ATOM     31  S   UNL     1      36.589 -24.789 -12.961  0.00  0.00    -0.071 S 
ATOM     32  C   UNL     1      37.370 -24.207 -14.369  0.00  0.00    +0.084 C 
ATOM     33  C   UNL     1      38.600 -24.798 -14.560  0.00  0.00    +0.012 C 
ATOM     34  C   UNL     1      38.904 -25.742 -13.536  0.00  0.00    +0.019 C 
ATOM     35  C   UNL     1      37.896 -25.836 -12.602  0.00  0.00    +0.087 C 
ENDBRANCH  28  32
ENDBRANCH  21  27
ENDBRANCH  19  20
ENDBRANCH   3  19
TORSDOF 6
ENDMDL
MODEL 8
REMARK VINA RESULT:      -9.9      4.846      8.243
REMARK  Name = 42628060
REMARK  6 active torsions:
REMARK  status: ('A' for Active; 'I' for Inactive)
REMARK    1  A    between atoms: N_2  and  C_6
REMARK    2  A    between atoms: C_3  and  C_19
REMARK    3  A    between atoms: C_9  and  N_13
REMARK    4  A    between atoms: C_19  and  N_20
REMARK    5  A    between atoms: C_21  and  N_27
REMARK    6  A    between atoms: C_28  and  C_32
REMARK                            x       y       z     vdW  Elec       q    Type
REMARK                         _______ _______ _______ _____ _____    ______ ____
ROOT
ATOM      1  O   UNL     1      34.490 -19.969 -20.253  0.00  0.00    -0.277 OA
ATOM      2  N   UNL     1      35.826 -21.573 -19.177  0.00  0.00    -0.284 N 
ATOM      3  C   UNL     1      35.550 -20.569 -20.104  0.00  0.00    +0.205 C 
ATOM      4  H   UNL     1      36.735 -21.949 -19.202  0.00  0.00    +0.155 HD
ENDROOT
BRANCH   2   6
ATOM      5  F   UNL     1      36.754 -22.414 -16.689  0.00  0.00    -0.203 F 
ATOM      6  C   UNL     1      34.952 -22.114 -18.206  0.00  0.00    +0.078 C 
ATOM      7  C   UNL     1      35.448 -22.526 -16.969  0.00  0.00    +0.155 C 
ATOM      8  C   UNL     1      33.591 -22.237 -18.487  0.00  0.00    +0.018 C 
ATOM      9  C   UNL     1      33.223 -23.183 -16.295  0.00  0.00    +0.061 C 
ATOM     10  C   UNL     1      34.584 -23.061 -16.013  0.00  0.00    +0.046 C 
ATOM     11  C   UNL     1      32.726 -22.772 -17.531  0.00  0.00    +0.017 C 
BRANCH   9  13
ATOM     12  O   UNL     1      30.339 -22.976 -16.348  0.00  0.00    -0.269 OA
ATOM     13  N   UNL     1      32.325 -23.739 -15.302  0.00  0.00    -0.233 N 
ATOM     14  C   UNL     1      30.926 -23.534 -15.420  0.00  0.00    +0.257 C 
ATOM     15  C   UNL     1      32.824 -24.496 -14.238  0.00  0.00    +0.072 C 
ATOM     16  C   UNL     1      30.074 -24.102 -14.329  0.00  0.00    +0.059 C 
ATOM     17  C   UNL     1      32.038 -25.021 -13.293  0.00  0.00    +0.017 C 
ATOM     18  C   UNL     1      30.622 -24.810 -13.339  0.00  0.00    +0.006 C 
ENDBRANCH   9  13
ENDBRANCH   2   6
BRANCH   3  19
ATOM     19  C   UNL     1      36.775 -20.293 -20.959  0.00  0.00    +0.010 C 
BRANCH  19  20
ATOM     20  N   UNL     1      36.482 -19.213 -21.889  0.00  0.00    +0.394 N 
ATOM     21  C   UNL     1      35.586 -17.104 -22.319  0.00  0.00    +0.049 C 
ATOM     22  C   UNL     1      34.946 -18.113 -23.275  0.00  0.00    -0.005 C 
ATOM     23  C   UNL     1      36.193 -17.950 -21.205  0.00  0.00    -0.057 C 
ATOM     24  C   UNL     1      35.293 -19.481 -22.698  0.00  0.00    -0.075 C 
ATOM     25  H   UNL     1      37.321 -19.146 -22.464  0.00  0.00    -0.079 HD
BRANCH  21  27
ATOM     26  O   UNL     1      35.005 -14.532 -23.457  0.00  0.00    -0.270 OA
ATOM     27  N   UNL     1      34.649 -16.136 -21.819  0.00  0.00    -0.304 N 
ATOM     28  C   UNL     1      34.432 -14.911 -22.438  0.00  0.00    +0.252 C 
ATOM     29  H   UNL     1      34.140 -16.349 -21.003  0.00  0.00    +0.150 HD
BRANCH  28  32
ATOM     30 CL   UNL     1      31.032 -10.681 -21.366  0.00  0.00    -0.075 Cl
ATOM     31  S   UNL     1      32.990 -12.561 -22.569  0.00  0.00    -0.071 S 
ATOM     32  C   UNL     1      33.449 -14.010 -21.781  0.00  0.00    +0.084 C 
ATOM     33  C   UNL     1      32.811 -14.165 -20.570  0.00  0.00    +0.012 C 
ATOM     34  C   UNL     1      31.934 -13.079 -20.286  0.00  0.00    +0.019 C 
ATOM     35  C   UNL     1      31.934 -12.137 -21.289  0.00  0.00    +0.087 C 
ENDBRANCH  28  32
ENDBRANCH  21  27
ENDBRANCH  19  20
ENDBRANCH   3  19
TORSDOF 6
ENDMDL
MODEL 9
REMARK VINA RESULT:      -9.9      5.267     11.518
REMARK  Name = 42628060
REMARK  6 active torsions:
REMARK  status: ('A' for Active; 'I' for Inactive)
REMARK    1  A    between atoms: N_2  and  C_6
REMARK    2  A    between atoms: C_3  and  C_19
REMARK    3  A    between atoms: C_9  and  N_13
REMARK    4  A    between atoms: C_19  and  N_20
REMARK    5  A    between atoms: C_21  and  N_27
REMARK    6  A    between atoms: C_28  and  C_32
REMARK                            x       y       z     vdW  Elec       q    Type
REMARK                         _______ _______ _______ _____ _____    ______ ____
ROOT
ATOM      1  O   UNL     1      32.670 -14.264 -25.313  0.00  0.00    -0.277 OA
ATOM      2  N   UNL     1      34.227 -13.477 -23.740  0.00  0.00    -0.284 N 
ATOM      3  C   UNL     1      33.696 -14.388 -24.651  0.00  0.00    +0.205 C 
ATOM      4  H   UNL     1      35.061 -13.746 -23.293  0.00  0.00    +0.155 HD
ENDROOT
BRANCH   2   6
ATOM      5  F   UNL     1      32.128 -13.223 -21.926  0.00  0.00    -0.203 F 
ATOM      6  C   UNL     1      33.707 -12.211 -23.384  0.00  0.00    +0.078 C 
ATOM      7  C   UNL     1      32.655 -12.118 -22.473  0.00  0.00    +0.155 C 
ATOM      8  C   UNL     1      34.246 -11.054 -23.947  0.00  0.00    +0.018 C 
ATOM      9  C   UNL     1      32.682  -9.711 -22.687  0.00  0.00    +0.061 C 
ATOM     10  C   UNL     1      32.142 -10.868 -22.124  0.00  0.00    +0.046 C 
ATOM     11  C   UNL     1      33.733  -9.804 -23.598  0.00  0.00    +0.017 C 
BRANCH   9  13
ATOM     12  O   UNL     1      33.000  -8.432 -20.113  0.00  0.00    -0.269 OA
ATOM     13  N   UNL     1      32.149  -8.412 -22.326  0.00  0.00    -0.233 N 
ATOM     14  C   UNL     1      32.341  -7.911 -21.012  0.00  0.00    +0.257 C 
ATOM     15  C   UNL     1      31.466  -7.639 -23.267  0.00  0.00    +0.072 C 
ATOM     16  C   UNL     1      31.720  -6.583 -20.709  0.00  0.00    +0.059 C 
ATOM     17  C   UNL     1      30.949  -6.440 -22.980  0.00  0.00    +0.017 C 
ATOM     18  C   UNL     1      31.075  -5.902 -21.659  0.00  0.00    +0.006 C 
ENDBRANCH   9  13
ENDBRANCH   2   6
BRANCH   3  19
ATOM     19  C   UNL     1      34.575 -15.625 -24.731  0.00  0.00    +0.010 C 
BRANCH  19  20
ATOM     20  N   UNL     1      35.134 -15.907 -23.417  0.00  0.00    +0.394 N 
ATOM     21  C   UNL     1      35.388 -17.338 -21.594  0.00  0.00    +0.049 C 
ATOM     22  C   UNL     1      34.860 -15.992 -21.092  0.00  0.00    -0.005 C 
ATOM     23  C   UNL     1      35.105 -17.334 -23.093  0.00  0.00    -0.057 C 
ATOM     24  C   UNL     1      34.380 -15.263 -22.341  0.00  0.00    -0.075 C 
ATOM     25  H   UNL     1      36.088 -15.553 -23.472  0.00  0.00    -0.079 HD
BRANCH  21  27
ATOM     26  O   UNL     1      36.737 -19.667 -20.596  0.00  0.00    -0.270 OA
ATOM     27  N   UNL     1      34.785 -18.459 -20.928  0.00  0.00    -0.304 N 
ATOM     28  C   UNL     1      35.519 -19.549 -20.477  0.00  0.00    +0.252 C 
ATOM     29  H   UNL     1      33.810 -18.455 -20.786  0.00  0.00    +0.150 HD
BRANCH  28  32
ATOM     30 CL   UNL     1      34.128 -23.999 -17.501  0.00  0.00    -0.075 Cl
ATOM     31  S   UNL     1      35.564 -21.779 -18.851  0.00  0.00    -0.071 S 
ATOM     32  C   UNL     1      34.743 -20.639 -19.831  0.00  0.00    +0.084 C 
ATOM     33  C   UNL     1      33.391 -20.893 -19.898  0.00  0.00    +0.012 C 
ATOM     34  C   UNL     1      33.024 -22.039 -19.135  0.00  0.00    +0.019 C 
ATOM     35  C   UNL     1      34.109 -22.617 -18.514  0.00  0.00    +0.087 C 
ENDBRANCH  28  32
ENDBRANCH  21  27
ENDBRANCH  19  20
ENDBRANCH   3  19
TORSDOF 6
ENDMDL
