MODEL 1
REMARK VINA RESULT:     -11.8      0.000      0.000
REMARK  Name = 176407
REMARK  5 active torsions:
REMARK  status: ('A' for Active; 'I' for Inactive)
REMARK    1  A    between atoms: N_1  and  C_20
REMARK    2  A    between atoms: C_11  and  C_16
REMARK    3  A    between atoms: C_20  and  C_21
REMARK    4  A    between atoms: C_21  and  C_22
REMARK    5  A    between atoms: C_27  and  O_28
REMARK                            x       y       z     vdW  Elec       q    Type
REMARK                         _______ _______ _______ _____ _____    ______ ____
ROOT
ATOM      1  N   UNL     1      36.019 -17.870 -22.496  0.00  0.00    -0.258 N 
ATOM      2  N   UNL     1      33.687 -14.656 -22.934  0.00  0.00    -0.059 N 
ATOM      3  N   UNL     1      34.899 -16.087 -21.522  0.00  0.00    -0.245 NA
ATOM      4  N   UNL     1      34.791 -16.411 -23.889  0.00  0.00    -0.294 NA
ATOM      5  N   UNL     1      32.914 -13.560 -22.926  0.00  0.00    -0.090 NA
ATOM      6  N   UNL     1      33.615 -14.128 -20.823  0.00  0.00    -0.267 NA
ATOM      7  N   UNL     1      33.550 -14.936 -25.271  0.00  0.00    -0.318 N 
ATOM      8  C   UNL     1      35.218 -16.758 -22.607  0.00  0.00    +0.213 C 
ATOM      9  C   UNL     1      34.108 -14.998 -21.680  0.00  0.00    +0.251 C 
ATOM     10  C   UNL     1      34.030 -15.371 -24.065  0.00  0.00    +0.282 C 
ATOM     11  C   UNL     1      32.901 -13.278 -21.621  0.00  0.00    +0.153 C 
ATOM     12  H   UNL     1      36.256 -18.370 -23.310  0.00  0.00    +0.160 HD
ATOM     13  H   UNL     1      32.979 -14.134 -25.313  0.00  0.00    +0.146 HD
ATOM     14  H   UNL     1      33.777 -15.422 -26.096  0.00  0.00    +0.146 HD
ENDROOT
BRANCH  11  16
ATOM     15  O   UNL     1      31.928 -10.973 -21.761  0.00  0.00    -0.439 OA
ATOM     16  C   UNL     1      32.164 -12.123 -21.078  0.00  0.00    +0.221 C 
ATOM     17  C   UNL     1      31.622 -12.054 -19.815  0.00  0.00    +0.052 C 
ATOM     18  C   UNL     1      31.014 -10.779 -19.717  0.00  0.00    +0.045 C 
ATOM     19  C   UNL     1      31.228 -10.161 -20.927  0.00  0.00    +0.181 C 
ENDBRANCH  11  16
BRANCH   1  20
ATOM     20  C   UNL     1      36.519 -18.321 -21.236  0.00  0.00    +0.103 C 
BRANCH  20  21
ATOM     21  C   UNL     1      36.622 -19.846 -21.204  0.00  0.00    +0.048 C 
BRANCH  21  22
ATOM     22  C   UNL     1      35.518 -20.497 -20.408  0.00  0.00    -0.020 C 
ATOM     23  C   UNL     1      35.836 -21.474 -19.478  0.00  0.00    -0.001 C 
ATOM     24  C   UNL     1      34.205 -20.107 -20.622  0.00  0.00    -0.001 C 
ATOM     25  C   UNL     1      34.816 -22.077 -18.743  0.00  0.00    +0.036 C 
ATOM     26  C   UNL     1      33.185 -20.710 -19.888  0.00  0.00    +0.036 C 
ATOM     27  C   UNL     1      33.490 -21.695 -18.948  0.00  0.00    +0.134 C 
BRANCH  27  28
ATOM     28  O   UNL     1      32.495 -22.283 -18.229  0.00  0.00    -0.506 OA
ATOM     29  H   UNL     1      31.611 -21.985 -18.321  0.00  0.00    +0.292 HD
ENDBRANCH  27  28
ENDBRANCH  21  22
ENDBRANCH  20  21
ENDBRANCH   1  20
TORSDOF 5
ENDMDL
MODEL 2
REMARK VINA RESULT:     -10.7      4.368      9.375
REMARK  Name = 176407
REMARK  5 active torsions:
REMARK  status: ('A' for Active; 'I' for Inactive)
REMARK    1  A    between atoms: N_1  and  C_20
REMARK    2  A    between atoms: C_11  and  C_16
REMARK    3  A    between atoms: C_20  and  C_21
REMARK    4  A    between atoms: C_21  and  C_22
REMARK    5  A    between atoms: C_27  and  O_28
REMARK                            x       y       z     vdW  Elec       q    Type
REMARK                         _______ _______ _______ _____ _____    ______ ____
ROOT
ATOM      1  N   UNL     1      35.520 -20.414 -20.621  0.00  0.00    -0.258 N 
ATOM      2  N   UNL     1      34.425 -22.500 -17.395  0.00  0.00    -0.059 N 
ATOM      3  N   UNL     1      33.818 -21.321 -19.331  0.00  0.00    -0.245 NA
ATOM      4  N   UNL     1      36.097 -21.606 -18.666  0.00  0.00    -0.294 NA
ATOM      5  N   UNL     1      33.910 -23.179 -16.359  0.00  0.00    -0.090 NA
ATOM      6  N   UNL     1      32.281 -22.394 -17.762  0.00  0.00    -0.267 NA
ATOM      7  N   UNL     1      36.656 -22.807 -16.698  0.00  0.00    -0.318 N 
ATOM      8  C   UNL     1      35.105 -21.128 -19.521  0.00  0.00    +0.213 C 
ATOM      9  C   UNL     1      33.456 -22.030 -18.234  0.00  0.00    +0.251 C 
ATOM     10  C   UNL     1      35.774 -22.289 -17.606  0.00  0.00    +0.282 C 
ATOM     11  C   UNL     1      32.606 -23.086 -16.628  0.00  0.00    +0.153 C 
ATOM     12  H   UNL     1      36.484 -20.271 -20.760  0.00  0.00    +0.160 HD
ATOM     13  H   UNL     1      36.323 -23.313 -15.921  0.00  0.00    +0.146 HD
ATOM     14  H   UNL     1      37.624 -22.674 -16.820  0.00  0.00    +0.146 HD
ENDROOT
BRANCH  11  16
ATOM     15  O   UNL     1      31.854 -24.514 -14.711  0.00  0.00    -0.439 OA
ATOM     16  C   UNL     1      31.582 -23.692 -15.758  0.00  0.00    +0.221 C 
ATOM     17  C   UNL     1      30.224 -23.510 -15.888  0.00  0.00    +0.052 C 
ATOM     18  C   UNL     1      29.625 -24.269 -14.855  0.00  0.00    +0.045 C 
ATOM     19  C   UNL     1      30.658 -24.861 -14.167  0.00  0.00    +0.181 C 
ENDBRANCH  11  16
BRANCH   1  20
ATOM     20  C   UNL     1      34.596 -19.875 -21.568  0.00  0.00    +0.103 C 
BRANCH  20  21
ATOM     21  C   UNL     1      35.331 -19.156 -22.699  0.00  0.00    +0.048 C 
BRANCH  21  22
ATOM     22  C   UNL     1      35.074 -17.670 -22.722  0.00  0.00    -0.020 C 
ATOM     23  C   UNL     1      34.952 -16.983 -21.524  0.00  0.00    -0.001 C 
ATOM     24  C   UNL     1      34.964 -17.018 -23.940  0.00  0.00    -0.001 C 
ATOM     25  C   UNL     1      34.713 -15.609 -21.545  0.00  0.00    +0.036 C 
ATOM     26  C   UNL     1      34.725 -15.645 -23.961  0.00  0.00    +0.036 C 
ATOM     27  C   UNL     1      34.600 -14.939 -22.764  0.00  0.00    +0.134 C 
BRANCH  27  28
ATOM     28  O   UNL     1      34.368 -13.598 -22.783  0.00  0.00    -0.506 OA
ATOM     29  H   UNL     1      34.365 -13.112 -21.983  0.00  0.00    +0.292 HD
ENDBRANCH  27  28
ENDBRANCH  21  22
ENDBRANCH  20  21
ENDBRANCH   1  20
TORSDOF 5
ENDMDL
MODEL 3
REMARK VINA RESULT:     -10.4      6.450     11.033
REMARK  Name = 176407
REMARK  5 active torsions:
REMARK  status: ('A' for Active; 'I' for Inactive)
REMARK    1  A    between atoms: N_1  and  C_20
REMARK    2  A    between atoms: C_11  and  C_16
REMARK    3  A    between atoms: C_20  and  C_21
REMARK    4  A    between atoms: C_21  and  C_22
REMARK    5  A    between atoms: C_27  and  O_28
REMARK                            x       y       z     vdW  Elec       q    Type
REMARK                         _______ _______ _______ _____ _____    ______ ____
ROOT
ATOM      1  N   UNL     1      32.617 -22.256 -18.429  0.00  0.00    -0.258 N 
ATOM      2  N   UNL     1      33.728 -23.595 -14.832  0.00  0.00    -0.059 N 
ATOM      3  N   UNL     1      34.314 -22.974 -17.018  0.00  0.00    -0.245 NA
ATOM      4  N   UNL     1      32.061 -22.888 -16.222  0.00  0.00    -0.294 NA
ATOM      5  N   UNL     1      34.246 -24.047 -13.681  0.00  0.00    -0.090 NA
ATOM      6  N   UNL     1      35.849 -23.770 -15.291  0.00  0.00    -0.267 NA
ATOM      7  N   UNL     1      31.522 -23.528 -14.003  0.00  0.00    -0.318 N 
ATOM      8  C   UNL     1      33.037 -22.718 -17.203  0.00  0.00    +0.213 C 
ATOM      9  C   UNL     1      34.682 -23.427 -15.795  0.00  0.00    +0.251 C 
ATOM     10  C   UNL     1      32.389 -23.322 -15.041  0.00  0.00    +0.282 C 
ATOM     11  C   UNL     1      35.537 -24.138 -14.012  0.00  0.00    +0.153 C 
ATOM     12  H   UNL     1      31.661 -22.066 -18.563  0.00  0.00    +0.160 HD
ATOM     13  H   UNL     1      31.859 -23.859 -13.138  0.00  0.00    +0.146 HD
ATOM     14  H   UNL     1      30.562 -23.342 -14.118  0.00  0.00    +0.146 HD
ENDROOT
BRANCH  11  16
ATOM     15  O   UNL     1      36.848 -25.910 -12.821  0.00  0.00    -0.439 OA
ATOM     16  C   UNL     1      36.558 -24.604 -13.057  0.00  0.00    +0.221 C 
ATOM     17  C   UNL     1      37.348 -23.786 -12.281  0.00  0.00    +0.052 C 
ATOM     18  C   UNL     1      38.176 -24.646 -11.521  0.00  0.00    +0.045 C 
ATOM     19  C   UNL     1      37.833 -25.927 -11.885  0.00  0.00    +0.181 C 
ENDBRANCH  11  16
BRANCH   1  20
ATOM     20  C   UNL     1      33.525 -22.042 -19.510  0.00  0.00    +0.103 C 
BRANCH  20  21
ATOM     21  C   UNL     1      33.360 -20.639 -20.092  0.00  0.00    +0.048 C 
BRANCH  21  22
ATOM     22  C   UNL     1      34.663 -20.033 -20.555  0.00  0.00    -0.020 C 
ATOM     23  C   UNL     1      35.856 -20.505 -20.031  0.00  0.00    -0.001 C 
ATOM     24  C   UNL     1      34.642 -19.017 -21.497  0.00  0.00    -0.001 C 
ATOM     25  C   UNL     1      37.059 -19.944 -20.458  0.00  0.00    +0.036 C 
ATOM     26  C   UNL     1      35.845 -18.456 -21.924  0.00  0.00    +0.036 C 
ATOM     27  C   UNL     1      37.054 -18.920 -21.405  0.00  0.00    +0.134 C 
BRANCH  27  28
ATOM     28  O   UNL     1      38.229 -18.375 -21.822  0.00  0.00    -0.506 OA
ATOM     29  H   UNL     1      38.674 -17.751 -21.283  0.00  0.00    +0.292 HD
ENDBRANCH  27  28
ENDBRANCH  21  22
ENDBRANCH  20  21
ENDBRANCH   1  20
TORSDOF 5
ENDMDL
MODEL 4
REMARK VINA RESULT:     -10.3      4.651      9.894
REMARK  Name = 176407
REMARK  5 active torsions:
REMARK  status: ('A' for Active; 'I' for Inactive)
REMARK    1  A    between atoms: N_1  and  C_20
REMARK    2  A    between atoms: C_11  and  C_16
REMARK    3  A    between atoms: C_20  and  C_21
REMARK    4  A    between atoms: C_21  and  C_22
REMARK    5  A    between atoms: C_27  and  O_28
REMARK                            x       y       z     vdW  Elec       q    Type
REMARK                         _______ _______ _______ _____ _____    ______ ____
ROOT
ATOM      1  N   UNL     1      34.295 -20.366 -20.637  0.00  0.00    -0.258 N 
ATOM      2  N   UNL     1      34.429 -22.587 -17.319  0.00  0.00    -0.059 N 
ATOM      3  N   UNL     1      35.552 -21.285 -18.916  0.00  0.00    -0.245 NA
ATOM      4  N   UNL     1      33.195 -21.682 -19.012  0.00  0.00    -0.294 NA
ATOM      5  N   UNL     1      34.628 -23.304 -16.203  0.00  0.00    -0.090 NA
ATOM      6  N   UNL     1      36.573 -22.390 -16.990  0.00  0.00    -0.267 NA
ATOM      7  N   UNL     1      32.110 -23.007 -17.371  0.00  0.00    -0.318 N 
ATOM      8  C   UNL     1      34.380 -21.124 -19.492  0.00  0.00    +0.213 C 
ATOM      9  C   UNL     1      35.588 -22.040 -17.792  0.00  0.00    +0.251 C 
ATOM     10  C   UNL     1      33.205 -22.410 -17.935  0.00  0.00    +0.282 C 
ATOM     11  C   UNL     1      35.945 -23.154 -16.045  0.00  0.00    +0.153 C 
ATOM     12  H   UNL     1      33.416 -20.248 -21.065  0.00  0.00    +0.160 HD
ATOM     13  H   UNL     1      32.209 -23.543 -16.551  0.00  0.00    +0.146 HD
ATOM     14  H   UNL     1      31.223 -22.900 -17.785  0.00  0.00    +0.146 HD
ENDROOT
BRANCH  11  16
ATOM     15  O   UNL     1      37.592 -23.123 -14.157  0.00  0.00    -0.439 OA
ATOM     16  C   UNL     1      36.675 -23.770 -14.923  0.00  0.00    +0.221 C 
ATOM     17  C   UNL     1      36.529 -25.072 -14.504  0.00  0.00    +0.052 C 
ATOM     18  C   UNL     1      37.413 -25.235 -13.410  0.00  0.00    +0.045 C 
ATOM     19  C   UNL     1      38.036 -24.022 -13.240  0.00  0.00    +0.181 C 
ENDBRANCH  11  16
BRANCH   1  20
ATOM     20  C   UNL     1      35.439 -19.745 -21.222  0.00  0.00    +0.103 C 
BRANCH  20  21
ATOM     21  C   UNL     1      35.125 -19.236 -22.628  0.00  0.00    +0.048 C 
BRANCH  21  22
ATOM     22  C   UNL     1      34.999 -17.734 -22.701  0.00  0.00    -0.020 C 
ATOM     23  C   UNL     1      34.932 -17.000 -21.527  0.00  0.00    -0.001 C 
ATOM     24  C   UNL     1      34.953 -17.116 -23.941  0.00  0.00    -0.001 C 
ATOM     25  C   UNL     1      34.815 -15.613 -21.595  0.00  0.00    +0.036 C 
ATOM     26  C   UNL     1      34.835 -15.728 -24.008  0.00  0.00    +0.036 C 
ATOM     27  C   UNL     1      34.767 -14.976 -22.835  0.00  0.00    +0.134 C 
BRANCH  27  28
ATOM     28  O   UNL     1      34.653 -13.621 -22.900  0.00  0.00    -0.506 OA
ATOM     29  H   UNL     1      33.810 -13.218 -22.832  0.00  0.00    +0.292 HD
ENDBRANCH  27  28
ENDBRANCH  21  22
ENDBRANCH  20  21
ENDBRANCH   1  20
TORSDOF 5
ENDMDL
MODEL 5
REMARK VINA RESULT:     -10.0      5.023      7.786
REMARK  Name = 176407
REMARK  5 active torsions:
REMARK  status: ('A' for Active; 'I' for Inactive)
REMARK    1  A    between atoms: N_1  and  C_20
REMARK    2  A    between atoms: C_11  and  C_16
REMARK    3  A    between atoms: C_20  and  C_21
REMARK    4  A    between atoms: C_21  and  C_22
REMARK    5  A    between atoms: C_27  and  O_28
REMARK                            x       y       z     vdW  Elec       q    Type
REMARK                         _______ _______ _______ _____ _____    ______ ____
ROOT
ATOM      1  N   UNL     1      31.640 -11.087 -19.758  0.00  0.00    -0.258 N 
ATOM      2  N   UNL     1      32.907  -7.635 -21.319  0.00  0.00    -0.059 N 
ATOM      3  N   UNL     1      32.224  -9.858 -21.637  0.00  0.00    -0.245 NA
ATOM      4  N   UNL     1      32.332  -8.847 -19.472  0.00  0.00    -0.294 NA
ATOM      5  N   UNL     1      33.324  -6.547 -21.982  0.00  0.00    -0.090 NA
ATOM      6  N   UNL     1      32.901  -8.299 -23.393  0.00  0.00    -0.267 NA
ATOM      7  N   UNL     1      33.031  -6.596 -19.207  0.00  0.00    -0.318 N 
ATOM      8  C   UNL     1      32.074  -9.915 -20.331  0.00  0.00    +0.213 C 
ATOM      9  C   UNL     1      32.654  -8.683 -22.158  0.00  0.00    +0.251 C 
ATOM     10  C   UNL     1      32.747  -7.710 -19.949  0.00  0.00    +0.282 C 
ATOM     11  C   UNL     1      33.304  -7.001 -23.238  0.00  0.00    +0.153 C 
ATOM     12  H   UNL     1      31.530 -11.126 -18.780  0.00  0.00    +0.160 HD
ATOM     13  H   UNL     1      33.340  -5.773 -19.652  0.00  0.00    +0.146 HD
ATOM     14  H   UNL     1      32.926  -6.616 -18.228  0.00  0.00    +0.146 HD
ENDROOT
BRANCH  11  16
ATOM     15  O   UNL     1      32.816  -5.429 -25.127  0.00  0.00    -0.439 OA
ATOM     16  C   UNL     1      33.689  -6.157 -24.382  0.00  0.00    +0.221 C 
ATOM     17  C   UNL     1      34.973  -5.994 -24.849  0.00  0.00    +0.052 C 
ATOM     18  C   UNL     1      34.882  -5.109 -25.950  0.00  0.00    +0.045 C 
ATOM     19  C   UNL     1      33.550  -4.795 -26.079  0.00  0.00    +0.181 C 
ENDBRANCH  11  16
BRANCH   1  20
ATOM     20  C   UNL     1      31.344 -12.248 -20.535  0.00  0.00    +0.103 C 
BRANCH  20  21
ATOM     21  C   UNL     1      32.064 -13.476 -19.979  0.00  0.00    +0.048 C 
BRANCH  21  22
ATOM     22  C   UNL     1      33.022 -14.098 -20.966  0.00  0.00    -0.020 C 
ATOM     23  C   UNL     1      33.103 -13.584 -22.250  0.00  0.00    -0.001 C 
ATOM     24  C   UNL     1      33.803 -15.171 -20.569  0.00  0.00    -0.001 C 
ATOM     25  C   UNL     1      33.987 -14.159 -23.162  0.00  0.00    +0.036 C 
ATOM     26  C   UNL     1      34.688 -15.746 -21.481  0.00  0.00    +0.036 C 
ATOM     27  C   UNL     1      34.780 -15.240 -22.777  0.00  0.00    +0.134 C 
BRANCH  27  28
ATOM     28  O   UNL     1      35.644 -15.800 -23.668  0.00  0.00    -0.506 OA
ATOM     29  H   UNL     1      35.546 -15.634 -24.584  0.00  0.00    +0.292 HD
ENDBRANCH  27  28
ENDBRANCH  21  22
ENDBRANCH  20  21
ENDBRANCH   1  20
TORSDOF 5
ENDMDL
MODEL 6
REMARK VINA RESULT:     -10.0      2.137      9.158
REMARK  Name = 176407
REMARK  5 active torsions:
REMARK  status: ('A' for Active; 'I' for Inactive)
REMARK    1  A    between atoms: N_1  and  C_20
REMARK    2  A    between atoms: C_11  and  C_16
REMARK    3  A    between atoms: C_20  and  C_21
REMARK    4  A    between atoms: C_21  and  C_22
REMARK    5  A    between atoms: C_27  and  O_28
REMARK                            x       y       z     vdW  Elec       q    Type
REMARK                         _______ _______ _______ _____ _____    ______ ____
ROOT
ATOM      1  N   UNL     1      33.045 -12.689 -22.507  0.00  0.00    -0.258 N 
ATOM      2  N   UNL     1      34.665 -16.330 -22.785  0.00  0.00    -0.059 N 
ATOM      3  N   UNL     1      33.791 -14.613 -21.446  0.00  0.00    -0.245 NA
ATOM      4  N   UNL     1      33.930 -14.436 -23.826  0.00  0.00    -0.294 NA
ATOM      5  N   UNL     1      35.197 -17.559 -22.723  0.00  0.00    -0.090 NA
ATOM      6  N   UNL     1      34.656 -16.755 -20.649  0.00  0.00    -0.267 NA
ATOM      7  N   UNL     1      34.824 -16.202 -25.134  0.00  0.00    -0.318 N 
ATOM      8  C   UNL     1      33.600 -13.946 -22.563  0.00  0.00    +0.213 C 
ATOM      9  C   UNL     1      34.340 -15.847 -21.550  0.00  0.00    +0.251 C 
ATOM     10  C   UNL     1      34.460 -15.618 -23.951  0.00  0.00    +0.282 C 
ATOM     11  C   UNL     1      35.171 -17.772 -21.405  0.00  0.00    +0.153 C 
ATOM     12  H   UNL     1      32.904 -12.193 -23.346  0.00  0.00    +0.160 HD
ATOM     13  H   UNL     1      35.219 -17.104 -25.136  0.00  0.00    +0.146 HD
ATOM     14  H   UNL     1      34.691 -15.721 -25.982  0.00  0.00    +0.146 HD
ENDROOT
BRANCH  11  16
ATOM     15  O   UNL     1      36.946 -19.231 -20.406  0.00  0.00    -0.439 OA
ATOM     16  C   UNL     1      35.664 -19.025 -20.805  0.00  0.00    +0.221 C 
ATOM     17  C   UNL     1      34.899 -20.144 -20.570  0.00  0.00    +0.052 C 
ATOM     18  C   UNL     1      35.769 -21.099 -19.990  0.00  0.00    +0.045 C 
ATOM     19  C   UNL     1      37.001 -20.496 -19.912  0.00  0.00    +0.181 C 
ENDBRANCH  11  16
BRANCH   1  20
ATOM     20  C   UNL     1      32.665 -12.082 -21.271  0.00  0.00    +0.103 C 
BRANCH  20  21
ATOM     21  C   UNL     1      31.400 -11.242 -21.441  0.00  0.00    +0.048 C 
BRANCH  21  22
ATOM     22  C   UNL     1      31.646  -9.762 -21.281  0.00  0.00    -0.020 C 
ATOM     23  C   UNL     1      31.984  -9.260 -20.033  0.00  0.00    -0.001 C 
ATOM     24  C   UNL     1      31.530  -8.930 -22.383  0.00  0.00    -0.001 C 
ATOM     25  C   UNL     1      32.211  -7.893 -19.885  0.00  0.00    +0.036 C 
ATOM     26  C   UNL     1      31.757  -7.562 -22.235  0.00  0.00    +0.036 C 
ATOM     27  C   UNL     1      32.098  -7.043 -20.986  0.00  0.00    +0.134 C 
BRANCH  27  28
ATOM     28  O   UNL     1      32.320  -5.708 -20.839  0.00  0.00    -0.506 OA
ATOM     29  H   UNL     1      32.023  -5.265 -20.070  0.00  0.00    +0.292 HD
ENDBRANCH  27  28
ENDBRANCH  21  22
ENDBRANCH  20  21
ENDBRANCH   1  20
TORSDOF 5
ENDMDL
MODEL 7
REMARK VINA RESULT:      -9.9      2.935      4.271
REMARK  Name = 176407
REMARK  5 active torsions:
REMARK  status: ('A' for Active; 'I' for Inactive)
REMARK    1  A    between atoms: N_1  and  C_20
REMARK    2  A    between atoms: C_11  and  C_16
REMARK    3  A    between atoms: C_20  and  C_21
REMARK    4  A    between atoms: C_21  and  C_22
REMARK    5  A    between atoms: C_27  and  O_28
REMARK                            x       y       z     vdW  Elec       q    Type
REMARK                         _______ _______ _______ _____ _____    ______ ____
ROOT
ATOM      1  N   UNL     1      33.931 -15.464 -22.979  0.00  0.00    -0.258 N 
ATOM      2  N   UNL     1      32.923 -11.635 -22.454  0.00  0.00    -0.059 N 
ATOM      3  N   UNL     1      34.295 -13.231 -23.492  0.00  0.00    -0.245 NA
ATOM      4  N   UNL     1      32.568 -13.833 -21.952  0.00  0.00    -0.294 NA
ATOM      5  N   UNL     1      32.697 -10.315 -22.380  0.00  0.00    -0.090 NA
ATOM      6  N   UNL     1      34.413 -10.811 -23.812  0.00  0.00    -0.267 NA
ATOM      7  N   UNL     1      31.209 -12.179 -20.930  0.00  0.00    -0.318 N 
ATOM      8  C   UNL     1      33.613 -14.136 -22.824  0.00  0.00    +0.213 C 
ATOM      9  C   UNL     1      33.945 -11.935 -23.308  0.00  0.00    +0.251 C 
ATOM     10  C   UNL     1      32.215 -12.596 -21.758  0.00  0.00    +0.282 C 
ATOM     11  C   UNL     1      33.628  -9.859 -23.221  0.00  0.00    +0.153 C 
ATOM     12  H   UNL     1      33.419 -16.139 -22.477  0.00  0.00    +0.160 HD
ATOM     13  H   UNL     1      31.008 -11.218 -20.844  0.00  0.00    +0.146 HD
ATOM     14  H   UNL     1      30.685 -12.838 -20.420  0.00  0.00    +0.146 HD
ENDROOT
BRANCH  11  16
ATOM     15  O   UNL     1      32.781  -7.519 -23.515  0.00  0.00    -0.439 OA
ATOM     16  C   UNL     1      33.797  -8.421 -23.497  0.00  0.00    +0.221 C 
ATOM     17  C   UNL     1      34.996  -7.803 -23.773  0.00  0.00    +0.052 C 
ATOM     18  C   UNL     1      34.696  -6.434 -23.973  0.00  0.00    +0.045 C 
ATOM     19  C   UNL     1      33.337  -6.313 -23.806  0.00  0.00    +0.181 C 
ENDBRANCH  11  16
BRANCH   1  20
ATOM     20  C   UNL     1      34.981 -15.896 -23.845  0.00  0.00    +0.103 C 
BRANCH  20  21
ATOM     21  C   UNL     1      34.899 -17.402 -24.094  0.00  0.00    +0.048 C 
BRANCH  21  22
ATOM     22  C   UNL     1      35.320 -18.224 -22.901  0.00  0.00    -0.020 C 
ATOM     23  C   UNL     1      36.530 -17.952 -22.282  0.00  0.00    -0.001 C 
ATOM     24  C   UNL     1      34.490 -19.236 -22.446  0.00  0.00    -0.001 C 
ATOM     25  C   UNL     1      36.920 -18.712 -21.180  0.00  0.00    +0.036 C 
ATOM     26  C   UNL     1      34.880 -19.996 -21.344  0.00  0.00    +0.036 C 
ATOM     27  C   UNL     1      36.094 -19.734 -20.710  0.00  0.00    +0.134 C 
BRANCH  27  28
ATOM     28  O   UNL     1      36.475 -20.475 -19.634  0.00  0.00    -0.506 OA
ATOM     29  H   UNL     1      36.924 -21.287 -19.759  0.00  0.00    +0.292 HD
ENDBRANCH  27  28
ENDBRANCH  21  22
ENDBRANCH  20  21
ENDBRANCH   1  20
TORSDOF 5
ENDMDL
MODEL 8
REMARK VINA RESULT:      -9.8      6.966      9.968
REMARK  Name = 176407
REMARK  5 active torsions:
REMARK  status: ('A' for Active; 'I' for Inactive)
REMARK    1  A    between atoms: N_1  and  C_20
REMARK    2  A    between atoms: C_11  and  C_16
REMARK    3  A    between atoms: C_20  and  C_21
REMARK    4  A    between atoms: C_21  and  C_22
REMARK    5  A    between atoms: C_27  and  O_28
REMARK                            x       y       z     vdW  Elec       q    Type
REMARK                         _______ _______ _______ _____ _____    ______ ____
ROOT
ATOM      1  N   UNL     1      33.303 -25.043 -13.414  0.00  0.00    -0.258 N 
ATOM      2  N   UNL     1      35.295 -22.934 -16.161  0.00  0.00    -0.059 N 
ATOM      3  N   UNL     1      33.276 -23.872 -15.417  0.00  0.00    -0.245 NA
ATOM      4  N   UNL     1      35.318 -24.087 -14.192  0.00  0.00    -0.294 NA
ATOM      5  N   UNL     1      35.828 -22.215 -17.160  0.00  0.00    -0.090 NA
ATOM      6  N   UNL     1      33.591 -22.585 -17.471  0.00  0.00    -0.267 NA
ATOM      7  N   UNL     1      37.332 -23.120 -14.990  0.00  0.00    -0.318 N 
ATOM      8  C   UNL     1      33.955 -24.313 -14.381  0.00  0.00    +0.213 C 
ATOM      9  C   UNL     1      33.960 -23.157 -16.343  0.00  0.00    +0.251 C 
ATOM     10  C   UNL     1      35.996 -23.405 -15.068  0.00  0.00    +0.282 C 
ATOM     11  C   UNL     1      34.753 -22.029 -17.930  0.00  0.00    +0.153 C 
ATOM     12  H   UNL     1      33.815 -25.372 -12.640  0.00  0.00    +0.160 HD
ATOM     13  H   UNL     1      37.766 -22.594 -15.700  0.00  0.00    +0.146 HD
ATOM     14  H   UNL     1      37.860 -23.440 -14.223  0.00  0.00    +0.146 HD
ENDROOT
BRANCH  11  16
ATOM     15  O   UNL     1      35.968 -20.875 -19.792  0.00  0.00    -0.439 OA
ATOM     16  C   UNL     1      34.815 -21.270 -19.192  0.00  0.00    +0.221 C 
ATOM     17  C   UNL     1      33.725 -20.861 -19.924  0.00  0.00    +0.052 C 
ATOM     18  C   UNL     1      34.241 -20.171 -21.047  0.00  0.00    +0.045 C 
ATOM     19  C   UNL     1      35.610 -20.207 -20.920  0.00  0.00    +0.181 C 
ENDBRANCH  11  16
BRANCH   1  20
ATOM     20  C   UNL     1      31.909 -25.338 -13.498  0.00  0.00    +0.103 C 
BRANCH  20  21
ATOM     21  C   UNL     1      31.072 -24.069 -13.338  0.00  0.00    +0.048 C 
BRANCH  21  22
ATOM     22  C   UNL     1      30.069 -23.877 -14.449  0.00  0.00    -0.020 C 
ATOM     23  C   UNL     1      29.557 -24.987 -15.102  0.00  0.00    -0.001 C 
ATOM     24  C   UNL     1      29.680 -22.593 -14.797  0.00  0.00    -0.001 C 
ATOM     25  C   UNL     1      28.631 -24.808 -16.130  0.00  0.00    +0.036 C 
ATOM     26  C   UNL     1      28.754 -22.415 -15.825  0.00  0.00    +0.036 C 
ATOM     27  C   UNL     1      28.229 -23.522 -16.491  0.00  0.00    +0.134 C 
BRANCH  27  28
ATOM     28  O   UNL     1      27.325 -23.349 -17.493  0.00  0.00    -0.506 OA
ATOM     29  H   UNL     1      26.997 -22.493 -17.686  0.00  0.00    +0.292 HD
ENDBRANCH  27  28
ENDBRANCH  21  22
ENDBRANCH  20  21
ENDBRANCH   1  20
TORSDOF 5
ENDMDL
MODEL 9
REMARK VINA RESULT:      -9.8      5.069      7.937
REMARK  Name = 176407
REMARK  5 active torsions:
REMARK  status: ('A' for Active; 'I' for Inactive)
REMARK    1  A    between atoms: N_1  and  C_20
REMARK    2  A    between atoms: C_11  and  C_16
REMARK    3  A    between atoms: C_20  and  C_21
REMARK    4  A    between atoms: C_21  and  C_22
REMARK    5  A    between atoms: C_27  and  O_28
REMARK                            x       y       z     vdW  Elec       q    Type
REMARK                         _______ _______ _______ _____ _____    ______ ____
ROOT
ATOM      1  N   UNL     1      31.727 -10.913 -19.938  0.00  0.00    -0.258 N 
ATOM      2  N   UNL     1      32.603  -7.287 -21.369  0.00  0.00    -0.059 N 
ATOM      3  N   UNL     1      32.013  -9.522 -21.774  0.00  0.00    -0.245 NA
ATOM      4  N   UNL     1      32.321  -8.658 -19.566  0.00  0.00    -0.294 NA
ATOM      5  N   UNL     1      32.875  -6.131 -21.991  0.00  0.00    -0.090 NA
ATOM      6  N   UNL     1      32.387  -7.806 -23.473  0.00  0.00    -0.267 NA
ATOM      7  N   UNL     1      32.918  -6.390 -19.212  0.00  0.00    -0.318 N 
ATOM      8  C   UNL     1      32.023  -9.679 -20.468  0.00  0.00    +0.213 C 
ATOM      9  C   UNL     1      32.311  -8.289 -22.250  0.00  0.00    +0.251 C 
ATOM     10  C   UNL     1      32.610  -7.466 -19.999  0.00  0.00    +0.282 C 
ATOM     11  C   UNL     1      32.732  -6.499 -23.267  0.00  0.00    +0.153 C 
ATOM     12  H   UNL     1      31.736 -11.026 -18.961  0.00  0.00    +0.160 HD
ATOM     13  H   UNL     1      33.125  -5.520 -19.626  0.00  0.00    +0.146 HD
ATOM     14  H   UNL     1      32.931  -6.484 -18.232  0.00  0.00    +0.146 HD
ENDROOT
BRANCH  11  16
ATOM     15  O   UNL     1      33.713  -5.800 -25.463  0.00  0.00    -0.439 OA
ATOM     16  C   UNL     1      32.930  -5.554 -24.381  0.00  0.00    +0.221 C 
ATOM     17  C   UNL     1      32.356  -4.307 -24.473  0.00  0.00    +0.052 C 
ATOM     18  C   UNL     1      32.816  -3.752 -25.691  0.00  0.00    +0.045 C 
ATOM     19  C   UNL     1      33.639  -4.698 -26.255  0.00  0.00    +0.181 C 
ENDBRANCH  11  16
BRANCH   1  20
ATOM     20  C   UNL     1      31.406 -12.034 -20.762  0.00  0.00    +0.103 C 
BRANCH  20  21
ATOM     21  C   UNL     1      31.980 -13.324 -20.177  0.00  0.00    +0.048 C 
BRANCH  21  22
ATOM     22  C   UNL     1      32.978 -13.995 -21.089  0.00  0.00    -0.020 C 
ATOM     23  C   UNL     1      33.720 -15.065 -20.614  0.00  0.00    -0.001 C 
ATOM     24  C   UNL     1      33.135 -13.529 -22.385  0.00  0.00    -0.001 C 
ATOM     25  C   UNL     1      34.643 -15.684 -21.456  0.00  0.00    +0.036 C 
ATOM     26  C   UNL     1      34.057 -14.149 -23.227  0.00  0.00    +0.036 C 
ATOM     27  C   UNL     1      34.812 -15.226 -22.763  0.00  0.00    +0.134 C 
BRANCH  27  28
ATOM     28  O   UNL     1      35.712 -15.832 -23.584  0.00  0.00    -0.506 OA
ATOM     29  H   UNL     1      36.075 -15.363 -24.309  0.00  0.00    +0.292 HD
ENDBRANCH  27  28
ENDBRANCH  21  22
ENDBRANCH  20  21
ENDBRANCH   1  20
TORSDOF 5
ENDMDL
