MODEL 1
REMARK VINA RESULT:     -12.3      0.000      0.000
REMARK  Name = 6914614
REMARK  7 active torsions:
REMARK  status: ('A' for Active; 'I' for Inactive)
REMARK    1  A    between atoms: O_1  and  C_4
REMARK    2  A    between atoms: O_1  and  C_18
REMARK    3  A    between atoms: C_9  and  C_13
REMARK    4  A    between atoms: C_18  and  C_19
REMARK    5  A    between atoms: C_19  and  N_20
REMARK    6  A    between atoms: C_19  and  C_24
REMARK    7  A    between atoms: C_24  and  C_26
REMARK                            x       y       z     vdW  Elec       q    Type
REMARK                         _______ _______ _______ _____ _____    ______ ____
ROOT
ATOM      1  O   UNL     1      36.090 -20.841 -19.701  0.00  0.00    -0.476 OA
ENDROOT
BRANCH   1   4
ATOM      2  N   UNL     1      35.327 -23.376 -15.662  0.00  0.00    -0.404 NA
ATOM      3  N   UNL     1      33.136 -22.540 -18.460  0.00  0.00    -0.258 NA
ATOM      4  C   UNL     1      35.305 -21.576 -18.869  0.00  0.00    +0.159 C 
ATOM      5  C   UNL     1      35.778 -22.099 -17.658  0.00  0.00    +0.063 C 
ATOM      6  C   UNL     1      34.922 -22.851 -16.836  0.00  0.00    +0.136 C 
ATOM      7  C   UNL     1      37.095 -21.896 -17.226  0.00  0.00    +0.008 C 
ATOM      8  C   UNL     1      33.990 -21.824 -19.219  0.00  0.00    +0.130 C 
ATOM      9  C   UNL     1      36.607 -23.158 -15.280  0.00  0.00    +0.131 C 
ATOM     10  C   UNL     1      37.521 -22.433 -16.019  0.00  0.00    +0.032 C 
ATOM     11  C   UNL     1      33.628 -23.029 -17.297  0.00  0.00    +0.184 C 
BRANCH   9  13
ATOM     12  N   UNL     1      37.677 -24.893 -11.561  0.00  0.00    -0.242 NA
ATOM     13  C   UNL     1      36.971 -23.748 -14.014  0.00  0.00    +0.033 C 
ATOM     14  C   UNL     1      37.971 -24.713 -13.954  0.00  0.00    +0.023 C 
ATOM     15  C   UNL     1      36.324 -23.356 -12.846  0.00  0.00    +0.023 C 
ATOM     16  C   UNL     1      38.285 -25.249 -12.715  0.00  0.00    +0.099 C 
ATOM     17  C   UNL     1      36.710 -23.953 -11.657  0.00  0.00    +0.099 C 
ENDBRANCH   9  13
ENDBRANCH   1   4
BRANCH   1  18
ATOM     18  C   UNL     1      35.433 -20.091 -20.723  0.00  0.00    +0.184 C 
BRANCH  18  19
ATOM     19  C   UNL     1      36.129 -18.749 -20.981  0.00  0.00    -0.017 C 
BRANCH  19  20
ATOM     20  N   UNL     1      37.577 -18.936 -20.835  0.00  0.00    +0.384 N 
ATOM     21  H   UNL     1      38.065 -18.124 -21.216  0.00  0.00    -0.089 HD
ATOM     22  H   UNL     1      37.864 -19.773 -21.342  0.00  0.00    -0.089 HD
ATOM     23  H   UNL     1      37.809 -19.039 -19.847  0.00  0.00    -0.089 HD
ENDBRANCH  19  20
BRANCH  19  24
ATOM     24  C   UNL     1      35.849 -18.155 -22.376  0.00  0.00    +0.009 C 
BRANCH  24  26
ATOM     25  N   UNL     1      34.100 -15.050 -21.583  0.00  0.00    -0.312 N 
ATOM     26  C   UNL     1      35.097 -16.856 -22.336  0.00  0.00    -0.008 C 
ATOM     27  C   UNL     1      34.609 -16.154 -23.454  0.00  0.00    +0.011 C 
ATOM     28  C   UNL     1      33.980 -15.011 -22.954  0.00  0.00    +0.048 C 
ATOM     29  C   UNL     1      34.782 -16.174 -21.201  0.00  0.00    +0.058 C 
ATOM     30  C   UNL     1      34.630 -16.361 -24.848  0.00  0.00    +0.001 C 
ATOM     31  C   UNL     1      33.369 -14.062 -23.782  0.00  0.00    +0.015 C 
ATOM     32  C   UNL     1      34.024 -15.420 -25.688  0.00  0.00    +0.000 C 
ATOM     33  C   UNL     1      33.403 -14.289 -25.161  0.00  0.00    +0.001 C 
ATOM     34  H   UNL     1      33.747 -14.368 -20.968  0.00  0.00    +0.152 HD
ENDBRANCH  24  26
ENDBRANCH  19  24
ENDBRANCH  18  19
ENDBRANCH   1  18
TORSDOF 7
ENDMDL
MODEL 2
REMARK VINA RESULT:     -12.1      2.844     10.614
REMARK  Name = 6914614
REMARK  7 active torsions:
REMARK  status: ('A' for Active; 'I' for Inactive)
REMARK    1  A    between atoms: O_1  and  C_4
REMARK    2  A    between atoms: O_1  and  C_18
REMARK    3  A    between atoms: C_9  and  C_13
REMARK    4  A    between atoms: C_18  and  C_19
REMARK    5  A    between atoms: C_19  and  N_20
REMARK    6  A    between atoms: C_19  and  C_24
REMARK    7  A    between atoms: C_24  and  C_26
REMARK                            x       y       z     vdW  Elec       q    Type
REMARK                         _______ _______ _______ _____ _____    ______ ____
ROOT
ATOM      1  O   UNL     1      35.675 -17.624 -23.130  0.00  0.00    -0.476 OA
ENDROOT
BRANCH   1   4
ATOM      2  N   UNL     1      32.994 -13.608 -23.100  0.00  0.00    -0.404 NA
ATOM      3  N   UNL     1      34.127 -15.756 -25.826  0.00  0.00    -0.258 NA
ATOM      4  C   UNL     1      34.955 -16.650 -23.748  0.00  0.00    +0.159 C 
ATOM      5  C   UNL     1      34.338 -15.610 -23.042  0.00  0.00    +0.063 C 
ATOM      6  C   UNL     1      33.606 -14.629 -23.732  0.00  0.00    +0.136 C 
ATOM      7  C   UNL     1      34.424 -15.506 -21.647  0.00  0.00    +0.008 C 
ATOM      8  C   UNL     1      34.820 -16.676 -25.124  0.00  0.00    +0.130 C 
ATOM      9  C   UNL     1      33.101 -13.543 -21.753  0.00  0.00    +0.131 C 
ATOM     10  C   UNL     1      33.796 -14.458 -20.987  0.00  0.00    +0.032 C 
ATOM     11  C   UNL     1      33.546 -14.766 -25.109  0.00  0.00    +0.184 C 
BRANCH   9  13
ATOM     12  N   UNL     1      31.106 -10.256 -19.962  0.00  0.00    -0.242 NA
ATOM     13  C   UNL     1      32.422 -12.425 -21.143  0.00  0.00    +0.033 C 
ATOM     14  C   UNL     1      32.183 -11.267 -21.877  0.00  0.00    +0.023 C 
ATOM     15  C   UNL     1      32.002 -12.497 -19.818  0.00  0.00    +0.023 C 
ATOM     16  C   UNL     1      31.527 -10.221 -21.247  0.00  0.00    +0.099 C 
ATOM     17  C   UNL     1      31.355 -11.396 -19.280  0.00  0.00    +0.099 C 
ENDBRANCH   9  13
ENDBRANCH   1   4
BRANCH   1  18
ATOM     18  C   UNL     1      34.995 -18.841 -22.821  0.00  0.00    +0.184 C 
BRANCH  18  19
ATOM     19  C   UNL     1      35.534 -19.485 -21.537  0.00  0.00    -0.017 C 
BRANCH  19  20
ATOM     20  N   UNL     1      36.003 -18.421 -20.641  0.00  0.00    +0.384 N 
ATOM     21  H   UNL     1      35.207 -17.862 -20.331  0.00  0.00    -0.089 HD
ATOM     22  H   UNL     1      36.665 -17.826 -21.137  0.00  0.00    -0.089 HD
ATOM     23  H   UNL     1      36.461 -18.838 -19.830  0.00  0.00    -0.089 HD
ENDBRANCH  19  20
BRANCH  19  24
ATOM     24  C   UNL     1      34.499 -20.341 -20.782  0.00  0.00    +0.009 C 
BRANCH  24  26
ATOM     25  N   UNL     1      36.531 -22.020 -18.256  0.00  0.00    -0.312 N 
ATOM     26  C   UNL     1      35.081 -21.111 -19.631  0.00  0.00    -0.008 C 
ATOM     27  C   UNL     1      34.346 -21.792 -18.642  0.00  0.00    +0.011 C 
ATOM     28  C   UNL     1      35.285 -22.362 -17.780  0.00  0.00    +0.048 C 
ATOM     29  C   UNL     1      36.412 -21.256 -19.386  0.00  0.00    +0.058 C 
ATOM     30  C   UNL     1      32.976 -21.991 -18.379  0.00  0.00    +0.001 C 
ATOM     31  C   UNL     1      34.922 -23.123 -16.663  0.00  0.00    +0.015 C 
ATOM     32  C   UNL     1      32.597 -22.750 -17.266  0.00  0.00    +0.000 C 
ATOM     33  C   UNL     1      33.557 -23.307 -16.422  0.00  0.00    +0.001 C 
ATOM     34  H   UNL     1      37.384 -22.286 -17.844  0.00  0.00    +0.152 HD
ENDBRANCH  24  26
ENDBRANCH  19  24
ENDBRANCH  18  19
ENDBRANCH   1  18
TORSDOF 7
ENDMDL
MODEL 3
REMARK VINA RESULT:     -12.1      0.929      1.684
REMARK  Name = 6914614
REMARK  7 active torsions:
REMARK  status: ('A' for Active; 'I' for Inactive)
REMARK    1  A    between atoms: O_1  and  C_4
REMARK    2  A    between atoms: O_1  and  C_18
REMARK    3  A    between atoms: C_9  and  C_13
REMARK    4  A    between atoms: C_18  and  C_19
REMARK    5  A    between atoms: C_19  and  N_20
REMARK    6  A    between atoms: C_19  and  C_24
REMARK    7  A    between atoms: C_24  and  C_26
REMARK                            x       y       z     vdW  Elec       q    Type
REMARK                         _______ _______ _______ _____ _____    ______ ____
ROOT
ATOM      1  O   UNL     1      35.739 -20.728 -19.904  0.00  0.00    -0.476 OA
ENDROOT
BRANCH   1   4
ATOM      2  N   UNL     1      35.427 -23.287 -15.821  0.00  0.00    -0.404 NA
ATOM      3  N   UNL     1      32.955 -22.489 -18.387  0.00  0.00    -0.258 NA
ATOM      4  C   UNL     1      35.055 -21.480 -19.002  0.00  0.00    +0.159 C 
ATOM      5  C   UNL     1      35.654 -21.996 -17.846  0.00  0.00    +0.063 C 
ATOM      6  C   UNL     1      34.898 -22.768 -16.947  0.00  0.00    +0.136 C 
ATOM      7  C   UNL     1      37.003 -21.768 -17.545  0.00  0.00    +0.008 C 
ATOM      8  C   UNL     1      33.717 -21.754 -19.223  0.00  0.00    +0.130 C 
ATOM      9  C   UNL     1      36.733 -23.044 -15.566  0.00  0.00    +0.131 C 
ATOM     10  C   UNL     1      37.556 -22.299 -16.387  0.00  0.00    +0.032 C 
ATOM     11  C   UNL     1      33.569 -22.970 -17.280  0.00  0.00    +0.184 C 
BRANCH   9  13
ATOM     12  N   UNL     1      38.197 -24.765 -11.976  0.00  0.00    -0.242 NA
ATOM     13  C   UNL     1      37.232 -23.629 -14.344  0.00  0.00    +0.033 C 
ATOM     14  C   UNL     1      38.223 -24.604 -14.389  0.00  0.00    +0.023 C 
ATOM     15  C   UNL     1      36.723 -23.223 -13.114  0.00  0.00    +0.023 C 
ATOM     16  C   UNL     1      38.669 -25.135 -13.189  0.00  0.00    +0.099 C 
ATOM     17  C   UNL     1      37.235 -23.816 -11.971  0.00  0.00    +0.099 C 
ENDBRANCH   9  13
ENDBRANCH   1   4
BRANCH   1  18
ATOM     18  C   UNL     1      34.970 -19.988 -20.853  0.00  0.00    +0.184 C 
BRANCH  18  19
ATOM     19  C   UNL     1      35.628 -18.645 -21.196  0.00  0.00    -0.017 C 
BRANCH  19  20
ATOM     20  N   UNL     1      36.957 -18.602 -20.576  0.00  0.00    +0.384 N 
ATOM     21  H   UNL     1      36.954 -19.166 -19.725  0.00  0.00    -0.089 HD
ATOM     22  H   UNL     1      37.192 -17.638 -20.343  0.00  0.00    -0.089 HD
ATOM     23  H   UNL     1      37.649 -18.974 -21.227  0.00  0.00    -0.089 HD
ENDBRANCH  19  20
BRANCH  19  24
ATOM     24  C   UNL     1      35.785 -18.393 -22.708  0.00  0.00    +0.009 C 
BRANCH  24  26
ATOM     25  N   UNL     1      34.302 -15.573 -24.493  0.00  0.00    -0.312 N 
ATOM     26  C   UNL     1      35.124 -17.128 -23.178  0.00  0.00    -0.008 C 
ATOM     27  C   UNL     1      34.611 -16.112 -22.350  0.00  0.00    +0.011 C 
ATOM     28  C   UNL     1      34.094 -15.135 -23.204  0.00  0.00    +0.048 C 
ATOM     29  C   UNL     1      34.930 -16.790 -24.482  0.00  0.00    +0.058 C 
ATOM     30  C   UNL     1      34.526 -15.909 -20.958  0.00  0.00    +0.001 C 
ATOM     31  C   UNL     1      33.493 -13.961 -22.735  0.00  0.00    +0.015 C 
ATOM     32  C   UNL     1      33.928 -14.740 -20.474  0.00  0.00    +0.000 C 
ATOM     33  C   UNL     1      33.421 -13.781 -21.350  0.00  0.00    +0.001 C 
ATOM     34  H   UNL     1      34.036 -15.083 -25.304  0.00  0.00    +0.152 HD
ENDBRANCH  24  26
ENDBRANCH  19  24
ENDBRANCH  18  19
ENDBRANCH   1  18
TORSDOF 7
ENDMDL
MODEL 4
REMARK VINA RESULT:     -11.5      2.194      9.943
REMARK  Name = 6914614
REMARK  7 active torsions:
REMARK  status: ('A' for Active; 'I' for Inactive)
REMARK    1  A    between atoms: O_1  and  C_4
REMARK    2  A    between atoms: O_1  and  C_18
REMARK    3  A    between atoms: C_9  and  C_13
REMARK    4  A    between atoms: C_18  and  C_19
REMARK    5  A    between atoms: C_19  and  N_20
REMARK    6  A    between atoms: C_19  and  C_24
REMARK    7  A    between atoms: C_24  and  C_26
REMARK                            x       y       z     vdW  Elec       q    Type
REMARK                         _______ _______ _______ _____ _____    ______ ____
ROOT
ATOM      1  O   UNL     1      36.626 -22.273 -18.363  0.00  0.00    -0.476 OA
ENDROOT
BRANCH   1   4
ATOM      2  N   UNL     1      34.116 -19.288 -21.211  0.00  0.00    -0.404 NA
ATOM      3  N   UNL     1      33.077 -22.067 -19.083  0.00  0.00    -0.258 NA
ATOM      4  C   UNL     1      35.468 -21.821 -18.914  0.00  0.00    +0.159 C 
ATOM      5  C   UNL     1      35.431 -20.743 -19.807  0.00  0.00    +0.063 C 
ATOM      6  C   UNL     1      34.206 -20.319 -20.347  0.00  0.00    +0.136 C 
ATOM      7  C   UNL     1      36.592 -20.059 -20.191  0.00  0.00    +0.008 C 
ATOM      8  C   UNL     1      34.275 -22.441 -18.588  0.00  0.00    +0.130 C 
ATOM      9  C   UNL     1      35.260 -18.652 -21.556  0.00  0.00    +0.131 C 
ATOM     10  C   UNL     1      36.510 -18.994 -21.079  0.00  0.00    +0.032 C 
ATOM     11  C   UNL     1      33.082 -21.022 -19.944  0.00  0.00    +0.184 C 
BRANCH   9  13
ATOM     12  N   UNL     1      34.761 -15.440 -24.281  0.00  0.00    -0.242 NA
ATOM     13  C   UNL     1      35.090 -17.559 -22.483  0.00  0.00    +0.033 C 
ATOM     14  C   UNL     1      35.040 -17.804 -23.852  0.00  0.00    +0.023 C 
ATOM     15  C   UNL     1      34.976 -16.254 -22.014  0.00  0.00    +0.023 C 
ATOM     16  C   UNL     1      34.874 -16.720 -24.701  0.00  0.00    +0.099 C 
ATOM     17  C   UNL     1      34.815 -15.240 -22.946  0.00  0.00    +0.099 C 
ENDBRANCH   9  13
ENDBRANCH   1   4
BRANCH   1  18
ATOM     18  C   UNL     1      36.857 -21.964 -16.988  0.00  0.00    +0.184 C 
BRANCH  18  19
ATOM     19  C   UNL     1      36.262 -23.029 -16.058  0.00  0.00    -0.017 C 
BRANCH  19  20
ATOM     20  N   UNL     1      37.357 -23.842 -15.515  0.00  0.00    +0.384 N 
ATOM     21  H   UNL     1      37.007 -24.414 -14.746  0.00  0.00    -0.089 HD
ATOM     22  H   UNL     1      38.098 -23.231 -15.175  0.00  0.00    -0.089 HD
ATOM     23  H   UNL     1      37.726 -24.448 -16.248  0.00  0.00    -0.089 HD
ENDBRANCH  19  20
BRANCH  19  24
ATOM     24  C   UNL     1      35.452 -22.451 -14.881  0.00  0.00    +0.009 C 
BRANCH  24  26
ATOM     25  N   UNL     1      33.666 -25.027 -13.009  0.00  0.00    -0.312 N 
ATOM     26  C   UNL     1      34.491 -23.433 -14.273  0.00  0.00    -0.008 C 
ATOM     27  C   UNL     1      33.139 -23.591 -14.632  0.00  0.00    +0.011 C 
ATOM     28  C   UNL     1      32.634 -24.607 -13.818  0.00  0.00    +0.048 C 
ATOM     29  C   UNL     1      34.802 -24.313 -13.283  0.00  0.00    +0.058 C 
ATOM     30  C   UNL     1      32.279 -22.979 -15.566  0.00  0.00    +0.001 C 
ATOM     31  C   UNL     1      31.306 -25.043 -13.891  0.00  0.00    +0.015 C 
ATOM     32  C   UNL     1      30.948 -23.405 -15.650  0.00  0.00    +0.000 C 
ATOM     33  C   UNL     1      30.471 -24.422 -14.824  0.00  0.00    +0.001 C 
ATOM     34  H   UNL     1      33.596 -25.738 -12.332  0.00  0.00    +0.152 HD
ENDBRANCH  24  26
ENDBRANCH  19  24
ENDBRANCH  18  19
ENDBRANCH   1  18
TORSDOF 7
ENDMDL
MODEL 5
REMARK VINA RESULT:     -11.4      2.551     10.631
REMARK  Name = 6914614
REMARK  7 active torsions:
REMARK  status: ('A' for Active; 'I' for Inactive)
REMARK    1  A    between atoms: O_1  and  C_4
REMARK    2  A    between atoms: O_1  and  C_18
REMARK    3  A    between atoms: C_9  and  C_13
REMARK    4  A    between atoms: C_18  and  C_19
REMARK    5  A    between atoms: C_19  and  N_20
REMARK    6  A    between atoms: C_19  and  C_24
REMARK    7  A    between atoms: C_24  and  C_26
REMARK                            x       y       z     vdW  Elec       q    Type
REMARK                         _______ _______ _______ _____ _____    ______ ____
ROOT
ATOM      1  O   UNL     1      35.692 -17.955 -22.560  0.00  0.00    -0.476 OA
ENDROOT
BRANCH   1   4
ATOM      2  N   UNL     1      33.163 -13.861 -22.967  0.00  0.00    -0.404 NA
ATOM      3  N   UNL     1      34.473 -16.170 -25.473  0.00  0.00    -0.258 NA
ATOM      4  C   UNL     1      35.068 -16.990 -23.287  0.00  0.00    +0.159 C 
ATOM      5  C   UNL     1      34.423 -15.899 -22.691  0.00  0.00    +0.063 C 
ATOM      6  C   UNL     1      33.796 -14.930 -23.491  0.00  0.00    +0.136 C 
ATOM      7  C   UNL     1      34.380 -15.732 -21.300  0.00  0.00    +0.008 C 
ATOM      8  C   UNL     1      35.063 -17.077 -24.668  0.00  0.00    +0.130 C 
ATOM      9  C   UNL     1      33.143 -13.737 -21.620  0.00  0.00    +0.131 C 
ATOM     10  C   UNL     1      33.730 -14.635 -20.751  0.00  0.00    +0.032 C 
ATOM     11  C   UNL     1      33.861 -15.129 -24.860  0.00  0.00    +0.184 C 
BRANCH   9  13
ATOM     12  N   UNL     1      31.103 -10.309 -20.177  0.00  0.00    -0.242 NA
ATOM     13  C   UNL     1      32.448 -12.570 -21.129  0.00  0.00    +0.033 C 
ATOM     14  C   UNL     1      32.188 -11.500 -21.980  0.00  0.00    +0.023 C 
ATOM     15  C   UNL     1      32.035 -12.508 -19.801  0.00  0.00    +0.023 C 
ATOM     16  C   UNL     1      31.518 -10.404 -21.461  0.00  0.00    +0.099 C 
ATOM     17  C   UNL     1      31.373 -11.366 -19.379  0.00  0.00    +0.099 C 
ENDBRANCH   9  13
ENDBRANCH   1   4
BRANCH   1  18
ATOM     18  C   UNL     1      35.009 -19.199 -22.408  0.00  0.00    +0.184 C 
BRANCH  18  19
ATOM     19  C   UNL     1      34.826 -19.572 -20.931  0.00  0.00    -0.017 C 
BRANCH  19  20
ATOM     20  N   UNL     1      33.397 -19.791 -20.676  0.00  0.00    +0.384 N 
ATOM     21  H   UNL     1      32.846 -19.188 -21.288  0.00  0.00    -0.089 HD
ATOM     22  H   UNL     1      33.188 -19.570 -19.704  0.00  0.00    -0.089 HD
ATOM     23  H   UNL     1      33.164 -20.767 -20.862  0.00  0.00    -0.089 HD
ENDBRANCH  19  20
BRANCH  19  24
ATOM     24  C   UNL     1      35.599 -20.834 -20.502  0.00  0.00    +0.009 C 
BRANCH  24  26
ATOM     25  N   UNL     1      33.454 -22.644 -18.168  0.00  0.00    -0.312 N 
ATOM     26  C   UNL     1      34.950 -21.581 -19.372  0.00  0.00    -0.008 C 
ATOM     27  C   UNL     1      35.571 -21.941 -18.161  0.00  0.00    +0.011 C 
ATOM     28  C   UNL     1      34.604 -22.615 -17.411  0.00  0.00    +0.048 C 
ATOM     29  C   UNL     1      33.660 -22.015 -19.366  0.00  0.00    +0.058 C 
ATOM     30  C   UNL     1      36.857 -21.770 -17.611  0.00  0.00    +0.001 C 
ATOM     31  C   UNL     1      34.860 -23.129 -16.135  0.00  0.00    +0.015 C 
ATOM     32  C   UNL     1      37.128 -22.278 -16.336  0.00  0.00    +0.000 C 
ATOM     33  C   UNL     1      36.143 -22.947 -15.610  0.00  0.00    +0.001 C 
ATOM     34  H   UNL     1      32.606 -23.059 -17.887  0.00  0.00    +0.152 HD
ENDBRANCH  24  26
ENDBRANCH  19  24
ENDBRANCH  18  19
ENDBRANCH   1  18
TORSDOF 7
ENDMDL
MODEL 6
REMARK VINA RESULT:     -11.4      4.913      8.907
REMARK  Name = 6914614
REMARK  7 active torsions:
REMARK  status: ('A' for Active; 'I' for Inactive)
REMARK    1  A    between atoms: O_1  and  C_4
REMARK    2  A    between atoms: O_1  and  C_18
REMARK    3  A    between atoms: C_9  and  C_13
REMARK    4  A    between atoms: C_18  and  C_19
REMARK    5  A    between atoms: C_19  and  N_20
REMARK    6  A    between atoms: C_19  and  C_24
REMARK    7  A    between atoms: C_24  and  C_26
REMARK                            x       y       z     vdW  Elec       q    Type
REMARK                         _______ _______ _______ _____ _____    ______ ____
ROOT
ATOM      1  O   UNL     1      33.647 -12.747 -23.740  0.00  0.00    -0.476 OA
ENDROOT
BRANCH   1   4
ATOM      2  N   UNL     1      34.921 -17.387 -23.328  0.00  0.00    -0.404 NA
ATOM      3  N   UNL     1      33.957 -15.377 -26.219  0.00  0.00    -0.258 NA
ATOM      4  C   UNL     1      33.891 -13.981 -24.256  0.00  0.00    +0.159 C 
ATOM      5  C   UNL     1      34.294 -15.062 -23.461  0.00  0.00    +0.063 C 
ATOM      6  C   UNL     1      34.532 -16.316 -24.048  0.00  0.00    +0.136 C 
ATOM      7  C   UNL     1      34.472 -14.939 -22.077  0.00  0.00    +0.008 C 
ATOM      8  C   UNL     1      33.739 -14.191 -25.615  0.00  0.00    +0.130 C 
ATOM      9  C   UNL     1      35.082 -17.227 -21.994  0.00  0.00    +0.131 C 
ATOM     10  C   UNL     1      34.873 -16.036 -21.327  0.00  0.00    +0.032 C 
ATOM     11  C   UNL     1      34.345 -16.397 -25.418  0.00  0.00    +0.184 C 
BRANCH   9  13
ATOM     12  N   UNL     1      36.308 -20.716 -19.916  0.00  0.00    -0.242 NA
ATOM     13  C   UNL     1      35.499 -18.414 -21.286  0.00  0.00    +0.033 C 
ATOM     14  C   UNL     1      36.839 -18.602 -20.963  0.00  0.00    +0.023 C 
ATOM     15  C   UNL     1      34.564 -19.379 -20.924  0.00  0.00    +0.023 C 
ATOM     16  C   UNL     1      37.189 -19.758 -20.283  0.00  0.00    +0.099 C 
ATOM     17  C   UNL     1      35.015 -20.501 -20.247  0.00  0.00    +0.099 C 
ENDBRANCH   9  13
ENDBRANCH   1   4
BRANCH   1  18
ATOM     18  C   UNL     1      34.082 -11.623 -24.504  0.00  0.00    +0.184 C 
BRANCH  18  19
ATOM     19  C   UNL     1      34.326 -10.393 -23.621  0.00  0.00    -0.017 C 
BRANCH  19  20
ATOM     20  N   UNL     1      35.468  -9.647 -24.162  0.00  0.00    +0.384 N 
ATOM     21  H   UNL     1      36.046  -9.306 -23.393  0.00  0.00    -0.089 HD
ATOM     22  H   UNL     1      35.129  -8.856 -24.709  0.00  0.00    -0.089 HD
ATOM     23  H   UNL     1      36.023 -10.260 -24.758  0.00  0.00    -0.089 HD
ENDBRANCH  19  20
BRANCH  19  24
ATOM     24  C   UNL     1      33.118  -9.440 -23.526  0.00  0.00    +0.009 C 
BRANCH  24  26
ATOM     25  N   UNL     1      32.462  -7.926 -20.269  0.00  0.00    -0.312 N 
ATOM     26  C   UNL     1      32.748  -9.079 -22.115  0.00  0.00    -0.008 C 
ATOM     27  C   UNL     1      32.175  -9.947 -21.167  0.00  0.00    +0.011 C 
ATOM     28  C   UNL     1      32.002  -9.196 -20.003  0.00  0.00    +0.048 C 
ATOM     29  C   UNL     1      32.918  -7.849 -21.557  0.00  0.00    +0.058 C 
ATOM     30  C   UNL     1      31.780 -11.301 -21.166  0.00  0.00    +0.001 C 
ATOM     31  C   UNL     1      31.451  -9.731 -18.833  0.00  0.00    +0.015 C 
ATOM     32  C   UNL     1      31.228 -11.850 -20.003  0.00  0.00    +0.000 C 
ATOM     33  C   UNL     1      31.067 -11.075 -18.855  0.00  0.00    +0.001 C 
ATOM     34  H   UNL     1      32.462  -7.181 -19.626  0.00  0.00    +0.152 HD
ENDBRANCH  24  26
ENDBRANCH  19  24
ENDBRANCH  18  19
ENDBRANCH   1  18
TORSDOF 7
ENDMDL
MODEL 7
REMARK VINA RESULT:     -11.4      6.378     10.998
REMARK  Name = 6914614
REMARK  7 active torsions:
REMARK  status: ('A' for Active; 'I' for Inactive)
REMARK    1  A    between atoms: O_1  and  C_4
REMARK    2  A    between atoms: O_1  and  C_18
REMARK    3  A    between atoms: C_9  and  C_13
REMARK    4  A    between atoms: C_18  and  C_19
REMARK    5  A    between atoms: C_19  and  N_20
REMARK    6  A    between atoms: C_19  and  C_24
REMARK    7  A    between atoms: C_24  and  C_26
REMARK                            x       y       z     vdW  Elec       q    Type
REMARK                         _______ _______ _______ _____ _____    ______ ____
ROOT
ATOM      1  O   UNL     1      31.884 -10.745 -21.098  0.00  0.00    -0.476 OA
ENDROOT
BRANCH   1   4
ATOM      2  N   UNL     1      34.466 -14.270 -23.153  0.00  0.00    -0.404 NA
ATOM      3  N   UNL     1      33.822 -10.821 -24.163  0.00  0.00    -0.258 NA
ATOM      4  C   UNL     1      32.681 -11.239 -22.083  0.00  0.00    +0.159 C 
ATOM      5  C   UNL     1      33.160 -12.555 -22.072  0.00  0.00    +0.063 C 
ATOM      6  C   UNL     1      33.980 -13.014 -23.117  0.00  0.00    +0.136 C 
ATOM      7  C   UNL     1      32.847 -13.450 -21.040  0.00  0.00    +0.008 C 
ATOM      8  C   UNL     1      33.038 -10.423 -23.141  0.00  0.00    +0.130 C 
ATOM      9  C   UNL     1      34.142 -15.103 -22.137  0.00  0.00    +0.131 C 
ATOM     10  C   UNL     1      33.345 -14.746 -21.068  0.00  0.00    +0.032 C 
ATOM     11  C   UNL     1      34.265 -12.100 -24.118  0.00  0.00    +0.184 C 
BRANCH   9  13
ATOM     12  N   UNL     1      35.772 -19.007 -22.444  0.00  0.00    -0.242 NA
ATOM     13  C   UNL     1      34.697 -16.432 -22.242  0.00  0.00    +0.033 C 
ATOM     14  C   UNL     1      34.894 -17.012 -23.491  0.00  0.00    +0.023 C 
ATOM     15  C   UNL     1      35.037 -17.141 -21.094  0.00  0.00    +0.023 C 
ATOM     16  C   UNL     1      35.431 -18.289 -23.538  0.00  0.00    +0.099 C 
ATOM     17  C   UNL     1      35.567 -18.413 -21.248  0.00  0.00    +0.099 C 
ENDBRANCH   9  13
ENDBRANCH   1   4
BRANCH   1  18
ATOM     18  C   UNL     1      31.518  -9.368 -21.186  0.00  0.00    +0.184 C 
BRANCH  18  19
ATOM     19  C   UNL     1      31.908  -8.593 -19.920  0.00  0.00    -0.017 C 
BRANCH  19  20
ATOM     20  N   UNL     1      32.469  -9.538 -18.947  0.00  0.00    +0.384 N 
ATOM     21  H   UNL     1      33.203  -9.076 -18.409  0.00  0.00    -0.089 HD
ATOM     22  H   UNL     1      32.861 -10.340 -19.439  0.00  0.00    -0.089 HD
ATOM     23  H   UNL     1      31.732  -9.853 -18.315  0.00  0.00    -0.089 HD
ENDBRANCH  19  20
BRANCH  19  24
ATOM     24  C   UNL     1      32.936  -7.472 -20.163  0.00  0.00    +0.009 C 
BRANCH  24  26
ATOM     25  N   UNL     1      31.617  -5.229 -22.725  0.00  0.00    -0.312 N 
ATOM     26  C   UNL     1      32.629  -6.625 -21.366  0.00  0.00    -0.008 C 
ATOM     27  C   UNL     1      33.419  -6.528 -22.527  0.00  0.00    +0.011 C 
ATOM     28  C   UNL     1      32.759  -5.637 -23.376  0.00  0.00    +0.048 C 
ATOM     29  C   UNL     1      31.533  -5.828 -21.497  0.00  0.00    +0.058 C 
ATOM     30  C   UNL     1      34.633  -7.102 -22.957  0.00  0.00    +0.001 C 
ATOM     31  C   UNL     1      33.254  -5.289 -24.638  0.00  0.00    +0.015 C 
ATOM     32  C   UNL     1      35.139  -6.764 -24.216  0.00  0.00    +0.000 C 
ATOM     33  C   UNL     1      34.459  -5.871 -25.043  0.00  0.00    +0.001 C 
ATOM     34  H   UNL     1      30.957  -4.596 -23.089  0.00  0.00    +0.152 HD
ENDBRANCH  24  26
ENDBRANCH  19  24
ENDBRANCH  18  19
ENDBRANCH   1  18
TORSDOF 7
ENDMDL
MODEL 8
REMARK VINA RESULT:     -11.2      2.407      3.875
REMARK  Name = 6914614
REMARK  7 active torsions:
REMARK  status: ('A' for Active; 'I' for Inactive)
REMARK    1  A    between atoms: O_1  and  C_4
REMARK    2  A    between atoms: O_1  and  C_18
REMARK    3  A    between atoms: C_9  and  C_13
REMARK    4  A    between atoms: C_18  and  C_19
REMARK    5  A    between atoms: C_19  and  N_20
REMARK    6  A    between atoms: C_19  and  C_24
REMARK    7  A    between atoms: C_24  and  C_26
REMARK                            x       y       z     vdW  Elec       q    Type
REMARK                         _______ _______ _______ _____ _____    ______ ____
ROOT
ATOM      1  O   UNL     1      35.737 -21.439 -19.792  0.00  0.00    -0.476 OA
ENDROOT
BRANCH   1   4
ATOM      2  N   UNL     1      34.223 -23.189 -15.553  0.00  0.00    -0.404 NA
ATOM      3  N   UNL     1      37.491 -22.001 -16.668  0.00  0.00    -0.258 NA
ATOM      4  C   UNL     1      35.937 -21.805 -18.498  0.00  0.00    +0.159 C 
ATOM      5  C   UNL     1      34.911 -22.323 -17.697  0.00  0.00    +0.063 C 
ATOM      6  C   UNL     1      35.174 -22.686 -16.365  0.00  0.00    +0.136 C 
ATOM      7  C   UNL     1      33.608 -22.498 -18.181  0.00  0.00    +0.008 C 
ATOM      8  C   UNL     1      37.195 -21.666 -17.940  0.00  0.00    +0.130 C 
ATOM      9  C   UNL     1      32.977 -23.342 -16.059  0.00  0.00    +0.131 C 
ATOM     10  C   UNL     1      32.621 -23.015 -17.352  0.00  0.00    +0.032 C 
ATOM     11  C   UNL     1      36.474 -22.499 -15.925  0.00  0.00    +0.184 C 
BRANCH   9  13
ATOM     12  N   UNL     1      30.136 -24.937 -13.343  0.00  0.00    -0.242 NA
ATOM     13  C   UNL     1      32.010 -23.886 -15.135  0.00  0.00    +0.033 C 
ATOM     14  C   UNL     1      30.651 -23.814 -15.422  0.00  0.00    +0.023 C 
ATOM     15  C   UNL     1      32.432 -24.483 -13.951  0.00  0.00    +0.023 C 
ATOM     16  C   UNL     1      29.763 -24.351 -14.503  0.00  0.00    +0.099 C 
ATOM     17  C   UNL     1      31.464 -24.989 -13.097  0.00  0.00    +0.099 C 
ENDBRANCH   9  13
ENDBRANCH   1   4
BRANCH   1  18
ATOM     18  C   UNL     1      36.409 -20.266 -20.249  0.00  0.00    +0.184 C 
BRANCH  18  19
ATOM     19  C   UNL     1      35.522 -19.426 -21.177  0.00  0.00    -0.017 C 
BRANCH  19  20
ATOM     20  N   UNL     1      34.119 -19.777 -20.928  0.00  0.00    +0.384 N 
ATOM     21  H   UNL     1      34.021 -20.135 -19.977  0.00  0.00    -0.089 HD
ATOM     22  H   UNL     1      33.824 -20.492 -21.592  0.00  0.00    -0.089 HD
ATOM     23  H   UNL     1      33.536 -18.947 -21.040  0.00  0.00    -0.089 HD
ENDBRANCH  19  20
BRANCH  19  24
ATOM     24  C   UNL     1      35.687 -17.905 -20.993  0.00  0.00    +0.009 C 
BRANCH  24  26
ATOM     25  N   UNL     1      34.695 -16.478 -24.205  0.00  0.00    -0.312 N 
ATOM     26  C   UNL     1      35.175 -17.101 -22.155  0.00  0.00    -0.008 C 
ATOM     27  C   UNL     1      34.521 -15.857 -22.070  0.00  0.00    +0.011 C 
ATOM     28  C   UNL     1      34.225 -15.480 -23.381  0.00  0.00    +0.048 C 
ATOM     29  C   UNL     1      35.275 -17.470 -23.461  0.00  0.00    +0.058 C 
ATOM     30  C   UNL     1      34.143 -15.000 -21.016  0.00  0.00    +0.001 C 
ATOM     31  C   UNL     1      33.567 -14.285 -23.694  0.00  0.00    +0.015 C 
ATOM     32  C   UNL     1      33.485 -13.802 -21.313  0.00  0.00    +0.000 C 
ATOM     33  C   UNL     1      33.202 -13.451 -22.633  0.00  0.00    +0.001 C 
ATOM     34  H   UNL     1      34.623 -16.478 -25.186  0.00  0.00    +0.152 HD
ENDBRANCH  24  26
ENDBRANCH  19  24
ENDBRANCH  18  19
ENDBRANCH   1  18
TORSDOF 7
ENDMDL
MODEL 9
REMARK VINA RESULT:     -11.2      3.283      9.582
REMARK  Name = 6914614
REMARK  7 active torsions:
REMARK  status: ('A' for Active; 'I' for Inactive)
REMARK    1  A    between atoms: O_1  and  C_4
REMARK    2  A    between atoms: O_1  and  C_18
REMARK    3  A    between atoms: C_9  and  C_13
REMARK    4  A    between atoms: C_18  and  C_19
REMARK    5  A    between atoms: C_19  and  N_20
REMARK    6  A    between atoms: C_19  and  C_24
REMARK    7  A    between atoms: C_24  and  C_26
REMARK                            x       y       z     vdW  Elec       q    Type
REMARK                         _______ _______ _______ _____ _____    ______ ____
ROOT
ATOM      1  O   UNL     1      34.600 -23.998 -15.534  0.00  0.00    -0.476 OA
ENDROOT
BRANCH   1   4
ATOM      2  N   UNL     1      36.764 -20.993 -18.633  0.00  0.00    -0.404 NA
ATOM      3  N   UNL     1      37.932 -22.566 -15.552  0.00  0.00    -0.258 NA
ATOM      4  C   UNL     1      35.662 -23.262 -15.957  0.00  0.00    +0.159 C 
ATOM      5  C   UNL     1      35.623 -22.492 -17.127  0.00  0.00    +0.063 C 
ATOM      6  C   UNL     1      36.750 -21.749 -17.517  0.00  0.00    +0.136 C 
ATOM      7  C   UNL     1      34.483 -22.433 -17.939  0.00  0.00    +0.008 C 
ATOM      8  C   UNL     1      36.828 -23.263 -15.214  0.00  0.00    +0.130 C 
ATOM      9  C   UNL     1      35.643 -20.962 -19.390  0.00  0.00    +0.131 C 
ATOM     10  C   UNL     1      34.488 -21.657 -19.091  0.00  0.00    +0.032 C 
ATOM     11  C   UNL     1      37.856 -21.833 -16.688  0.00  0.00    +0.184 C 
BRANCH   9  13
ATOM     12  N   UNL     1      35.897 -18.527 -22.854  0.00  0.00    -0.242 NA
ATOM     13  C   UNL     1      35.729 -20.133 -20.569  0.00  0.00    +0.033 C 
ATOM     14  C   UNL     1      34.654 -20.053 -21.448  0.00  0.00    +0.023 C 
ATOM     15  C   UNL     1      36.889 -19.411 -20.834  0.00  0.00    +0.023 C 
ATOM     16  C   UNL     1      34.786 -19.242 -22.565  0.00  0.00    +0.099 C 
ATOM     17  C   UNL     1      36.921 -18.630 -21.979  0.00  0.00    +0.099 C 
ENDBRANCH   9  13
ENDBRANCH   1   4
BRANCH   1  18
ATOM     18  C   UNL     1      34.797 -24.826 -14.388  0.00  0.00    +0.184 C 
BRANCH  18  19
ATOM     19  C   UNL     1      33.940 -24.369 -13.201  0.00  0.00    -0.017 C 
BRANCH  19  20
ATOM     20  N   UNL     1      34.803 -23.666 -12.243  0.00  0.00    +0.384 N 
ATOM     21  H   UNL     1      34.225 -23.194 -11.548  0.00  0.00    -0.089 HD
ATOM     22  H   UNL     1      35.370 -22.979 -12.737  0.00  0.00    -0.089 HD
ATOM     23  H   UNL     1      35.412 -24.339 -11.777  0.00  0.00    -0.089 HD
ENDBRANCH  19  20
BRANCH  19  24
ATOM     24  C   UNL     1      32.778 -23.435 -13.589  0.00  0.00    +0.009 C 
BRANCH  24  26
ATOM     25  N   UNL     1      29.899 -25.664 -13.862  0.00  0.00    -0.312 N 
ATOM     26  C   UNL     1      31.500 -24.162 -13.898  0.00  0.00    -0.008 C 
ATOM     27  C   UNL     1      30.524 -23.752 -14.825  0.00  0.00    +0.011 C 
ATOM     28  C   UNL     1      29.517 -24.719 -14.787  0.00  0.00    +0.048 C 
ATOM     29  C   UNL     1      31.109 -25.328 -13.316  0.00  0.00    +0.058 C 
ATOM     30  C   UNL     1      30.380 -22.658 -15.702  0.00  0.00    +0.001 C 
ATOM     31  C   UNL     1      28.369 -24.647 -15.584  0.00  0.00    +0.015 C 
ATOM     32  C   UNL     1      29.237 -22.572 -16.505  0.00  0.00    +0.000 C 
ATOM     33  C   UNL     1      28.248 -23.553 -16.446  0.00  0.00    +0.001 C 
ATOM     34  H   UNL     1      29.378 -26.465 -13.627  0.00  0.00    +0.152 HD
ENDBRANCH  24  26
ENDBRANCH  19  24
ENDBRANCH  18  19
ENDBRANCH   1  18
TORSDOF 7
ENDMDL
