MODEL 1
REMARK VINA RESULT:     -11.2      0.000      0.000
REMARK  Name = 44629554
REMARK  5 active torsions:
REMARK  status: ('A' for Active; 'I' for Inactive)
REMARK    1  A    between atoms: C_5  and  C_30
REMARK    2  A    between atoms: C_6  and  N_18
REMARK    3  A    between atoms: C_7  and  C_12
REMARK    4  A    between atoms: N_18  and  C_20
REMARK    5  A    between atoms: C_20  and  C_24
REMARK                            x       y       z     vdW  Elec       q    Type
REMARK                         _______ _______ _______ _____ _____    ______ ____
ROOT
ATOM      1  N   UNL     1      32.854 -23.243 -15.998  0.00  0.00    -0.152 N 
ATOM      2  N   UNL     1      35.206 -23.735 -15.833  0.00  0.00    -0.389 NA
ATOM      3  N   UNL     1      31.973 -22.663 -16.861  0.00  0.00    -0.174 NA
ATOM      4  C   UNL     1      34.151 -23.213 -16.514  0.00  0.00    +0.189 C 
ATOM      5  C   UNL     1      34.072 -22.592 -17.739  0.00  0.00    +0.112 C 
ATOM      6  C   UNL     1      32.581 -23.811 -14.744  0.00  0.00    +0.126 C 
ATOM      7  C   UNL     1      34.952 -24.275 -14.676  0.00  0.00    +0.140 C 
ATOM      8  C   UNL     1      33.598 -24.338 -14.041  0.00  0.00    +0.064 C 
ATOM      9  C   UNL     1      32.717 -22.279 -17.897  0.00  0.00    +0.100 C 
ENDROOT
BRANCH   7  12
ATOM     10  F   UNL     1      36.062 -23.012 -12.410  0.00  0.00    -0.204 F 
ATOM     11  F   UNL     1      36.142 -26.745 -15.346  0.00  0.00    -0.204 F 
ATOM     12  C   UNL     1      36.074 -24.863 -13.897  0.00  0.00    +0.085 C 
ATOM     13  C   UNL     1      36.579 -24.191 -12.785  0.00  0.00    +0.145 C 
ATOM     14  C   UNL     1      36.620 -26.089 -14.278  0.00  0.00    +0.145 C 
ATOM     15  C   UNL     1      37.631 -24.743 -12.054  0.00  0.00    +0.030 C 
ATOM     16  C   UNL     1      37.672 -26.641 -13.548  0.00  0.00    +0.030 C 
ATOM     17  C   UNL     1      38.178 -25.968 -12.436  0.00  0.00    +0.005 C 
ENDBRANCH   7  12
BRANCH   6  18
ATOM     18  N   UNL     1      31.286 -23.784 -14.308  0.00  0.00    -0.316 N 
ATOM     19  H   UNL     1      31.035 -23.116 -13.631  0.00  0.00    +0.148 HD
BRANCH  18  20
ATOM     20  C   UNL     1      30.272 -24.684 -14.789  0.00  0.00    +0.114 C 
BRANCH  20  24
ATOM     21  N   UNL     1      27.592 -23.844 -17.327  0.00  0.00    -0.181 NA
ATOM     22  N   UNL     1      27.941 -21.923 -15.916  0.00  0.00    -0.204 NA
ATOM     23  N   UNL     1      26.361 -21.873 -17.649  0.00  0.00    -0.303 N 
ATOM     24  C   UNL     1      29.221 -23.930 -15.557  0.00  0.00    +0.020 C 
ATOM     25  C   UNL     1      28.539 -24.492 -16.616  0.00  0.00    +0.106 C 
ATOM     26  C   UNL     1      28.878 -22.629 -15.248  0.00  0.00    +0.163 C 
ATOM     27  C   UNL     1      27.347 -22.582 -16.928  0.00  0.00    +0.084 C 
ATOM     28  H   UNL     1      25.893 -22.306 -18.400  0.00  0.00    +0.154 HD
ATOM     29  H   UNL     1      26.141 -20.946 -17.401  0.00  0.00    +0.154 HD
ENDBRANCH  20  24
ENDBRANCH  18  20
ENDBRANCH   6  18
BRANCH   5  30
ATOM     30  C   UNL     1      35.170 -22.316 -18.680  0.00  0.00    +0.015 C 
ATOM     31  C   UNL     1      34.849 -21.181 -19.661  0.00  0.00    +0.001 C 
ENDBRANCH   5  30
TORSDOF 5
ENDMDL
MODEL 2
REMARK VINA RESULT:     -11.2      0.074      1.804
REMARK  Name = 44629554
REMARK  5 active torsions:
REMARK  status: ('A' for Active; 'I' for Inactive)
REMARK    1  A    between atoms: C_5  and  C_30
REMARK    2  A    between atoms: C_6  and  N_18
REMARK    3  A    between atoms: C_7  and  C_12
REMARK    4  A    between atoms: N_18  and  C_20
REMARK    5  A    between atoms: C_20  and  C_24
REMARK                            x       y       z     vdW  Elec       q    Type
REMARK                         _______ _______ _______ _____ _____    ______ ____
ROOT
ATOM      1  N   UNL     1      32.855 -23.257 -16.004  0.00  0.00    -0.152 N 
ATOM      2  N   UNL     1      35.209 -23.739 -15.841  0.00  0.00    -0.389 NA
ATOM      3  N   UNL     1      31.972 -22.675 -16.863  0.00  0.00    -0.174 NA
ATOM      4  C   UNL     1      34.152 -23.217 -16.519  0.00  0.00    +0.189 C 
ATOM      5  C   UNL     1      34.071 -22.588 -17.740  0.00  0.00    +0.112 C 
ATOM      6  C   UNL     1      32.584 -23.834 -14.753  0.00  0.00    +0.126 C 
ATOM      7  C   UNL     1      34.957 -24.287 -14.687  0.00  0.00    +0.140 C 
ATOM      8  C   UNL     1      33.604 -24.360 -14.053  0.00  0.00    +0.064 C 
ATOM      9  C   UNL     1      32.714 -22.281 -17.896  0.00  0.00    +0.100 C 
ENDROOT
BRANCH   7  12
ATOM     10  F   UNL     1      36.175 -26.734 -15.387  0.00  0.00    -0.204 F 
ATOM     11  F   UNL     1      36.045 -23.045 -12.398  0.00  0.00    -0.204 F 
ATOM     12  C   UNL     1      36.082 -24.875 -13.912  0.00  0.00    +0.085 C 
ATOM     13  C   UNL     1      36.643 -26.088 -14.309  0.00  0.00    +0.145 C 
ATOM     14  C   UNL     1      36.577 -24.212 -12.789  0.00  0.00    +0.145 C 
ATOM     15  C   UNL     1      37.699 -26.640 -13.583  0.00  0.00    +0.030 C 
ATOM     16  C   UNL     1      37.632 -24.764 -12.063  0.00  0.00    +0.030 C 
ATOM     17  C   UNL     1      38.193 -25.978 -12.460  0.00  0.00    +0.005 C 
ENDBRANCH   7  12
BRANCH   6  18
ATOM     18  N   UNL     1      31.289 -23.816 -14.317  0.00  0.00    -0.316 N 
ATOM     19  H   UNL     1      31.041 -23.170 -13.618  0.00  0.00    +0.148 HD
BRANCH  18  20
ATOM     20  C   UNL     1      30.271 -24.695 -14.830  0.00  0.00    +0.114 C 
BRANCH  20  24
ATOM     21  N   UNL     1      27.889 -21.902 -15.754  0.00  0.00    -0.181 NA
ATOM     22  N   UNL     1      27.566 -23.726 -17.295  0.00  0.00    -0.204 NA
ATOM     23  N   UNL     1      26.301 -21.760 -17.475  0.00  0.00    -0.303 N 
ATOM     24  C   UNL     1      29.206 -23.906 -15.540  0.00  0.00    +0.020 C 
ATOM     25  C   UNL     1      28.841 -22.637 -15.140  0.00  0.00    +0.106 C 
ATOM     26  C   UNL     1      28.528 -24.406 -16.634  0.00  0.00    +0.163 C 
ATOM     27  C   UNL     1      27.302 -22.499 -16.808  0.00  0.00    +0.084 C 
ATOM     28  H   UNL     1      26.066 -20.856 -17.163  0.00  0.00    +0.154 HD
ATOM     29  H   UNL     1      25.838 -22.147 -18.253  0.00  0.00    +0.154 HD
ENDBRANCH  20  24
ENDBRANCH  18  20
ENDBRANCH   6  18
BRANCH   5  30
ATOM     30  C   UNL     1      35.168 -22.301 -18.679  0.00  0.00    +0.015 C 
ATOM     31  C   UNL     1      34.837 -21.171 -19.661  0.00  0.00    +0.001 C 
ENDBRANCH   5  30
TORSDOF 5
ENDMDL
MODEL 3
REMARK VINA RESULT:     -10.8      2.747      7.430
REMARK  Name = 44629554
REMARK  5 active torsions:
REMARK  status: ('A' for Active; 'I' for Inactive)
REMARK    1  A    between atoms: C_5  and  C_30
REMARK    2  A    between atoms: C_6  and  N_18
REMARK    3  A    between atoms: C_7  and  C_12
REMARK    4  A    between atoms: N_18  and  C_20
REMARK    5  A    between atoms: C_20  and  C_24
REMARK                            x       y       z     vdW  Elec       q    Type
REMARK                         _______ _______ _______ _____ _____    ______ ____
ROOT
ATOM      1  N   UNL     1      35.317 -23.036 -15.038  0.00  0.00    -0.152 N 
ATOM      2  N   UNL     1      33.278 -23.176 -16.311  0.00  0.00    -0.389 NA
ATOM      3  N   UNL     1      36.627 -22.702 -15.209  0.00  0.00    -0.174 NA
ATOM      4  C   UNL     1      34.607 -22.901 -16.232  0.00  0.00    +0.189 C 
ATOM      5  C   UNL     1      35.508 -22.471 -17.178  0.00  0.00    +0.112 C 
ATOM      6  C   UNL     1      34.688 -23.470 -13.860  0.00  0.00    +0.126 C 
ATOM      7  C   UNL     1      32.690 -23.565 -15.216  0.00  0.00    +0.140 C 
ATOM      8  C   UNL     1      33.374 -23.750 -13.898  0.00  0.00    +0.064 C 
ATOM      9  C   UNL     1      36.725 -22.367 -16.494  0.00  0.00    +0.100 C 
ENDROOT
BRANCH   7  12
ATOM     10  F   UNL     1      30.858 -22.076 -16.762  0.00  0.00    -0.204 F 
ATOM     11  F   UNL     1      31.540 -25.682 -13.746  0.00  0.00    -0.204 F 
ATOM     12  C   UNL     1      31.235 -23.871 -15.254  0.00  0.00    +0.085 C 
ATOM     13  C   UNL     1      30.380 -23.099 -16.039  0.00  0.00    +0.145 C 
ATOM     14  C   UNL     1      30.727 -24.933 -14.505  0.00  0.00    +0.145 C 
ATOM     15  C   UNL     1      29.015 -23.387 -16.075  0.00  0.00    +0.030 C 
ATOM     16  C   UNL     1      29.362 -25.221 -14.541  0.00  0.00    +0.030 C 
ATOM     17  C   UNL     1      28.507 -24.448 -15.326  0.00  0.00    +0.005 C 
ENDBRANCH   7  12
BRANCH   6  18
ATOM     18  N   UNL     1      35.460 -23.589 -12.739  0.00  0.00    -0.316 N 
ATOM     19  H   UNL     1      35.771 -22.766 -12.297  0.00  0.00    +0.148 HD
BRANCH  18  20
ATOM     20  C   UNL     1      35.842 -24.856 -12.173  0.00  0.00    +0.114 C 
BRANCH  20  24
ATOM     21  N   UNL     1      38.451 -26.910 -13.989  0.00  0.00    -0.181 NA
ATOM     22  N   UNL     1      39.521 -24.964 -13.056  0.00  0.00    -0.204 NA
ATOM     23  N   UNL     1      40.750 -26.543 -14.280  0.00  0.00    -0.303 N 
ATOM     24  C   UNL     1      37.160 -25.309 -12.739  0.00  0.00    +0.020 C 
ATOM     25  C   UNL     1      37.285 -26.474 -13.468  0.00  0.00    +0.106 C 
ATOM     26  C   UNL     1      38.323 -24.587 -12.562  0.00  0.00    +0.163 C 
ATOM     27  C   UNL     1      39.512 -26.118 -13.749  0.00  0.00    +0.084 C 
ATOM     28  H   UNL     1      40.803 -27.380 -14.796  0.00  0.00    +0.154 HD
ATOM     29  H   UNL     1      41.560 -26.003 -14.134  0.00  0.00    +0.154 HD
ENDBRANCH  20  24
ENDBRANCH  18  20
ENDBRANCH   6  18
BRANCH   5  30
ATOM     30  C   UNL     1      35.252 -22.181 -18.599  0.00  0.00    +0.015 C 
ATOM     31  C   UNL     1      36.402 -21.423 -19.274  0.00  0.00    +0.001 C 
ENDBRANCH   5  30
TORSDOF 5
ENDMDL
MODEL 4
REMARK VINA RESULT:     -10.7      2.570      5.854
REMARK  Name = 44629554
REMARK  5 active torsions:
REMARK  status: ('A' for Active; 'I' for Inactive)
REMARK    1  A    between atoms: C_5  and  C_30
REMARK    2  A    between atoms: C_6  and  N_18
REMARK    3  A    between atoms: C_7  and  C_12
REMARK    4  A    between atoms: N_18  and  C_20
REMARK    5  A    between atoms: C_20  and  C_24
REMARK                            x       y       z     vdW  Elec       q    Type
REMARK                         _______ _______ _______ _____ _____    ______ ____
ROOT
ATOM      1  N   UNL     1      33.077 -23.108 -16.310  0.00  0.00    -0.152 N 
ATOM      2  N   UNL     1      33.826 -24.352 -14.390  0.00  0.00    -0.389 NA
ATOM      3  N   UNL     1      31.917 -22.653 -16.865  0.00  0.00    -0.174 NA
ATOM      4  C   UNL     1      32.824 -23.804 -15.127  0.00  0.00    +0.189 C 
ATOM      5  C   UNL     1      31.461 -23.782 -14.942  0.00  0.00    +0.112 C 
ATOM      6  C   UNL     1      34.383 -22.948 -16.798  0.00  0.00    +0.126 C 
ATOM      7  C   UNL     1      35.040 -24.192 -14.833  0.00  0.00    +0.140 C 
ATOM      8  C   UNL     1      35.401 -23.475 -16.096  0.00  0.00    +0.064 C 
ATOM      9  C   UNL     1      30.961 -23.064 -16.034  0.00  0.00    +0.100 C 
ENDROOT
BRANCH   7  12
ATOM     10  F   UNL     1      36.152 -26.720 -15.412  0.00  0.00    -0.204 F 
ATOM     11  F   UNL     1      36.243 -22.848 -12.662  0.00  0.00    -0.204 F 
ATOM     12  C   UNL     1      36.169 -24.770 -14.057  0.00  0.00    +0.085 C 
ATOM     13  C   UNL     1      36.676 -26.024 -14.393  0.00  0.00    +0.145 C 
ATOM     14  C   UNL     1      36.722 -24.056 -12.994  0.00  0.00    +0.145 C 
ATOM     15  C   UNL     1      37.736 -26.567 -13.665  0.00  0.00    +0.030 C 
ATOM     16  C   UNL     1      37.781 -24.598 -12.266  0.00  0.00    +0.030 C 
ATOM     17  C   UNL     1      38.288 -25.853 -12.602  0.00  0.00    +0.005 C 
ENDBRANCH   7  12
BRANCH   6  18
ATOM     18  N   UNL     1      34.539 -22.266 -17.972  0.00  0.00    -0.316 N 
ATOM     19  H   UNL     1      33.736 -21.909 -18.415  0.00  0.00    +0.148 HD
BRANCH  18  20
ATOM     20  C   UNL     1      35.818 -22.042 -18.592  0.00  0.00    +0.114 C 
BRANCH  20  24
ATOM     21  N   UNL     1      36.784 -19.131 -20.808  0.00  0.00    -0.181 NA
ATOM     22  N   UNL     1      34.437 -19.580 -21.112  0.00  0.00    -0.204 NA
ATOM     23  N   UNL     1      35.493 -17.848 -22.289  0.00  0.00    -0.303 N 
ATOM     24  C   UNL     1      35.732 -20.917 -19.585  0.00  0.00    +0.020 C 
ATOM     25  C   UNL     1      36.827 -20.148 -19.922  0.00  0.00    +0.106 C 
ATOM     26  C   UNL     1      34.550 -20.583 -20.217  0.00  0.00    +0.163 C 
ATOM     27  C   UNL     1      35.576 -18.905 -21.357  0.00  0.00    +0.084 C 
ATOM     28  H   UNL     1      36.296 -17.320 -22.507  0.00  0.00    +0.154 HD
ATOM     29  H   UNL     1      34.634 -17.637 -22.722  0.00  0.00    +0.154 HD
ENDBRANCH  20  24
ENDBRANCH  18  20
ENDBRANCH   6  18
BRANCH   5  30
ATOM     30  C   UNL     1      30.694 -24.380 -13.836  0.00  0.00    +0.015 C 
ATOM     31  C   UNL     1      29.519 -25.241 -14.318  0.00  0.00    +0.001 C 
ENDBRANCH   5  30
TORSDOF 5
ENDMDL
MODEL 5
REMARK VINA RESULT:     -10.7      1.960      4.778
REMARK  Name = 44629554
REMARK  5 active torsions:
REMARK  status: ('A' for Active; 'I' for Inactive)
REMARK    1  A    between atoms: C_5  and  C_30
REMARK    2  A    between atoms: C_6  and  N_18
REMARK    3  A    between atoms: C_7  and  C_12
REMARK    4  A    between atoms: N_18  and  C_20
REMARK    5  A    between atoms: C_20  and  C_24
REMARK                            x       y       z     vdW  Elec       q    Type
REMARK                         _______ _______ _______ _____ _____    ______ ____
ROOT
ATOM      1  N   UNL     1      34.641 -24.069 -13.097  0.00  0.00    -0.152 N 
ATOM      2  N   UNL     1      36.116 -23.654 -14.954  0.00  0.00    -0.389 NA
ATOM      3  N   UNL     1      34.677 -24.596 -11.840  0.00  0.00    -0.174 NA
ATOM      4  C   UNL     1      35.901 -24.123 -13.696  0.00  0.00    +0.189 C 
ATOM      5  C   UNL     1      36.747 -24.703 -12.780  0.00  0.00    +0.112 C 
ATOM      6  C   UNL     1      33.533 -23.533 -13.773  0.00  0.00    +0.126 C 
ATOM      7  C   UNL     1      35.093 -23.143 -15.577  0.00  0.00    +0.140 C 
ATOM      8  C   UNL     1      33.707 -23.059 -15.018  0.00  0.00    +0.064 C 
ATOM      9  C   UNL     1      35.943 -24.969 -11.666  0.00  0.00    +0.100 C 
ENDROOT
BRANCH   7  12
ATOM     10  F   UNL     1      33.105 -23.335 -17.572  0.00  0.00    -0.204 F 
ATOM     11  F   UNL     1      37.469 -21.865 -16.404  0.00  0.00    -0.204 F 
ATOM     12  C   UNL     1      35.282 -22.613 -16.953  0.00  0.00    +0.085 C 
ATOM     13  C   UNL     1      34.262 -22.737 -17.895  0.00  0.00    +0.145 C 
ATOM     14  C   UNL     1      36.480 -21.990 -17.302  0.00  0.00    +0.145 C 
ATOM     15  C   UNL     1      34.439 -22.240 -19.187  0.00  0.00    +0.030 C 
ATOM     16  C   UNL     1      36.658 -21.493 -18.592  0.00  0.00    +0.030 C 
ATOM     17  C   UNL     1      35.637 -21.618 -19.535  0.00  0.00    +0.005 C 
ENDBRANCH   7  12
BRANCH   6  18
ATOM     18  N   UNL     1      32.334 -23.535 -13.118  0.00  0.00    -0.316 N 
ATOM     19  H   UNL     1      32.153 -22.813 -12.474  0.00  0.00    +0.148 HD
BRANCH  18  20
ATOM     20  C   UNL     1      31.322 -24.538 -13.323  0.00  0.00    +0.114 C 
BRANCH  20  24
ATOM     21  N   UNL     1      28.840 -24.603 -16.179  0.00  0.00    -0.181 NA
ATOM     22  N   UNL     1      29.117 -22.322 -15.456  0.00  0.00    -0.204 NA
ATOM     23  N   UNL     1      27.664 -22.858 -17.217  0.00  0.00    -0.303 N 
ATOM     24  C   UNL     1      30.339 -24.087 -14.368  0.00  0.00    +0.020 C 
ATOM     25  C   UNL     1      29.725 -24.973 -15.230  0.00  0.00    +0.106 C 
ATOM     26  C   UNL     1      29.994 -22.760 -14.529  0.00  0.00    +0.163 C 
ATOM     27  C   UNL     1      28.586 -23.282 -16.235  0.00  0.00    +0.084 C 
ATOM     28  H   UNL     1      27.243 -23.518 -17.816  0.00  0.00    +0.154 HD
ATOM     29  H   UNL     1      27.440 -21.903 -17.304  0.00  0.00    +0.154 HD
ENDBRANCH  20  24
ENDBRANCH  18  20
ENDBRANCH   6  18
BRANCH   5  30
ATOM     30  C   UNL     1      38.184 -24.982 -12.935  0.00  0.00    +0.015 C 
ATOM     31  C   UNL     1      38.469 -26.165 -13.869  0.00  0.00    +0.001 C 
ENDBRANCH   5  30
TORSDOF 5
ENDMDL
MODEL 6
REMARK VINA RESULT:     -10.4      2.703      6.677
REMARK  Name = 44629554
REMARK  5 active torsions:
REMARK  status: ('A' for Active; 'I' for Inactive)
REMARK    1  A    between atoms: C_5  and  C_30
REMARK    2  A    between atoms: C_6  and  N_18
REMARK    3  A    between atoms: C_7  and  C_12
REMARK    4  A    between atoms: N_18  and  C_20
REMARK    5  A    between atoms: C_20  and  C_24
REMARK                            x       y       z     vdW  Elec       q    Type
REMARK                         _______ _______ _______ _____ _____    ______ ____
ROOT
ATOM      1  N   UNL     1      35.769 -22.443 -17.086  0.00  0.00    -0.152 N 
ATOM      2  N   UNL     1      33.384 -22.780 -17.046  0.00  0.00    -0.389 NA
ATOM      3  N   UNL     1      36.733 -21.944 -17.910  0.00  0.00    -0.174 NA
ATOM      4  C   UNL     1      34.508 -22.347 -17.678  0.00  0.00    +0.189 C 
ATOM      5  C   UNL     1      34.697 -21.770 -18.912  0.00  0.00    +0.112 C 
ATOM      6  C   UNL     1      35.934 -23.001 -15.808  0.00  0.00    +0.126 C 
ATOM      7  C   UNL     1      33.535 -23.284 -15.855  0.00  0.00    +0.140 C 
ATOM      8  C   UNL     1      34.847 -23.439 -15.152  0.00  0.00    +0.064 C 
ATOM      9  C   UNL     1      36.076 -21.545 -18.997  0.00  0.00    +0.100 C 
ENDROOT
BRANCH   7  12
ATOM     10  F   UNL     1      30.912 -22.516 -16.559  0.00  0.00    -0.204 F 
ATOM     11  F   UNL     1      33.693 -25.040 -13.651  0.00  0.00    -0.204 F 
ATOM     12  C   UNL     1      32.333 -23.766 -15.124  0.00  0.00    +0.085 C 
ATOM     13  C   UNL     1      31.063 -23.351 -15.521  0.00  0.00    +0.145 C 
ATOM     14  C   UNL     1      32.476 -24.634 -14.042  0.00  0.00    +0.145 C 
ATOM     15  C   UNL     1      29.934 -23.803 -14.836  0.00  0.00    +0.030 C 
ATOM     16  C   UNL     1      31.349 -25.087 -13.356  0.00  0.00    +0.030 C 
ATOM     17  C   UNL     1      30.078 -24.671 -13.753  0.00  0.00    +0.005 C 
ENDBRANCH   7  12
BRANCH   6  18
ATOM     18  N   UNL     1      37.205 -23.070 -15.310  0.00  0.00    -0.316 N 
ATOM     19  H   UNL     1      37.797 -22.294 -15.432  0.00  0.00    +0.148 HD
BRANCH  18  20
ATOM     20  C   UNL     1      37.720 -24.221 -14.616  0.00  0.00    +0.114 C 
BRANCH  20  24
ATOM     21  N   UNL     1      36.825 -23.090 -11.117  0.00  0.00    -0.181 NA
ATOM     22  N   UNL     1      36.300 -25.432 -11.323  0.00  0.00    -0.204 NA
ATOM     23  N   UNL     1      35.913 -24.284  -9.315  0.00  0.00    -0.303 N 
ATOM     24  C   UNL     1      37.234 -24.238 -13.193  0.00  0.00    +0.020 C 
ATOM     25  C   UNL     1      37.252 -23.111 -12.397  0.00  0.00    +0.106 C 
ATOM     26  C   UNL     1      36.743 -25.382 -12.597  0.00  0.00    +0.163 C 
ATOM     27  C   UNL     1      36.368 -24.268 -10.651  0.00  0.00    +0.084 C 
ATOM     28  H   UNL     1      35.939 -23.461  -8.775  0.00  0.00    +0.154 HD
ATOM     29  H   UNL     1      35.568 -25.119  -8.922  0.00  0.00    +0.154 HD
ENDBRANCH  20  24
ENDBRANCH  18  20
ENDBRANCH   6  18
BRANCH   5  30
ATOM     30  C   UNL     1      33.674 -21.454 -19.923  0.00  0.00    +0.015 C 
ATOM     31  C   UNL     1      33.899 -20.096 -20.600  0.00  0.00    +0.001 C 
ENDBRANCH   5  30
TORSDOF 5
ENDMDL
MODEL 7
REMARK VINA RESULT:     -10.2      8.502     12.390
REMARK  Name = 44629554
REMARK  5 active torsions:
REMARK  status: ('A' for Active; 'I' for Inactive)
REMARK    1  A    between atoms: C_5  and  C_30
REMARK    2  A    between atoms: C_6  and  N_18
REMARK    3  A    between atoms: C_7  and  C_12
REMARK    4  A    between atoms: N_18  and  C_20
REMARK    5  A    between atoms: C_20  and  C_24
REMARK                            x       y       z     vdW  Elec       q    Type
REMARK                         _______ _______ _______ _____ _____    ______ ____
ROOT
ATOM      1  N   UNL     1      34.454 -15.845 -23.213  0.00  0.00    -0.152 N 
ATOM      2  N   UNL     1      33.107 -13.853 -23.345  0.00  0.00    -0.389 NA
ATOM      3  N   UNL     1      34.984 -16.796 -24.033  0.00  0.00    -0.174 NA
ATOM      4  C   UNL     1      33.730 -14.903 -23.945  0.00  0.00    +0.189 C 
ATOM      5  C   UNL     1      33.811 -15.283 -25.264  0.00  0.00    +0.112 C 
ATOM      6  C   UNL     1      34.568 -15.754 -21.816  0.00  0.00    +0.126 C 
ATOM      7  C   UNL     1      33.224 -13.760 -22.051  0.00  0.00    +0.140 C 
ATOM      8  C   UNL     1      33.967 -14.730 -21.187  0.00  0.00    +0.064 C 
ATOM      9  C   UNL     1      34.591 -16.445 -25.256  0.00  0.00    +0.100 C 
ENDROOT
BRANCH   7  12
ATOM     10  F   UNL     1      32.067 -14.012 -19.489  0.00  0.00    -0.204 F 
ATOM     11  F   UNL     1      33.028 -11.180 -23.180  0.00  0.00    -0.204 F 
ATOM     12  C   UNL     1      32.564 -12.625 -21.352  0.00  0.00    +0.085 C 
ATOM     13  C   UNL     1      32.012 -12.812 -20.086  0.00  0.00    +0.145 C 
ATOM     14  C   UNL     1      32.500 -11.373 -21.963  0.00  0.00    +0.145 C 
ATOM     15  C   UNL     1      31.393 -11.747 -19.429  0.00  0.00    +0.030 C 
ATOM     16  C   UNL     1      31.882 -10.308 -21.307  0.00  0.00    +0.030 C 
ATOM     17  C   UNL     1      31.329 -10.495 -20.040  0.00  0.00    +0.005 C 
ENDBRANCH   7  12
BRANCH   6  18
ATOM     18  N   UNL     1      35.283 -16.728 -21.177  0.00  0.00    -0.316 N 
ATOM     19  H   UNL     1      35.441 -16.632 -20.211  0.00  0.00    +0.148 HD
BRANCH  18  20
ATOM     20  C   UNL     1      35.816 -17.885 -21.846  0.00  0.00    +0.114 C 
BRANCH  20  24
ATOM     21  N   UNL     1      34.168 -20.796 -20.076  0.00  0.00    -0.181 NA
ATOM     22  N   UNL     1      36.528 -20.845 -19.598  0.00  0.00    -0.204 NA
ATOM     23  N   UNL     1      35.086 -22.468 -18.710  0.00  0.00    -0.303 N 
ATOM     24  C   UNL     1      35.620 -19.115 -21.005  0.00  0.00    +0.020 C 
ATOM     25  C   UNL     1      34.380 -19.692 -20.825  0.00  0.00    +0.106 C 
ATOM     26  C   UNL     1      36.669 -19.740 -20.361  0.00  0.00    +0.163 C 
ATOM     27  C   UNL     1      35.269 -21.312 -19.501  0.00  0.00    +0.084 C 
ATOM     28  H   UNL     1      34.186 -22.853 -18.603  0.00  0.00    +0.154 HD
ATOM     29  H   UNL     1      35.857 -22.888 -18.265  0.00  0.00    +0.154 HD
ENDBRANCH  20  24
ENDBRANCH  18  20
ENDBRANCH   6  18
BRANCH   5  30
ATOM     30  C   UNL     1      33.213 -14.615 -26.431  0.00  0.00    +0.015 C 
ATOM     31  C   UNL     1      33.722 -13.182 -26.629  0.00  0.00    +0.001 C 
ENDBRANCH   5  30
TORSDOF 5
ENDMDL
MODEL 8
REMARK VINA RESULT:     -10.0     12.065     15.890
REMARK  Name = 44629554
REMARK  5 active torsions:
REMARK  status: ('A' for Active; 'I' for Inactive)
REMARK    1  A    between atoms: C_5  and  C_30
REMARK    2  A    between atoms: C_6  and  N_18
REMARK    3  A    between atoms: C_7  and  C_12
REMARK    4  A    between atoms: N_18  and  C_20
REMARK    5  A    between atoms: C_20  and  C_24
REMARK                            x       y       z     vdW  Elec       q    Type
REMARK                         _______ _______ _______ _____ _____    ______ ____
ROOT
ATOM      1  N   UNL     1      32.924 -12.119 -22.183  0.00  0.00    -0.152 N 
ATOM      2  N   UNL     1      32.370  -9.791 -21.918  0.00  0.00    -0.389 NA
ATOM      3  N   UNL     1      32.664 -13.322 -21.596  0.00  0.00    -0.174 NA
ATOM      4  C   UNL     1      32.264 -11.086 -21.516  0.00  0.00    +0.189 C 
ATOM      5  C   UNL     1      31.572 -11.667 -20.479  0.00  0.00    +0.112 C 
ATOM      6  C   UNL     1      33.736 -11.866 -23.300  0.00  0.00    +0.126 C 
ATOM      7  C   UNL     1      33.111  -9.556 -22.963  0.00  0.00    +0.140 C 
ATOM      8  C   UNL     1      33.864 -10.598 -23.728  0.00  0.00    +0.064 C 
ATOM      9  C   UNL     1      31.854 -13.034 -20.580  0.00  0.00    +0.100 C 
ENDROOT
BRANCH   7  12
ATOM     10  F   UNL     1      30.892  -7.877 -23.432  0.00  0.00    -0.204 F 
ATOM     11  F   UNL     1      35.617  -8.364 -23.475  0.00  0.00    -0.204 F 
ATOM     12  C   UNL     1      33.251  -8.156 -23.441  0.00  0.00    +0.085 C 
ATOM     13  C   UNL     1      32.115  -7.375 -23.654  0.00  0.00    +0.145 C 
ATOM     14  C   UNL     1      34.518  -7.622 -23.676  0.00  0.00    +0.145 C 
ATOM     15  C   UNL     1      32.246  -6.060 -24.103  0.00  0.00    +0.030 C 
ATOM     16  C   UNL     1      34.649  -6.308 -24.125  0.00  0.00    +0.030 C 
ATOM     17  C   UNL     1      33.513  -5.527 -24.338  0.00  0.00    +0.005 C 
ENDBRANCH   7  12
BRANCH   6  18
ATOM     18  N   UNL     1      34.358 -12.934 -23.883  0.00  0.00    -0.316 N 
ATOM     19  H   UNL     1      35.341 -12.958 -23.886  0.00  0.00    +0.148 HD
BRANCH  18  20
ATOM     20  C   UNL     1      33.646 -14.026 -24.494  0.00  0.00    +0.114 C 
BRANCH  20  24
ATOM     21  N   UNL     1      34.905 -17.594 -24.558  0.00  0.00    -0.181 NA
ATOM     22  N   UNL     1      35.134 -16.740 -22.317  0.00  0.00    -0.204 NA
ATOM     23  N   UNL     1      35.790 -18.929 -22.843  0.00  0.00    -0.303 N 
ATOM     24  C   UNL     1      34.222 -15.342 -24.052  0.00  0.00    +0.020 C 
ATOM     25  C   UNL     1      34.392 -16.400 -24.921  0.00  0.00    +0.106 C 
ATOM     26  C   UNL     1      34.614 -15.572 -22.748  0.00  0.00    +0.163 C 
ATOM     27  C   UNL     1      35.250 -17.693 -23.260  0.00  0.00    +0.084 C 
ATOM     28  H   UNL     1      35.898 -19.663 -23.491  0.00  0.00    +0.154 HD
ATOM     29  H   UNL     1      36.060 -19.058 -21.905  0.00  0.00    +0.154 HD
ENDBRANCH  20  24
ENDBRANCH  18  20
ENDBRANCH   6  18
BRANCH   5  30
ATOM     30  C   UNL     1      30.719 -11.000 -19.482  0.00  0.00    +0.015 C 
ATOM     31  C   UNL     1      31.516 -10.162 -18.474  0.00  0.00    +0.001 C 
ENDBRANCH   5  30
TORSDOF 5
ENDMDL
MODEL 9
REMARK VINA RESULT:     -10.0     12.069     15.922
REMARK  Name = 44629554
REMARK  5 active torsions:
REMARK  status: ('A' for Active; 'I' for Inactive)
REMARK    1  A    between atoms: C_5  and  C_30
REMARK    2  A    between atoms: C_6  and  N_18
REMARK    3  A    between atoms: C_7  and  C_12
REMARK    4  A    between atoms: N_18  and  C_20
REMARK    5  A    between atoms: C_20  and  C_24
REMARK                            x       y       z     vdW  Elec       q    Type
REMARK                         _______ _______ _______ _____ _____    ______ ____
ROOT
ATOM      1  N   UNL     1      32.923 -12.114 -22.186  0.00  0.00    -0.152 N 
ATOM      2  N   UNL     1      32.377  -9.783 -21.924  0.00  0.00    -0.389 NA
ATOM      3  N   UNL     1      32.658 -13.315 -21.599  0.00  0.00    -0.174 NA
ATOM      4  C   UNL     1      32.266 -11.077 -21.521  0.00  0.00    +0.189 C 
ATOM      5  C   UNL     1      31.570 -11.654 -20.485  0.00  0.00    +0.112 C 
ATOM      6  C   UNL     1      33.738 -11.865 -23.302  0.00  0.00    +0.126 C 
ATOM      7  C   UNL     1      33.121  -9.552 -22.968  0.00  0.00    +0.140 C 
ATOM      8  C   UNL     1      33.872 -10.598 -23.731  0.00  0.00    +0.064 C 
ATOM      9  C   UNL     1      31.847 -13.023 -20.584  0.00  0.00    +0.100 C 
ENDROOT
BRANCH   7  12
ATOM     10  F   UNL     1      35.632  -8.369 -23.475  0.00  0.00    -0.204 F 
ATOM     11  F   UNL     1      30.909  -7.866 -23.446  0.00  0.00    -0.204 F 
ATOM     12  C   UNL     1      33.267  -8.153 -23.448  0.00  0.00    +0.085 C 
ATOM     13  C   UNL     1      34.536  -7.625 -23.682  0.00  0.00    +0.145 C 
ATOM     14  C   UNL     1      32.134  -7.369 -23.668  0.00  0.00    +0.145 C 
ATOM     15  C   UNL     1      34.674  -6.312 -24.134  0.00  0.00    +0.030 C 
ATOM     16  C   UNL     1      32.271  -6.056 -24.119  0.00  0.00    +0.030 C 
ATOM     17  C   UNL     1      33.541  -5.528 -24.351  0.00  0.00    +0.005 C 
ENDBRANCH   7  12
BRANCH   6  18
ATOM     18  N   UNL     1      34.357 -12.936 -23.883  0.00  0.00    -0.316 N 
ATOM     19  H   UNL     1      35.340 -12.962 -23.886  0.00  0.00    +0.148 HD
BRANCH  18  20
ATOM     20  C   UNL     1      33.642 -14.028 -24.490  0.00  0.00    +0.114 C 
BRANCH  20  24
ATOM     21  N   UNL     1      35.133 -16.741 -22.314  0.00  0.00    -0.181 NA
ATOM     22  N   UNL     1      34.904 -17.595 -24.554  0.00  0.00    -0.204 NA
ATOM     23  N   UNL     1      35.791 -18.930 -22.842  0.00  0.00    -0.303 N 
ATOM     24  C   UNL     1      34.218 -15.344 -24.047  0.00  0.00    +0.020 C 
ATOM     25  C   UNL     1      34.612 -15.573 -22.745  0.00  0.00    +0.106 C 
ATOM     26  C   UNL     1      34.390 -16.401 -24.918  0.00  0.00    +0.163 C 
ATOM     27  C   UNL     1      35.249 -17.694 -23.257  0.00  0.00    +0.084 C 
ATOM     28  H   UNL     1      36.061 -19.060 -21.904  0.00  0.00    +0.154 HD
ATOM     29  H   UNL     1      35.899 -19.664 -23.490  0.00  0.00    +0.154 HD
ENDBRANCH  20  24
ENDBRANCH  18  20
ENDBRANCH   6  18
BRANCH   5  30
ATOM     30  C   UNL     1      30.717 -10.983 -19.490  0.00  0.00    +0.015 C 
ATOM     31  C   UNL     1      31.516 -10.151 -18.479  0.00  0.00    +0.001 C 
ENDBRANCH   5  30
TORSDOF 5
ENDMDL
