MODEL 1
REMARK VINA RESULT:     -11.9      0.000      0.000
REMARK  Name = 10267580
REMARK  2 active torsions:
REMARK  status: ('A' for Active; 'I' for Inactive)
REMARK    1  A    between atoms: N_1  and  C_21
REMARK    2  A    between atoms: C_7  and  C_14
REMARK                            x       y       z     vdW  Elec       q    Type
REMARK                         _______ _______ _______ _____ _____    ______ ____
ROOT
ATOM      1  N   UNL     1      35.903 -23.562 -16.190  0.00  0.00    -0.290 N 
ATOM      2  N   UNL     1      33.552 -23.482 -16.131  0.00  0.00    -0.327 NA
ATOM      3  N   UNL     1      32.321 -22.269 -17.810  0.00  0.00    -0.342 NA
ATOM      4  C   UNL     1      34.716 -22.326 -17.906  0.00  0.00    +0.143 C 
ATOM      5  C   UNL     1      34.685 -23.111 -16.757  0.00  0.00    +0.184 C 
ATOM      6  C   UNL     1      33.471 -21.917 -18.411  0.00  0.00    +0.133 C 
ATOM      7  C   UNL     1      32.423 -23.032 -16.704  0.00  0.00    +0.165 C 
ATOM      8  C   UNL     1      35.913 -21.951 -18.542  0.00  0.00    -0.011 C 
ATOM      9  C   UNL     1      33.463 -21.130 -19.559  0.00  0.00    +0.029 C 
ATOM     10  C   UNL     1      35.874 -21.163 -19.688  0.00  0.00    -0.004 C 
ATOM     11  C   UNL     1      34.648 -20.752 -20.197  0.00  0.00    +0.002 C 
ATOM     12  H   UNL     1      36.674 -23.602 -16.801  0.00  0.00    +0.154 HD
ENDROOT
BRANCH   7  14
ATOM     13  N   UNL     1      30.076 -22.836 -16.590  0.00  0.00    -0.398 NA
ATOM     14  C   UNL     1      31.187 -23.406 -16.066  0.00  0.00    +0.197 C 
ATOM     15  C   UNL     1      31.171 -24.288 -14.995  0.00  0.00    +0.098 C 
ATOM     16  C   UNL     1      28.899 -23.166 -16.012  0.00  0.00    +0.110 C 
ATOM     17  C   UNL     1      29.941 -24.603 -14.427  0.00  0.00    -0.016 C 
ATOM     18  C   UNL     1      28.779 -24.036 -14.940  0.00  0.00    +0.023 C 
ATOM     19  C   UNL     1      27.674 -22.540 -16.587  0.00  0.00    +0.066 C 
ENDBRANCH   7  14
BRANCH   1  21
ATOM     20  N   UNL     1      36.642 -24.746 -12.224  0.00  0.00    -0.242 NA
ATOM     21  C   UNL     1      36.146 -23.951 -14.886  0.00  0.00    +0.053 C 
ATOM     22  C   UNL     1      36.431 -25.289 -14.570  0.00  0.00    +0.035 C 
ATOM     23  C   UNL     1      36.115 -23.022 -13.834  0.00  0.00    +0.035 C 
ATOM     24  C   UNL     1      36.667 -25.629 -13.248  0.00  0.00    +0.100 C 
ATOM     25  C   UNL     1      36.365 -23.463 -12.544  0.00  0.00    +0.100 C 
ENDBRANCH   1  21
TORSDOF 2
ENDMDL
MODEL 2
REMARK VINA RESULT:     -11.4      1.495      6.785
REMARK  Name = 10267580
REMARK  2 active torsions:
REMARK  status: ('A' for Active; 'I' for Inactive)
REMARK    1  A    between atoms: N_1  and  C_21
REMARK    2  A    between atoms: C_7  and  C_14
REMARK                            x       y       z     vdW  Elec       q    Type
REMARK                         _______ _______ _______ _____ _____    ______ ____
ROOT
ATOM      1  N   UNL     1      32.727 -22.348 -18.214  0.00  0.00    -0.290 N 
ATOM      2  N   UNL     1      34.250 -23.189 -16.631  0.00  0.00    -0.327 NA
ATOM      3  N   UNL     1      33.481 -24.012 -14.501  0.00  0.00    -0.342 NA
ATOM      4  C   UNL     1      31.895 -23.163 -16.087  0.00  0.00    +0.143 C 
ATOM      5  C   UNL     1      32.968 -22.917 -16.939  0.00  0.00    +0.184 C 
ATOM      6  C   UNL     1      32.211 -23.729 -14.841  0.00  0.00    +0.133 C 
ATOM      7  C   UNL     1      34.431 -23.728 -15.414  0.00  0.00    +0.165 C 
ATOM      8  C   UNL     1      30.564 -22.869 -16.432  0.00  0.00    -0.011 C 
ATOM      9  C   UNL     1      31.163 -23.989 -13.961  0.00  0.00    +0.029 C 
ATOM     10  C   UNL     1      29.537 -23.139 -15.532  0.00  0.00    -0.004 C 
ATOM     11  C   UNL     1      29.837 -23.699 -14.296  0.00  0.00    +0.002 C 
ATOM     12  H   UNL     1      31.819 -22.471 -18.576  0.00  0.00    +0.154 HD
ENDROOT
BRANCH   7  14
ATOM     13  N   UNL     1      35.933 -25.113 -14.237  0.00  0.00    -0.398 NA
ATOM     14  C   UNL     1      35.788 -24.035 -15.043  0.00  0.00    +0.197 C 
ATOM     15  C   UNL     1      36.848 -23.261 -15.495  0.00  0.00    +0.098 C 
ATOM     16  C   UNL     1      37.196 -25.426 -13.870  0.00  0.00    +0.110 C 
ATOM     17  C   UNL     1      38.132 -23.616 -15.096  0.00  0.00    -0.016 C 
ATOM     18  C   UNL     1      38.318 -24.717 -14.269  0.00  0.00    +0.023 C 
ATOM     19  C   UNL     1      37.358 -26.614 -12.982  0.00  0.00    +0.066 C 
ENDBRANCH   7  14
BRANCH   1  21
ATOM     20  N   UNL     1      35.392 -20.188 -20.644  0.00  0.00    -0.242 NA
ATOM     21  C   UNL     1      33.604 -21.638 -19.013  0.00  0.00    +0.053 C 
ATOM     22  C   UNL     1      33.140 -20.648 -19.896  0.00  0.00    +0.035 C 
ATOM     23  C   UNL     1      34.985 -21.881 -18.969  0.00  0.00    +0.035 C 
ATOM     24  C   UNL     1      34.059 -19.965 -20.675  0.00  0.00    +0.100 C 
ATOM     25  C   UNL     1      35.822 -21.143 -19.790  0.00  0.00    +0.100 C 
ENDBRANCH   1  21
TORSDOF 2
ENDMDL
MODEL 3
REMARK VINA RESULT:     -11.1      1.420      5.140
REMARK  Name = 10267580
REMARK  2 active torsions:
REMARK  status: ('A' for Active; 'I' for Inactive)
REMARK    1  A    between atoms: N_1  and  C_21
REMARK    2  A    between atoms: C_7  and  C_14
REMARK                            x       y       z     vdW  Elec       q    Type
REMARK                         _______ _______ _______ _____ _____    ______ ____
ROOT
ATOM      1  N   UNL     1      34.709 -24.717 -13.611  0.00  0.00    -0.290 N 
ATOM      2  N   UNL     1      34.447 -23.553 -15.638  0.00  0.00    -0.327 NA
ATOM      3  N   UNL     1      32.254 -23.145 -16.547  0.00  0.00    -0.342 NA
ATOM      4  C   UNL     1      32.477 -24.336 -14.478  0.00  0.00    +0.143 C 
ATOM      5  C   UNL     1      33.855 -24.185 -14.608  0.00  0.00    +0.184 C 
ATOM      6  C   UNL     1      31.694 -23.782 -15.504  0.00  0.00    +0.133 C 
ATOM      7  C   UNL     1      33.599 -23.065 -16.558  0.00  0.00    +0.165 C 
ATOM      8  C   UNL     1      31.881 -25.001 -13.392  0.00  0.00    -0.011 C 
ATOM      9  C   UNL     1      30.311 -23.914 -15.408  0.00  0.00    +0.029 C 
ATOM     10  C   UNL     1      30.496 -25.118 -13.323  0.00  0.00    -0.004 C 
ATOM     11  C   UNL     1      29.711 -24.574 -14.332  0.00  0.00    +0.002 C 
ATOM     12  H   UNL     1      34.303 -24.855 -12.724  0.00  0.00    +0.154 HD
ENDROOT
BRANCH   7  14
ATOM     13  N   UNL     1      33.311 -21.784 -18.517  0.00  0.00    -0.398 NA
ATOM     14  C   UNL     1      34.191 -22.380 -17.678  0.00  0.00    +0.197 C 
ATOM     15  C   UNL     1      35.567 -22.353 -17.857  0.00  0.00    +0.098 C 
ATOM     16  C   UNL     1      33.837 -21.134 -19.580  0.00  0.00    +0.110 C 
ATOM     17  C   UNL     1      36.070 -21.674 -18.962  0.00  0.00    -0.016 C 
ATOM     18  C   UNL     1      35.195 -21.051 -19.844  0.00  0.00    +0.023 C 
ATOM     19  C   UNL     1      32.869 -20.476 -20.505  0.00  0.00    +0.066 C 
ENDBRANCH   7  14
BRANCH   1  21
ATOM     20  N   UNL     1      38.760 -25.789 -13.961  0.00  0.00    -0.242 NA
ATOM     21  C   UNL     1      36.041 -25.070 -13.726  0.00  0.00    +0.053 C 
ATOM     22  C   UNL     1      37.040 -24.362 -13.038  0.00  0.00    +0.035 C 
ATOM     23  C   UNL     1      36.439 -26.147 -14.534  0.00  0.00    +0.035 C 
ATOM     24  C   UNL     1      38.360 -24.755 -13.187  0.00  0.00    +0.100 C 
ATOM     25  C   UNL     1      37.787 -26.460 -14.617  0.00  0.00    +0.100 C 
ENDBRANCH   1  21
TORSDOF 2
ENDMDL
MODEL 4
REMARK VINA RESULT:     -10.6      1.490      6.559
REMARK  Name = 10267580
REMARK  2 active torsions:
REMARK  status: ('A' for Active; 'I' for Inactive)
REMARK    1  A    between atoms: N_1  and  C_21
REMARK    2  A    between atoms: C_7  and  C_14
REMARK                            x       y       z     vdW  Elec       q    Type
REMARK                         _______ _______ _______ _____ _____    ______ ____
ROOT
ATOM      1  N   UNL     1      32.624 -22.398 -18.147  0.00  0.00    -0.290 N 
ATOM      2  N   UNL     1      33.952 -23.164 -16.363  0.00  0.00    -0.327 NA
ATOM      3  N   UNL     1      32.944 -23.854 -14.287  0.00  0.00    -0.342 NA
ATOM      4  C   UNL     1      31.554 -23.079 -16.081  0.00  0.00    +0.143 C 
ATOM      5  C   UNL     1      32.716 -22.895 -16.824  0.00  0.00    +0.184 C 
ATOM      6  C   UNL     1      31.723 -23.575 -14.777  0.00  0.00    +0.133 C 
ATOM      7  C   UNL     1      33.992 -23.633 -15.105  0.00  0.00    +0.165 C 
ATOM      8  C   UNL     1      30.273 -22.790 -16.584  0.00  0.00    -0.011 C 
ATOM      9  C   UNL     1      30.583 -23.772 -14.003  0.00  0.00    +0.029 C 
ATOM     10  C   UNL     1      29.150 -22.996 -15.787  0.00  0.00    -0.004 C 
ATOM     11  C   UNL     1      29.306 -23.487 -14.496  0.00  0.00    +0.002 C 
ATOM     12  H   UNL     1      31.758 -22.532 -18.598  0.00  0.00    +0.154 HD
ENDROOT
BRANCH   7  14
ATOM     13  N   UNL     1      36.336 -23.521 -15.334  0.00  0.00    -0.398 NA
ATOM     14  C   UNL     1      35.295 -23.934 -14.573  0.00  0.00    +0.197 C 
ATOM     15  C   UNL     1      35.440 -24.600 -13.363  0.00  0.00    +0.098 C 
ATOM     16  C   UNL     1      37.574 -23.791 -14.861  0.00  0.00    +0.110 C 
ATOM     17  C   UNL     1      36.729 -24.858 -12.910  0.00  0.00    -0.016 C 
ATOM     18  C   UNL     1      37.821 -24.449 -13.667  0.00  0.00    +0.023 C 
ATOM     19  C   UNL     1      38.722 -23.336 -15.699  0.00  0.00    +0.066 C 
ENDBRANCH   7  14
BRANCH   1  21
ATOM     20  N   UNL     1      35.577 -20.415 -20.389  0.00  0.00    -0.242 NA
ATOM     21  C   UNL     1      33.594 -21.746 -18.885  0.00  0.00    +0.053 C 
ATOM     22  C   UNL     1      34.954 -22.066 -18.736  0.00  0.00    +0.035 C 
ATOM     23  C   UNL     1      33.254 -20.743 -19.806  0.00  0.00    +0.035 C 
ATOM     24  C   UNL     1      35.888 -21.383 -19.498  0.00  0.00    +0.100 C 
ATOM     25  C   UNL     1      34.265 -20.119 -20.520  0.00  0.00    +0.100 C 
ENDBRANCH   1  21
TORSDOF 2
ENDMDL
MODEL 5
REMARK VINA RESULT:     -10.4      1.677      6.519
REMARK  Name = 10267580
REMARK  2 active torsions:
REMARK  status: ('A' for Active; 'I' for Inactive)
REMARK    1  A    between atoms: N_1  and  C_21
REMARK    2  A    between atoms: C_7  and  C_14
REMARK                            x       y       z     vdW  Elec       q    Type
REMARK                         _______ _______ _______ _____ _____    ______ ____
ROOT
ATOM      1  N   UNL     1      32.941 -24.652 -13.472  0.00  0.00    -0.290 N 
ATOM      2  N   UNL     1      34.262 -23.583 -15.099  0.00  0.00    -0.327 NA
ATOM      3  N   UNL     1      36.552 -22.997 -14.632  0.00  0.00    -0.342 NA
ATOM      4  C   UNL     1      35.239 -24.085 -12.946  0.00  0.00    +0.143 C 
ATOM      5  C   UNL     1      34.184 -24.089 -13.853  0.00  0.00    +0.184 C 
ATOM      6  C   UNL     1      36.440 -23.511 -13.394  0.00  0.00    +0.133 C 
ATOM      7  C   UNL     1      35.458 -23.061 -15.416  0.00  0.00    +0.165 C 
ATOM      8  C   UNL     1      35.132 -24.619 -11.649  0.00  0.00    -0.011 C 
ATOM      9  C   UNL     1      37.518 -23.489 -12.513  0.00  0.00    +0.029 C 
ATOM     10  C   UNL     1      36.227 -24.583 -10.790  0.00  0.00    -0.004 C 
ATOM     11  C   UNL     1      37.420 -24.017 -11.223  0.00  0.00    +0.002 C 
ATOM     12  H   UNL     1      32.973 -25.311 -12.740  0.00  0.00    +0.154 HD
ENDROOT
BRANCH   7  14
ATOM     13  N   UNL     1      34.440 -22.473 -17.460  0.00  0.00    -0.398 NA
ATOM     14  C   UNL     1      35.586 -22.509 -16.740  0.00  0.00    +0.197 C 
ATOM     15  C   UNL     1      36.810 -22.055 -17.213  0.00  0.00    +0.098 C 
ATOM     16  C   UNL     1      34.528 -21.960 -18.709  0.00  0.00    +0.110 C 
ATOM     17  C   UNL     1      36.860 -21.535 -18.502  0.00  0.00    -0.016 C 
ATOM     18  C   UNL     1      35.702 -21.483 -19.270  0.00  0.00    +0.023 C 
ATOM     19  C   UNL     1      33.267 -21.920 -19.504  0.00  0.00    +0.066 C 
ENDBRANCH   7  14
BRANCH   1  21
ATOM     20  N   UNL     1      29.131 -23.858 -15.063  0.00  0.00    -0.242 NA
ATOM     21  C   UNL     1      31.688 -24.392 -13.995  0.00  0.00    +0.053 C 
ATOM     22  C   UNL     1      31.282 -23.078 -14.283  0.00  0.00    +0.035 C 
ATOM     23  C   UNL     1      30.780 -25.430 -14.256  0.00  0.00    +0.035 C 
ATOM     24  C   UNL     1      30.016 -22.869 -14.805  0.00  0.00    +0.100 C 
ATOM     25  C   UNL     1      29.536 -25.116 -14.780  0.00  0.00    +0.100 C 
ENDBRANCH   1  21
TORSDOF 2
ENDMDL
MODEL 6
REMARK VINA RESULT:     -10.0      1.271      5.782
REMARK  Name = 10267580
REMARK  2 active torsions:
REMARK  status: ('A' for Active; 'I' for Inactive)
REMARK    1  A    between atoms: N_1  and  C_21
REMARK    2  A    between atoms: C_7  and  C_14
REMARK                            x       y       z     vdW  Elec       q    Type
REMARK                         _______ _______ _______ _____ _____    ______ ____
ROOT
ATOM      1  N   UNL     1      31.724 -22.718 -16.663  0.00  0.00    -0.290 N 
ATOM      2  N   UNL     1      33.610 -23.323 -15.393  0.00  0.00    -0.327 NA
ATOM      3  N   UNL     1      35.834 -22.960 -16.245  0.00  0.00    -0.342 NA
ATOM      4  C   UNL     1      33.939 -22.329 -17.571  0.00  0.00    +0.143 C 
ATOM      5  C   UNL     1      33.133 -22.794 -16.536  0.00  0.00    +0.184 C 
ATOM      6  C   UNL     1      35.325 -22.436 -17.374  0.00  0.00    +0.133 C 
ATOM      7  C   UNL     1      34.950 -23.374 -15.316  0.00  0.00    +0.165 C 
ATOM      8  C   UNL     1      33.417 -21.781 -18.757  0.00  0.00    -0.011 C 
ATOM      9  C   UNL     1      36.163 -21.982 -18.389  0.00  0.00    +0.029 C 
ATOM     10  C   UNL     1      34.279 -21.335 -19.755  0.00  0.00    -0.004 C 
ATOM     11  C   UNL     1      35.652 -21.436 -19.570  0.00  0.00    +0.002 C 
ATOM     12  H   UNL     1      31.385 -22.044 -17.296  0.00  0.00    +0.154 HD
ENDROOT
BRANCH   7  14
ATOM     13  N   UNL     1      36.809 -24.281 -14.184  0.00  0.00    -0.398 NA
ATOM     14  C   UNL     1      35.502 -23.934 -14.110  0.00  0.00    +0.197 C 
ATOM     15  C   UNL     1      34.725 -24.091 -12.970  0.00  0.00    +0.098 C 
ATOM     16  C   UNL     1      37.356 -24.811 -13.067  0.00  0.00    +0.110 C 
ATOM     17  C   UNL     1      35.325 -24.640 -11.841  0.00  0.00    -0.016 C 
ATOM     18  C   UNL     1      36.664 -25.008 -11.882  0.00  0.00    +0.023 C 
ATOM     19  C   UNL     1      38.796 -25.194 -13.146  0.00  0.00    +0.066 C 
ENDBRANCH   7  14
BRANCH   1  21
ATOM     20  N   UNL     1      28.806 -25.012 -14.687  0.00  0.00    -0.242 NA
ATOM     21  C   UNL     1      30.765 -23.473 -16.014  0.00  0.00    +0.053 C 
ATOM     22  C   UNL     1      29.403 -23.143 -16.100  0.00  0.00    +0.035 C 
ATOM     23  C   UNL     1      31.121 -24.593 -15.246  0.00  0.00    +0.035 C 
ATOM     24  C   UNL     1      28.480 -23.930 -15.430  0.00  0.00    +0.100 C 
ATOM     25  C   UNL     1      30.121 -25.315 -14.614  0.00  0.00    +0.100 C 
ENDBRANCH   1  21
TORSDOF 2
ENDMDL
MODEL 7
REMARK VINA RESULT:      -9.9      1.665      5.562
REMARK  Name = 10267580
REMARK  2 active torsions:
REMARK  status: ('A' for Active; 'I' for Inactive)
REMARK    1  A    between atoms: N_1  and  C_21
REMARK    2  A    between atoms: C_7  and  C_14
REMARK                            x       y       z     vdW  Elec       q    Type
REMARK                         _______ _______ _______ _____ _____    ______ ____
ROOT
ATOM      1  N   UNL     1      34.735 -24.907 -13.062  0.00  0.00    -0.290 N 
ATOM      2  N   UNL     1      34.827 -23.736 -15.101  0.00  0.00    -0.327 NA
ATOM      3  N   UNL     1      32.811 -23.218 -16.313  0.00  0.00    -0.342 NA
ATOM      4  C   UNL     1      32.673 -24.413 -14.239  0.00  0.00    +0.143 C 
ATOM      5  C   UNL     1      34.061 -24.334 -14.169  0.00  0.00    +0.184 C 
ATOM      6  C   UNL     1      32.075 -23.823 -15.364  0.00  0.00    +0.133 C 
ATOM      7  C   UNL     1      34.146 -23.208 -16.130  0.00  0.00    +0.165 C 
ATOM      8  C   UNL     1      31.894 -25.044 -13.253  0.00  0.00    -0.011 C 
ATOM      9  C   UNL     1      30.688 -23.883 -15.469  0.00  0.00    +0.029 C 
ATOM     10  C   UNL     1      30.509 -25.089 -13.384  0.00  0.00    -0.004 C 
ATOM     11  C   UNL     1      29.906 -24.508 -14.494  0.00  0.00    +0.002 C 
ATOM     12  H   UNL     1      34.199 -25.021 -12.243  0.00  0.00    +0.154 HD
ENDROOT
BRANCH   7  14
ATOM     13  N   UNL     1      36.075 -21.985 -16.717  0.00  0.00    -0.398 NA
ATOM     14  C   UNL     1      34.927 -22.558 -17.151  0.00  0.00    +0.197 C 
ATOM     15  C   UNL     1      34.506 -22.538 -18.473  0.00  0.00    +0.098 C 
ATOM     16  C   UNL     1      36.831 -21.366 -17.652  0.00  0.00    +0.110 C 
ATOM     17  C   UNL     1      35.311 -21.891 -19.405  0.00  0.00    -0.016 C 
ATOM     18  C   UNL     1      36.496 -21.292 -18.995  0.00  0.00    +0.023 C 
ATOM     19  C   UNL     1      38.096 -20.734 -17.177  0.00  0.00    +0.066 C 
ENDBRANCH   7  14
BRANCH   1  21
ATOM     20  N   UNL     1      38.732 -26.191 -12.834  0.00  0.00    -0.242 NA
ATOM     21  C   UNL     1      36.049 -25.329 -12.986  0.00  0.00    +0.053 C 
ATOM     22  C   UNL     1      36.592 -26.184 -13.960  0.00  0.00    +0.035 C 
ATOM     23  C   UNL     1      36.884 -24.918 -11.936  0.00  0.00    +0.035 C 
ATOM     24  C   UNL     1      37.915 -26.578 -13.839  0.00  0.00    +0.100 C 
ATOM     25  C   UNL     1      38.194 -25.369 -11.906  0.00  0.00    +0.100 C 
ENDBRANCH   1  21
TORSDOF 2
ENDMDL
MODEL 8
REMARK VINA RESULT:      -9.7      1.564      5.170
REMARK  Name = 10267580
REMARK  2 active torsions:
REMARK  status: ('A' for Active; 'I' for Inactive)
REMARK    1  A    between atoms: N_1  and  C_21
REMARK    2  A    between atoms: C_7  and  C_14
REMARK                            x       y       z     vdW  Elec       q    Type
REMARK                         _______ _______ _______ _____ _____    ______ ____
ROOT
ATOM      1  N   UNL     1      36.570 -22.622 -16.533  0.00  0.00    -0.290 N 
ATOM      2  N   UNL     1      34.669 -23.440 -15.413  0.00  0.00    -0.327 NA
ATOM      3  N   UNL     1      34.890 -25.026 -13.613  0.00  0.00    -0.342 NA
ATOM      4  C   UNL     1      36.853 -24.217 -14.729  0.00  0.00    +0.143 C 
ATOM      5  C   UNL     1      36.011 -23.451 -15.529  0.00  0.00    +0.184 C 
ATOM      6  C   UNL     1      36.227 -25.014 -13.755  0.00  0.00    +0.133 C 
ATOM      7  C   UNL     1      34.184 -24.240 -14.449  0.00  0.00    +0.165 C 
ATOM      8  C   UNL     1      38.252 -24.213 -14.869  0.00  0.00    -0.011 C 
ATOM      9  C   UNL     1      37.038 -25.795 -12.936  0.00  0.00    +0.029 C 
ATOM     10  C   UNL     1      39.037 -25.004 -14.036  0.00  0.00    -0.004 C 
ATOM     11  C   UNL     1      38.429 -25.796 -13.069  0.00  0.00    +0.002 C 
ATOM     12  H   UNL     1      37.509 -22.357 -16.399  0.00  0.00    +0.154 HD
ENDROOT
BRANCH   7  14
ATOM     13  N   UNL     1      32.062 -23.577 -15.234  0.00  0.00    -0.398 NA
ATOM     14  C   UNL     1      32.753 -24.258 -14.290  0.00  0.00    +0.197 C 
ATOM     15  C   UNL     1      32.157 -24.935 -13.235  0.00  0.00    +0.098 C 
ATOM     16  C   UNL     1      30.715 -23.575 -15.112  0.00  0.00    +0.110 C 
ATOM     17  C   UNL     1      30.769 -24.910 -13.144  0.00  0.00    -0.016 C 
ATOM     18  C   UNL     1      30.028 -24.220 -14.096  0.00  0.00    +0.023 C 
ATOM     19  C   UNL     1      29.952 -22.825 -16.151  0.00  0.00    +0.066 C 
ENDBRANCH   7  14
BRANCH   1  21
ATOM     20  N   UNL     1      34.730 -21.155 -20.017  0.00  0.00    -0.242 NA
ATOM     21  C   UNL     1      35.964 -22.140 -17.678  0.00  0.00    +0.053 C 
ATOM     22  C   UNL     1      36.697 -21.421 -18.637  0.00  0.00    +0.035 C 
ATOM     23  C   UNL     1      34.598 -22.353 -17.922  0.00  0.00    +0.035 C 
ATOM     24  C   UNL     1      36.044 -20.958 -19.768  0.00  0.00    +0.100 C 
ATOM     25  C   UNL     1      34.039 -21.849 -19.085  0.00  0.00    +0.100 C 
ENDBRANCH   1  21
TORSDOF 2
ENDMDL
MODEL 9
REMARK VINA RESULT:      -9.7      1.643      5.111
REMARK  Name = 10267580
REMARK  2 active torsions:
REMARK  status: ('A' for Active; 'I' for Inactive)
REMARK    1  A    between atoms: N_1  and  C_21
REMARK    2  A    between atoms: C_7  and  C_14
REMARK                            x       y       z     vdW  Elec       q    Type
REMARK                         _______ _______ _______ _____ _____    ______ ____
ROOT
ATOM      1  N   UNL     1      36.032 -22.394 -15.512  0.00  0.00    -0.290 N 
ATOM      2  N   UNL     1      33.963 -23.308 -14.865  0.00  0.00    -0.327 NA
ATOM      3  N   UNL     1      33.732 -24.460 -12.762  0.00  0.00    -0.342 NA
ATOM      4  C   UNL     1      35.858 -23.542 -13.384  0.00  0.00    +0.143 C 
ATOM      5  C   UNL     1      35.258 -23.103 -14.560  0.00  0.00    +0.184 C 
ATOM      6  C   UNL     1      35.029 -24.238 -12.487  0.00  0.00    +0.133 C 
ATOM      7  C   UNL     1      33.269 -23.984 -13.934  0.00  0.00    +0.165 C 
ATOM      8  C   UNL     1      37.214 -23.316 -13.087  0.00  0.00    -0.011 C 
ATOM      9  C   UNL     1      35.595 -24.694 -11.300  0.00  0.00    +0.029 C 
ATOM     10  C   UNL     1      37.752 -23.784 -11.892  0.00  0.00    -0.004 C 
ATOM     11  C   UNL     1      36.941 -24.473 -10.998  0.00  0.00    +0.002 C 
ATOM     12  H   UNL     1      36.837 -21.946 -15.165  0.00  0.00    +0.154 HD
ENDROOT
BRANCH   7  14
ATOM     13  N   UNL     1      31.302 -23.336 -15.062  0.00  0.00    -0.398 NA
ATOM     14  C   UNL     1      31.879 -24.226 -14.220  0.00  0.00    +0.197 C 
ATOM     15  C   UNL     1      31.207 -25.302 -13.657  0.00  0.00    +0.098 C 
ATOM     16  C   UNL     1      29.996 -23.536 -15.350  0.00  0.00    +0.110 C 
ATOM     17  C   UNL     1      29.864 -25.475 -13.977  0.00  0.00    -0.016 C 
ATOM     18  C   UNL     1      29.241 -24.579 -14.838  0.00  0.00    +0.023 C 
ATOM     19  C   UNL     1      29.359 -22.557 -16.278  0.00  0.00    +0.066 C 
ENDBRANCH   7  14
BRANCH   1  21
ATOM     20  N   UNL     1      35.324 -21.966 -19.634  0.00  0.00    -0.242 NA
ATOM     21  C   UNL     1      35.800 -22.253 -16.867  0.00  0.00    +0.053 C 
ATOM     22  C   UNL     1      34.583 -22.658 -17.440  0.00  0.00    +0.035 C 
ATOM     23  C   UNL     1      36.771 -21.701 -17.716  0.00  0.00    +0.035 C 
ATOM     24  C   UNL     1      34.399 -22.496 -18.803  0.00  0.00    +0.100 C 
ATOM     25  C   UNL     1      36.490 -21.581 -19.068  0.00  0.00    +0.100 C 
ENDBRANCH   1  21
TORSDOF 2
ENDMDL
