MODEL 1
REMARK VINA RESULT:     -12.7      0.000      0.000
REMARK  Name = 5326869
REMARK  6 active torsions:
REMARK  status: ('A' for Active; 'I' for Inactive)
REMARK    1  A    between atoms: N_2  and  C_11
REMARK    2  A    between atoms: C_3  and  C_25
REMARK    3  A    between atoms: N_5  and  C_14
REMARK    4  A    between atoms: C_14  and  C_15
REMARK    5  A    between atoms: C_15  and  C_17
REMARK    6  A    between atoms: C_23  and  N_30
REMARK                            x       y       z     vdW  Elec       q    Type
REMARK                         _______ _______ _______ _____ _____    ______ ____
ROOT
ATOM      1  O   UNL     1      32.733 -21.185 -20.202  0.00  0.00    -0.270 OA
ATOM      2  N   UNL     1      34.876 -20.224 -20.089  0.00  0.00    -0.280 N 
ATOM      3  C   UNL     1      33.830 -21.056 -19.669  0.00  0.00    +0.250 C 
ATOM      4  H   UNL     1      35.692 -20.246 -19.539  0.00  0.00    +0.155 HD
ENDROOT
BRANCH   2  11
ATOM      5  N   UNL     1      34.703 -15.801 -22.235  0.00  0.00    -0.286 N 
ATOM      6  C   UNL     1      34.806 -17.169 -22.127  0.00  0.00    +0.053 C 
ATOM      7  C   UNL     1      34.964 -17.673 -23.420  0.00  0.00    +0.015 C 
ATOM      8  C   UNL     1      34.790 -15.423 -23.549  0.00  0.00    +0.065 C 
ATOM      9  C   UNL     1      34.772 -17.991 -20.994  0.00  0.00    +0.029 C 
ATOM     10  C   UNL     1      34.952 -16.560 -24.306  0.00  0.00    +0.017 C 
ATOM     11  C   UNL     1      34.903 -19.369 -21.192  0.00  0.00    +0.052 C 
ATOM     12  C   UNL     1      35.095 -19.065 -23.593  0.00  0.00    +0.003 C 
ATOM     13  C   UNL     1      35.062 -19.899 -22.470  0.00  0.00    +0.015 C 
BRANCH   5  14
ATOM     14  C   UNL     1      34.529 -14.880 -21.132  0.00  0.00    +0.100 C 
BRANCH  14  15
ATOM     15  C   UNL     1      33.070 -14.719 -20.695  0.00  0.00    +0.048 C 
BRANCH  15  17
ATOM     16  N   UNL     1      31.551 -10.751 -21.258  0.00  0.00    -0.242 NA
ATOM     17  C   UNL     1      32.537 -13.322 -20.893  0.00  0.00    -0.017 C 
ATOM     18  C   UNL     1      32.735 -12.682 -22.102  0.00  0.00    +0.016 C 
ATOM     19  C   UNL     1      31.854 -12.701 -19.863  0.00  0.00    +0.016 C 
ATOM     20  C   UNL     1      32.225 -11.400 -22.234  0.00  0.00    +0.099 C 
ATOM     21  C   UNL     1      31.383 -11.420 -20.095  0.00  0.00    +0.099 C 
ENDBRANCH  15  17
ENDBRANCH  14  15
ENDBRANCH   5  14
ENDBRANCH   2  11
BRANCH   3  25
ATOM     22  F   UNL     1      36.908 -22.962 -16.464  0.00  0.00    -0.204 F 
ATOM     23  C   UNL     1      33.273 -23.065 -16.556  0.00  0.00    +0.050 C 
ATOM     24  C   UNL     1      33.024 -22.335 -17.719  0.00  0.00    +0.019 C 
ATOM     25  C   UNL     1      34.093 -21.835 -18.432  0.00  0.00    +0.057 C 
ATOM     26  C   UNL     1      34.584 -23.276 -16.132  0.00  0.00    +0.044 C 
ATOM     27  C   UNL     1      35.400 -22.030 -18.034  0.00  0.00    +0.034 C 
ATOM     28  C   UNL     1      35.648 -22.760 -16.871  0.00  0.00    +0.142 C 
BRANCH  23  30
ATOM     29  O   UNL     1      30.027 -24.370 -14.222  0.00  0.00    -0.350 OA
ATOM     30  N   UNL     1      32.206 -23.583 -15.815  0.00  0.00    -0.303 N 
ATOM     31  C   UNL     1      32.419 -24.017 -14.429  0.00  0.00    +0.123 C 
ATOM     32  C   UNL     1      30.851 -23.101 -16.118  0.00  0.00    +0.123 C 
ATOM     33  C   UNL     1      31.305 -24.970 -14.011  0.00  0.00    +0.164 C 
ATOM     34  C   UNL     1      29.821 -24.103 -15.610  0.00  0.00    +0.164 C 
ENDBRANCH  23  30
ENDBRANCH   3  25
TORSDOF 6
ENDMDL
MODEL 2
REMARK VINA RESULT:     -12.2      2.339      3.260
REMARK  Name = 5326869
REMARK  6 active torsions:
REMARK  status: ('A' for Active; 'I' for Inactive)
REMARK    1  A    between atoms: N_2  and  C_11
REMARK    2  A    between atoms: C_3  and  C_25
REMARK    3  A    between atoms: N_5  and  C_14
REMARK    4  A    between atoms: C_14  and  C_15
REMARK    5  A    between atoms: C_15  and  C_17
REMARK    6  A    between atoms: C_23  and  N_30
REMARK                            x       y       z     vdW  Elec       q    Type
REMARK                         _______ _______ _______ _____ _____    ______ ____
ROOT
ATOM      1  O   UNL     1      36.727 -21.085 -19.901  0.00  0.00    -0.270 OA
ATOM      2  N   UNL     1      34.579 -20.161 -20.150  0.00  0.00    -0.280 N 
ATOM      3  C   UNL     1      35.554 -20.978 -19.561  0.00  0.00    +0.250 C 
ATOM      4  H   UNL     1      33.682 -20.200 -19.746  0.00  0.00    +0.155 HD
ENDROOT
BRANCH   2  11
ATOM      5  N   UNL     1      34.759 -15.717 -22.252  0.00  0.00    -0.286 N 
ATOM      6  C   UNL     1      34.794 -17.090 -22.153  0.00  0.00    +0.053 C 
ATOM      7  C   UNL     1      35.022 -17.589 -23.436  0.00  0.00    +0.015 C 
ATOM      8  C   UNL     1      34.958 -15.333 -23.552  0.00  0.00    +0.065 C 
ATOM      9  C   UNL     1      34.640 -17.918 -21.035  0.00  0.00    +0.029 C 
ATOM     10  C   UNL     1      35.124 -16.470 -24.308  0.00  0.00    +0.017 C 
ATOM     11  C   UNL     1      34.724 -19.299 -21.237  0.00  0.00    +0.052 C 
ATOM     12  C   UNL     1      35.104 -18.985 -23.615  0.00  0.00    +0.003 C 
ATOM     13  C   UNL     1      34.953 -19.826 -22.507  0.00  0.00    +0.015 C 
BRANCH   5  14
ATOM     14  C   UNL     1      34.547 -14.798 -21.155  0.00  0.00    +0.100 C 
BRANCH  14  15
ATOM     15  C   UNL     1      33.075 -14.657 -20.752  0.00  0.00    +0.048 C 
BRANCH  15  17
ATOM     16  N   UNL     1      31.581 -10.660 -21.150  0.00  0.00    -0.242 NA
ATOM     17  C   UNL     1      32.548 -13.251 -20.893  0.00  0.00    -0.017 C 
ATOM     18  C   UNL     1      31.941 -12.640 -19.812  0.00  0.00    +0.016 C 
ATOM     19  C   UNL     1      32.682 -12.591 -22.100  0.00  0.00    +0.016 C 
ATOM     20  C   UNL     1      31.474 -11.348 -19.992  0.00  0.00    +0.099 C 
ATOM     21  C   UNL     1      32.183 -11.301 -22.177  0.00  0.00    +0.099 C 
ENDBRANCH  15  17
ENDBRANCH  14  15
ENDBRANCH   5  14
ENDBRANCH   2  11
BRANCH   3  25
ATOM     22  F   UNL     1      32.030 -23.341 -17.241  0.00  0.00    -0.204 F 
ATOM     23  C   UNL     1      35.548 -22.973 -16.390  0.00  0.00    +0.050 C 
ATOM     24  C   UNL     1      35.990 -22.190 -17.456  0.00  0.00    +0.019 C 
ATOM     25  C   UNL     1      35.084 -21.812 -18.424  0.00  0.00    +0.057 C 
ATOM     26  C   UNL     1      34.211 -23.362 -16.317  0.00  0.00    +0.044 C 
ATOM     27  C   UNL     1      33.756 -22.183 -18.376  0.00  0.00    +0.034 C 
ATOM     28  C   UNL     1      33.314 -22.967 -17.310  0.00  0.00    +0.142 C 
BRANCH  23  30
ATOM     29  O   UNL     1      38.249 -23.904 -13.305  0.00  0.00    -0.350 OA
ATOM     30  N   UNL     1      36.447 -23.370 -15.394  0.00  0.00    -0.303 N 
ATOM     31  C   UNL     1      37.889 -23.185 -15.594  0.00  0.00    +0.123 C 
ATOM     32  C   UNL     1      35.997 -23.324 -13.996  0.00  0.00    +0.123 C 
ATOM     33  C   UNL     1      38.661 -24.107 -14.656  0.00  0.00    +0.164 C 
ATOM     34  C   UNL     1      36.870 -24.239 -13.144  0.00  0.00    +0.164 C 
ENDBRANCH  23  30
ENDBRANCH   3  25
TORSDOF 6
ENDMDL
MODEL 3
REMARK VINA RESULT:     -11.6      4.991     12.092
REMARK  Name = 5326869
REMARK  6 active torsions:
REMARK  status: ('A' for Active; 'I' for Inactive)
REMARK    1  A    between atoms: N_2  and  C_11
REMARK    2  A    between atoms: C_3  and  C_25
REMARK    3  A    between atoms: N_5  and  C_14
REMARK    4  A    between atoms: C_14  and  C_15
REMARK    5  A    between atoms: C_15  and  C_17
REMARK    6  A    between atoms: C_23  and  N_30
REMARK                            x       y       z     vdW  Elec       q    Type
REMARK                         _______ _______ _______ _____ _____    ______ ____
ROOT
ATOM      1  O   UNL     1      31.636 -12.851 -21.719  0.00  0.00    -0.270 OA
ATOM      2  N   UNL     1      33.515 -12.442 -23.072  0.00  0.00    -0.280 N 
ATOM      3  C   UNL     1      32.491 -12.102 -22.176  0.00  0.00    +0.250 C 
ATOM      4  H   UNL     1      34.117 -11.709 -23.337  0.00  0.00    +0.155 HD
ENDROOT
BRANCH   2  11
ATOM      5  N   UNL     1      35.012 -17.124 -22.882  0.00  0.00    -0.286 N 
ATOM      6  C   UNL     1      34.532 -15.953 -23.425  0.00  0.00    +0.053 C 
ATOM      7  C   UNL     1      34.316 -16.188 -24.783  0.00  0.00    +0.015 C 
ATOM      8  C   UNL     1      35.106 -18.088 -23.850  0.00  0.00    +0.065 C 
ATOM      9  C   UNL     1      34.277 -14.716 -22.821  0.00  0.00    +0.029 C 
ATOM     10  C   UNL     1      34.682 -17.539 -25.038  0.00  0.00    +0.017 C 
ATOM     11  C   UNL     1      33.785 -13.690 -23.633  0.00  0.00    +0.052 C 
ATOM     12  C   UNL     1      33.819 -15.138 -25.582  0.00  0.00    +0.003 C 
ATOM     13  C   UNL     1      33.558 -13.896 -24.992  0.00  0.00    +0.015 C 
BRANCH   5  14
ATOM     14  C   UNL     1      35.369 -17.324 -21.494  0.00  0.00    +0.100 C 
BRANCH  14  15
ATOM     15  C   UNL     1      36.239 -18.563 -21.260  0.00  0.00    +0.048 C 
BRANCH  15  17
ATOM     16  N   UNL     1      34.144 -21.776 -19.349  0.00  0.00    -0.242 NA
ATOM     17  C   UNL     1      35.502 -19.695 -20.588  0.00  0.00    -0.017 C 
ATOM     18  C   UNL     1      36.215 -20.661 -19.903  0.00  0.00    +0.016 C 
ATOM     19  C   UNL     1      34.123 -19.749 -20.665  0.00  0.00    +0.016 C 
ATOM     20  C   UNL     1      35.491 -21.678 -19.303  0.00  0.00    +0.099 C 
ATOM     21  C   UNL     1      33.493 -20.807 -20.031  0.00  0.00    +0.099 C 
ENDBRANCH  15  17
ENDBRANCH  14  15
ENDBRANCH   5  14
ENDBRANCH   2  11
BRANCH   3  25
ATOM     22  F   UNL     1      31.512  -8.669 -18.915  0.00  0.00    -0.204 F 
ATOM     23  C   UNL     1      32.818  -8.371 -22.298  0.00  0.00    +0.050 C 
ATOM     24  C   UNL     1      32.860  -9.713 -22.676  0.00  0.00    +0.019 C 
ATOM     25  C   UNL     1      32.445 -10.672 -21.775  0.00  0.00    +0.057 C 
ATOM     26  C   UNL     1      32.363  -8.019 -21.028  0.00  0.00    +0.044 C 
ATOM     27  C   UNL     1      31.991 -10.349 -20.513  0.00  0.00    +0.034 C 
ATOM     28  C   UNL     1      31.949  -9.007 -20.135  0.00  0.00    +0.142 C 
BRANCH  23  30
ATOM     29  O   UNL     1      34.148  -5.241 -24.770  0.00  0.00    -0.350 OA
ATOM     30  N   UNL     1      33.233  -7.380 -23.193  0.00  0.00    -0.303 N 
ATOM     31  C   UNL     1      32.346  -6.251 -23.498  0.00  0.00    +0.123 C 
ATOM     32  C   UNL     1      34.670  -7.090 -23.290  0.00  0.00    +0.123 C 
ATOM     33  C   UNL     1      32.769  -5.605 -24.813  0.00  0.00    +0.164 C 
ATOM     34  C   UNL     1      34.969  -6.399 -24.615  0.00  0.00    +0.164 C 
ENDBRANCH  23  30
ENDBRANCH   3  25
TORSDOF 6
ENDMDL
MODEL 4
REMARK VINA RESULT:     -11.3      8.847     15.473
REMARK  Name = 5326869
REMARK  6 active torsions:
REMARK  status: ('A' for Active; 'I' for Inactive)
REMARK    1  A    between atoms: N_2  and  C_11
REMARK    2  A    between atoms: C_3  and  C_25
REMARK    3  A    between atoms: N_5  and  C_14
REMARK    4  A    between atoms: C_14  and  C_15
REMARK    5  A    between atoms: C_15  and  C_17
REMARK    6  A    between atoms: C_23  and  N_30
REMARK                            x       y       z     vdW  Elec       q    Type
REMARK                         _______ _______ _______ _____ _____    ______ ____
ROOT
ATOM      1  O   UNL     1      34.830  -7.240 -22.937  0.00  0.00    -0.270 OA
ATOM      2  N   UNL     1      32.486  -7.388 -22.853  0.00  0.00    -0.280 N 
ATOM      3  C   UNL     1      33.715  -6.897 -23.313  0.00  0.00    +0.250 C 
ATOM      4  H   UNL     1      31.683  -6.997 -23.269  0.00  0.00    +0.155 HD
ENDROOT
BRANCH   2  11
ATOM      5  N   UNL     1      32.088 -12.031 -21.276  0.00  0.00    -0.286 N 
ATOM      6  C   UNL     1      32.091 -10.655 -21.223  0.00  0.00    +0.053 C 
ATOM      7  C   UNL     1      31.803 -10.294 -19.905  0.00  0.00    +0.015 C 
ATOM      8  C   UNL     1      31.810 -12.550 -20.040  0.00  0.00    +0.065 C 
ATOM      9  C   UNL     1      32.322  -9.712 -22.231  0.00  0.00    +0.029 C 
ATOM     10  C   UNL     1      31.629 -11.500 -19.170  0.00  0.00    +0.017 C 
ATOM     11  C   UNL     1      32.259  -8.361 -21.879  0.00  0.00    +0.052 C 
ATOM     12  C   UNL     1      31.745  -8.925 -19.574  0.00  0.00    +0.003 C 
ATOM     13  C   UNL     1      31.975  -7.972 -20.572  0.00  0.00    +0.015 C 
BRANCH   5  14
ATOM     14  C   UNL     1      32.341 -12.827 -22.457  0.00  0.00    +0.100 C 
BRANCH  14  15
ATOM     15  C   UNL     1      33.432 -13.884 -22.259  0.00  0.00    +0.048 C 
BRANCH  15  17
ATOM     16  N   UNL     1      34.396 -16.027 -25.842  0.00  0.00    -0.242 NA
ATOM     17  C   UNL     1      33.772 -14.638 -23.520  0.00  0.00    -0.017 C 
ATOM     18  C   UNL     1      34.611 -15.735 -23.453  0.00  0.00    +0.016 C 
ATOM     19  C   UNL     1      33.240 -14.222 -24.726  0.00  0.00    +0.016 C 
ATOM     20  C   UNL     1      34.892 -16.393 -24.639  0.00  0.00    +0.099 C 
ATOM     21  C   UNL     1      33.582 -14.949 -25.855  0.00  0.00    +0.099 C 
ENDBRANCH  15  17
ENDBRANCH  14  15
ENDBRANCH   5  14
ENDBRANCH   2  11
BRANCH   3  25
ATOM     22  F   UNL     1      31.547  -3.001 -25.183  0.00  0.00    -0.204 F 
ATOM     23  C   UNL     1      34.497  -4.802 -26.319  0.00  0.00    +0.050 C 
ATOM     24  C   UNL     1      34.576  -5.802 -25.350  0.00  0.00    +0.019 C 
ATOM     25  C   UNL     1      33.630  -5.834 -24.347  0.00  0.00    +0.057 C 
ATOM     26  C   UNL     1      33.474  -3.856 -26.263  0.00  0.00    +0.044 C 
ATOM     27  C   UNL     1      32.609  -4.910 -24.269  0.00  0.00    +0.034 C 
ATOM     28  C   UNL     1      32.529  -3.910 -25.238  0.00  0.00    +0.142 C 
BRANCH  23  30
ATOM     29  O   UNL     1      37.367  -4.368 -29.362  0.00  0.00    -0.350 OA
ATOM     30  N   UNL     1      35.444  -4.748 -27.347  0.00  0.00    -0.303 N 
ATOM     31  C   UNL     1      35.032  -4.371 -28.704  0.00  0.00    +0.123 C 
ATOM     32  C   UNL     1      36.829  -4.406 -26.996  0.00  0.00    +0.123 C 
ATOM     33  C   UNL     1      36.071  -4.853 -29.710  0.00  0.00    +0.164 C 
ATOM     34  C   UNL     1      37.772  -4.885 -28.094  0.00  0.00    +0.164 C 
ENDBRANCH  23  30
ENDBRANCH   3  25
TORSDOF 6
ENDMDL
MODEL 5
REMARK VINA RESULT:     -11.2      4.508      8.427
REMARK  Name = 5326869
REMARK  6 active torsions:
REMARK  status: ('A' for Active; 'I' for Inactive)
REMARK    1  A    between atoms: N_2  and  C_11
REMARK    2  A    between atoms: C_3  and  C_25
REMARK    3  A    between atoms: N_5  and  C_14
REMARK    4  A    between atoms: C_14  and  C_15
REMARK    5  A    between atoms: C_15  and  C_17
REMARK    6  A    between atoms: C_23  and  N_30
REMARK                            x       y       z     vdW  Elec       q    Type
REMARK                         _______ _______ _______ _____ _____    ______ ____
ROOT
ATOM      1  O   UNL     1      34.589 -14.006 -20.604  0.00  0.00    -0.270 OA
ATOM      2  N   UNL     1      33.311 -13.466 -22.501  0.00  0.00    -0.280 N 
ATOM      3  C   UNL     1      34.135 -14.277 -21.710  0.00  0.00    +0.250 C 
ATOM      4  H   UNL     1      33.038 -13.844 -23.368  0.00  0.00    +0.155 HD
ENDROOT
BRANCH   2  11
ATOM      5  N   UNL     1      33.331  -8.561 -22.886  0.00  0.00    -0.286 N 
ATOM      6  C   UNL     1      32.932  -9.812 -22.473  0.00  0.00    +0.053 C 
ATOM      7  C   UNL     1      31.844  -9.635 -21.617  0.00  0.00    +0.015 C 
ATOM      8  C   UNL     1      32.534  -7.602 -22.321  0.00  0.00    +0.065 C 
ATOM      9  C   UNL     1      33.448 -11.075 -22.789  0.00  0.00    +0.029 C 
ATOM     10  C   UNL     1      31.603  -8.236 -21.531  0.00  0.00    +0.017 C 
ATOM     11  C   UNL     1      32.830 -12.188 -22.212  0.00  0.00    +0.052 C 
ATOM     12  C   UNL     1      31.237 -10.773 -21.048  0.00  0.00    +0.003 C 
ATOM     13  C   UNL     1      31.741 -12.041 -21.355  0.00  0.00    +0.015 C 
BRANCH   5  14
ATOM     14  C   UNL     1      34.430  -8.282 -23.785  0.00  0.00    +0.100 C 
BRANCH  14  15
ATOM     15  C   UNL     1      35.033  -6.887 -23.598  0.00  0.00    +0.048 C 
BRANCH  15  17
ATOM     16  N   UNL     1      34.006  -4.151 -26.733  0.00  0.00    -0.242 NA
ATOM     17  C   UNL     1      34.672  -5.925 -24.702  0.00  0.00    -0.017 C 
ATOM     18  C   UNL     1      33.409  -5.362 -24.729  0.00  0.00    +0.016 C 
ATOM     19  C   UNL     1      35.608  -5.617 -25.671  0.00  0.00    +0.016 C 
ATOM     20  C   UNL     1      33.126  -4.484 -25.762  0.00  0.00    +0.099 C 
ATOM     21  C   UNL     1      35.227  -4.727 -26.662  0.00  0.00    +0.099 C 
ENDBRANCH  15  17
ENDBRANCH  14  15
ENDBRANCH   5  14
ENDBRANCH   2  11
BRANCH   3  25
ATOM     22  F   UNL     1      34.849 -17.095 -25.574  0.00  0.00    -0.204 F 
ATOM     23  C   UNL     1      35.189 -17.857 -22.033  0.00  0.00    +0.050 C 
ATOM     24  C   UNL     1      34.842 -16.629 -21.471  0.00  0.00    +0.019 C 
ATOM     25  C   UNL     1      34.504 -15.586 -22.307  0.00  0.00    +0.057 C 
ATOM     26  C   UNL     1      35.191 -18.015 -23.418  0.00  0.00    +0.044 C 
ATOM     27  C   UNL     1      34.498 -15.716 -23.681  0.00  0.00    +0.034 C 
ATOM     28  C   UNL     1      34.846 -16.944 -24.243  0.00  0.00    +0.142 C 
BRANCH  23  30
ATOM     29  O   UNL     1      36.342 -21.209 -19.770  0.00  0.00    -0.350 OA
ATOM     30  N   UNL     1      35.536 -18.931 -21.207  0.00  0.00    -0.303 N 
ATOM     31  C   UNL     1      34.658 -20.104 -21.123  0.00  0.00    +0.123 C 
ATOM     32  C   UNL     1      36.963 -19.200 -20.981  0.00  0.00    +0.123 C 
ATOM     33  C   UNL     1      34.956 -20.880 -19.844  0.00  0.00    +0.164 C 
ATOM     34  C   UNL     1      37.137 -20.024 -19.710  0.00  0.00    +0.164 C 
ENDBRANCH  23  30
ENDBRANCH   3  25
TORSDOF 6
ENDMDL
MODEL 6
REMARK VINA RESULT:     -11.0      3.271     10.191
REMARK  Name = 5326869
REMARK  6 active torsions:
REMARK  status: ('A' for Active; 'I' for Inactive)
REMARK    1  A    between atoms: N_2  and  C_11
REMARK    2  A    between atoms: C_3  and  C_25
REMARK    3  A    between atoms: N_5  and  C_14
REMARK    4  A    between atoms: C_14  and  C_15
REMARK    5  A    between atoms: C_15  and  C_17
REMARK    6  A    between atoms: C_23  and  N_30
REMARK                            x       y       z     vdW  Elec       q    Type
REMARK                         _______ _______ _______ _____ _____    ______ ____
ROOT
ATOM      1  O   UNL     1      37.148 -18.946 -20.076  0.00  0.00    -0.270 OA
ATOM      2  N   UNL     1      35.609 -20.721 -19.979  0.00  0.00    -0.280 N 
ATOM      3  C   UNL     1      36.224 -19.598 -20.549  0.00  0.00    +0.250 C 
ATOM      4  H   UNL     1      34.877 -21.123 -20.500  0.00  0.00    +0.155 HD
ENDROOT
BRANCH   2  11
ATOM      5  N   UNL     1      34.472 -23.372 -15.994  0.00  0.00    -0.286 N 
ATOM      6  C   UNL     1      35.241 -22.636 -16.866  0.00  0.00    +0.053 C 
ATOM      7  C   UNL     1      36.526 -22.567 -16.324  0.00  0.00    +0.015 C 
ATOM      8  C   UNL     1      35.225 -23.770 -14.921  0.00  0.00    +0.065 C 
ATOM      9  C   UNL     1      34.900 -22.031 -18.082  0.00  0.00    +0.029 C 
ATOM     10  C   UNL     1      36.501 -23.287 -15.097  0.00  0.00    +0.017 C 
ATOM     11  C   UNL     1      35.905 -21.337 -18.762  0.00  0.00    +0.052 C 
ATOM     12  C   UNL     1      37.522 -21.862 -17.028  0.00  0.00    +0.003 C 
ATOM     13  C   UNL     1      37.196 -21.252 -18.245  0.00  0.00    +0.015 C 
BRANCH   5  14
ATOM     14  C   UNL     1      33.071 -23.689 -16.169  0.00  0.00    +0.100 C 
BRANCH  14  15
ATOM     15  C   UNL     1      32.168 -23.091 -15.086  0.00  0.00    +0.048 C 
BRANCH  15  17
ATOM     16  N   UNL     1      28.064 -24.272 -15.442  0.00  0.00    -0.242 NA
ATOM     17  C   UNL     1      30.724 -23.507 -15.212  0.00  0.00    -0.017 C 
ATOM     18  C   UNL     1      30.266 -24.600 -14.500  0.00  0.00    +0.016 C 
ATOM     19  C   UNL     1      29.878 -22.790 -16.036  0.00  0.00    +0.016 C 
ATOM     20  C   UNL     1      28.931 -24.941 -14.649  0.00  0.00    +0.099 C 
ATOM     21  C   UNL     1      28.561 -23.212 -16.117  0.00  0.00    +0.099 C 
ENDBRANCH  15  17
ENDBRANCH  14  15
ENDBRANCH   5  14
ENDBRANCH   2  11
BRANCH   3  25
ATOM     22  F   UNL     1      34.788 -20.572 -25.063  0.00  0.00    -0.204 F 
ATOM     23  C   UNL     1      34.802 -17.420 -23.246  0.00  0.00    +0.050 C 
ATOM     24  C   UNL     1      35.330 -17.832 -22.022  0.00  0.00    +0.019 C 
ATOM     25  C   UNL     1      35.664 -19.159 -21.853  0.00  0.00    +0.057 C 
ATOM     26  C   UNL     1      34.619 -18.345 -24.272  0.00  0.00    +0.044 C 
ATOM     27  C   UNL     1      35.492 -20.094 -22.853  0.00  0.00    +0.034 C 
ATOM     28  C   UNL     1      34.964 -19.683 -24.077  0.00  0.00    +0.142 C 
BRANCH  23  30
ATOM     29  O   UNL     1      34.011 -13.350 -23.949  0.00  0.00    -0.350 OA
ATOM     30  N   UNL     1      34.456 -16.080 -23.442  0.00  0.00    -0.303 N 
ATOM     31  C   UNL     1      34.857 -15.068 -22.458  0.00  0.00    +0.123 C 
ATOM     32  C   UNL     1      34.324 -15.592 -24.822  0.00  0.00    +0.123 C 
ATOM     33  C   UNL     1      33.979 -13.830 -22.605  0.00  0.00    +0.164 C 
ATOM     34  C   UNL     1      33.475 -14.327 -24.843  0.00  0.00    +0.164 C 
ENDBRANCH  23  30
ENDBRANCH   3  25
TORSDOF 6
ENDMDL
MODEL 7
REMARK VINA RESULT:     -10.7      4.202     11.183
REMARK  Name = 5326869
REMARK  6 active torsions:
REMARK  status: ('A' for Active; 'I' for Inactive)
REMARK    1  A    between atoms: N_2  and  C_11
REMARK    2  A    between atoms: C_3  and  C_25
REMARK    3  A    between atoms: N_5  and  C_14
REMARK    4  A    between atoms: C_14  and  C_15
REMARK    5  A    between atoms: C_15  and  C_17
REMARK    6  A    between atoms: C_23  and  N_30
REMARK                            x       y       z     vdW  Elec       q    Type
REMARK                         _______ _______ _______ _____ _____    ______ ____
ROOT
ATOM      1  O   UNL     1      32.063 -14.517 -20.694  0.00  0.00    -0.270 OA
ATOM      2  N   UNL     1      33.426 -13.670 -22.412  0.00  0.00    -0.280 N 
ATOM      3  C   UNL     1      32.572 -13.584 -21.304  0.00  0.00    +0.250 C 
ATOM      4  H   UNL     1      33.743 -12.813 -22.779  0.00  0.00    +0.155 HD
ENDROOT
BRANCH   2  11
ATOM      5  N   UNL     1      34.978 -18.337 -22.519  0.00  0.00    -0.286 N 
ATOM      6  C   UNL     1      34.623 -17.093 -22.991  0.00  0.00    +0.053 C 
ATOM      7  C   UNL     1      34.792 -17.116 -24.377  0.00  0.00    +0.015 C 
ATOM      8  C   UNL     1      35.365 -19.143 -23.557  0.00  0.00    +0.065 C 
ATOM      9  C   UNL     1      34.170 -15.961 -22.303  0.00  0.00    +0.029 C 
ATOM     10  C   UNL     1      35.260 -18.416 -24.720  0.00  0.00    +0.017 C 
ATOM     11  C   UNL     1      33.882 -14.820 -23.057  0.00  0.00    +0.052 C 
ATOM     12  C   UNL     1      34.495 -15.953 -25.115  0.00  0.00    +0.003 C 
ATOM     13  C   UNL     1      34.041 -14.814 -24.441  0.00  0.00    +0.015 C 
BRANCH   5  14
ATOM     14  C   UNL     1      34.951 -18.750 -21.133  0.00  0.00    +0.100 C 
BRANCH  14  15
ATOM     15  C   UNL     1      33.984 -19.905 -20.858  0.00  0.00    +0.048 C 
BRANCH  15  17
ATOM     16  N   UNL     1      35.349 -22.578 -17.799  0.00  0.00    -0.242 NA
ATOM     17  C   UNL     1      34.464 -20.845 -19.780  0.00  0.00    -0.017 C 
ATOM     18  C   UNL     1      33.544 -21.583 -19.060  0.00  0.00    +0.016 C 
ATOM     19  C   UNL     1      35.819 -20.958 -19.529  0.00  0.00    +0.016 C 
ATOM     20  C   UNL     1      34.035 -22.432 -18.082  0.00  0.00    +0.099 C 
ATOM     21  C   UNL     1      36.209 -21.835 -18.531  0.00  0.00    +0.099 C 
ENDBRANCH  15  17
ENDBRANCH  14  15
ENDBRANCH   5  14
ENDBRANCH   2  11
BRANCH   3  25
ATOM     22  F   UNL     1      30.970 -10.514 -17.928  0.00  0.00    -0.204 F 
ATOM     23  C   UNL     1      32.136  -9.862 -21.312  0.00  0.00    +0.050 C 
ATOM     24  C   UNL     1      32.443 -11.157 -21.732  0.00  0.00    +0.019 C 
ATOM     25  C   UNL     1      32.244 -12.205 -20.858  0.00  0.00    +0.057 C 
ATOM     26  C   UNL     1      31.639  -9.646 -20.028  0.00  0.00    +0.044 C 
ATOM     27  C   UNL     1      31.753 -12.017 -19.582  0.00  0.00    +0.034 C 
ATOM     28  C   UNL     1      31.447 -10.723 -19.162  0.00  0.00    +0.142 C 
BRANCH  23  30
ATOM     29  O   UNL     1      32.616  -6.773 -24.125  0.00  0.00    -0.350 OA
ATOM     30  N   UNL     1      32.329  -8.782 -22.180  0.00  0.00    -0.303 N 
ATOM     31  C   UNL     1      33.556  -8.694 -22.978  0.00  0.00    +0.123 C 
ATOM     32  C   UNL     1      31.144  -8.158 -22.783  0.00  0.00    +0.123 C 
ATOM     33  C   UNL     1      33.770  -7.256 -23.437  0.00  0.00    +0.164 C 
ATOM     34  C   UNL     1      31.486  -6.748 -23.252  0.00  0.00    +0.164 C 
ENDBRANCH  23  30
ENDBRANCH   3  25
TORSDOF 6
ENDMDL
MODEL 8
REMARK VINA RESULT:     -10.4      5.772     10.227
REMARK  Name = 5326869
REMARK  6 active torsions:
REMARK  status: ('A' for Active; 'I' for Inactive)
REMARK    1  A    between atoms: N_2  and  C_11
REMARK    2  A    between atoms: C_3  and  C_25
REMARK    3  A    between atoms: N_5  and  C_14
REMARK    4  A    between atoms: C_14  and  C_15
REMARK    5  A    between atoms: C_15  and  C_17
REMARK    6  A    between atoms: C_23  and  N_30
REMARK                            x       y       z     vdW  Elec       q    Type
REMARK                         _______ _______ _______ _____ _____    ______ ____
ROOT
ATOM      1  O   UNL     1      32.045 -13.007 -21.487  0.00  0.00    -0.270 OA
ATOM      2  N   UNL     1      33.046 -11.408 -22.890  0.00  0.00    -0.280 N 
ATOM      3  C   UNL     1      32.723 -12.703 -22.462  0.00  0.00    +0.250 C 
ATOM      4  H   UNL     1      33.605 -11.348 -23.698  0.00  0.00    +0.155 HD
ENDROOT
BRANCH   2  11
ATOM      5  N   UNL     1      32.287  -6.548 -22.956  0.00  0.00    -0.286 N 
ATOM      6  C   UNL     1      32.338  -7.830 -22.458  0.00  0.00    +0.053 C 
ATOM      7  C   UNL     1      31.915  -7.771 -21.128  0.00  0.00    +0.015 C 
ATOM      8  C   UNL     1      31.847  -5.683 -21.989  0.00  0.00    +0.065 C 
ATOM      9  C   UNL     1      32.723  -9.025 -23.077  0.00  0.00    +0.029 C 
ATOM     10  C   UNL     1      31.608  -6.411 -20.847  0.00  0.00    +0.017 C 
ATOM     11  C   UNL     1      32.672 -10.194 -22.312  0.00  0.00    +0.052 C 
ATOM     12  C   UNL     1      31.872  -8.963 -20.378  0.00  0.00    +0.003 C 
ATOM     13  C   UNL     1      32.254 -10.166 -20.983  0.00  0.00    +0.015 C 
BRANCH   5  14
ATOM     14  C   UNL     1      32.641  -6.154 -24.302  0.00  0.00    +0.100 C 
BRANCH  14  15
ATOM     15  C   UNL     1      34.148  -5.970 -24.509  0.00  0.00    +0.048 C 
BRANCH  15  17
ATOM     16  N   UNL     1      35.121  -3.618 -27.956  0.00  0.00    -0.242 NA
ATOM     17  C   UNL     1      34.490  -5.143 -25.723  0.00  0.00    -0.017 C 
ATOM     18  C   UNL     1      33.514  -4.364 -26.313  0.00  0.00    +0.016 C 
ATOM     19  C   UNL     1      35.777  -5.174 -26.227  0.00  0.00    +0.016 C 
ATOM     20  C   UNL     1      33.878  -3.622 -27.425  0.00  0.00    +0.099 C 
ATOM     21  C   UNL     1      36.041  -4.396 -27.342  0.00  0.00    +0.099 C 
ENDBRANCH  15  17
ENDBRANCH  14  15
ENDBRANCH   5  14
ENDBRANCH   2  11
BRANCH   3  25
ATOM     22  F   UNL     1      33.760 -14.669 -26.756  0.00  0.00    -0.204 F 
ATOM     23  C   UNL     1      34.399 -15.920 -23.400  0.00  0.00    +0.050 C 
ATOM     24  C   UNL     1      33.859 -14.887 -22.634  0.00  0.00    +0.019 C 
ATOM     25  C   UNL     1      33.297 -13.804 -23.277  0.00  0.00    +0.057 C 
ATOM     26  C   UNL     1      34.365 -15.846 -24.792  0.00  0.00    +0.044 C 
ATOM     27  C   UNL     1      33.251 -13.707 -24.653  0.00  0.00    +0.034 C 
ATOM     28  C   UNL     1      33.791 -14.740 -25.419  0.00  0.00    +0.142 C 
BRANCH  23  30
ATOM     29  O   UNL     1      35.874 -19.357 -21.478  0.00  0.00    -0.350 OA
ATOM     30  N   UNL     1      34.974 -17.029 -22.772  0.00  0.00    -0.303 N 
ATOM     31  C   UNL     1      35.068 -17.075 -21.308  0.00  0.00    +0.123 C 
ATOM     32  C   UNL     1      34.862 -18.337 -23.433  0.00  0.00    +0.123 C 
ATOM     33  C   UNL     1      36.134 -18.082 -20.892  0.00  0.00    +0.164 C 
ATOM     34  C   UNL     1      35.938 -19.277 -22.903  0.00  0.00    +0.164 C 
ENDBRANCH  23  30
ENDBRANCH   3  25
TORSDOF 6
ENDMDL
MODEL 9
REMARK VINA RESULT:     -10.1      3.486     10.828
REMARK  Name = 5326869
REMARK  6 active torsions:
REMARK  status: ('A' for Active; 'I' for Inactive)
REMARK    1  A    between atoms: N_2  and  C_11
REMARK    2  A    between atoms: C_3  and  C_25
REMARK    3  A    between atoms: N_5  and  C_14
REMARK    4  A    between atoms: C_14  and  C_15
REMARK    5  A    between atoms: C_15  and  C_17
REMARK    6  A    between atoms: C_23  and  N_30
REMARK                            x       y       z     vdW  Elec       q    Type
REMARK                         _______ _______ _______ _____ _____    ______ ____
ROOT
ATOM      1  O   UNL     1      36.453 -20.439 -19.565  0.00  0.00    -0.270 OA
ATOM      2  N   UNL     1      34.184 -21.054 -19.621  0.00  0.00    -0.280 N 
ATOM      3  C   UNL     1      35.342 -20.414 -20.084  0.00  0.00    +0.250 C 
ATOM      4  H   UNL     1      33.374 -20.926 -20.166  0.00  0.00    +0.155 HD
ENDROOT
BRANCH   2  11
ATOM      5  N   UNL     1      35.869 -23.356 -15.613  0.00  0.00    -0.286 N 
ATOM      6  C   UNL     1      34.966 -22.926 -16.560  0.00  0.00    +0.053 C 
ATOM      7  C   UNL     1      33.720 -23.446 -16.205  0.00  0.00    +0.015 C 
ATOM      8  C   UNL     1      35.236 -24.127 -14.674  0.00  0.00    +0.065 C 
ATOM      9  C   UNL     1      35.157 -22.126 -17.692  0.00  0.00    +0.029 C 
ATOM     10  C   UNL     1      33.905 -24.200 -15.013  0.00  0.00    +0.017 C 
ATOM     11  C   UNL     1      34.039 -21.849 -18.484  0.00  0.00    +0.052 C 
ATOM     12  C   UNL     1      32.607 -23.152 -17.018  0.00  0.00    +0.003 C 
ATOM     13  C   UNL     1      32.782 -22.353 -18.153  0.00  0.00    +0.015 C 
BRANCH   5  14
ATOM     14  C   UNL     1      37.282 -23.047 -15.596  0.00  0.00    +0.100 C 
BRANCH  14  15
ATOM     15  C   UNL     1      38.140 -24.142 -14.956  0.00  0.00    +0.048 C 
BRANCH  15  17
ATOM     16  N   UNL     1      37.519 -24.539 -10.734  0.00  0.00    -0.242 NA
ATOM     17  C   UNL     1      37.922 -24.281 -13.470  0.00  0.00    -0.017 C 
ATOM     18  C   UNL     1      37.706 -23.152 -12.704  0.00  0.00    +0.016 C 
ATOM     19  C   UNL     1      37.941 -25.538 -12.894  0.00  0.00    +0.016 C 
ATOM     20  C   UNL     1      37.511 -23.333 -11.344  0.00  0.00    +0.099 C 
ATOM     21  C   UNL     1      37.735 -25.613 -11.526  0.00  0.00    +0.099 C 
ENDBRANCH  15  17
ENDBRANCH  14  15
ENDBRANCH   5  14
ENDBRANCH   2  11
BRANCH   3  25
ATOM     22  F   UNL     1      35.058 -20.095 -24.900  0.00  0.00    -0.204 F 
ATOM     23  C   UNL     1      34.835 -17.490 -22.371  0.00  0.00    +0.050 C 
ATOM     24  C   UNL     1      34.995 -18.246 -21.209  0.00  0.00    +0.019 C 
ATOM     25  C   UNL     1      35.174 -19.609 -21.321  0.00  0.00    +0.057 C 
ATOM     26  C   UNL     1      34.857 -18.115 -23.617  0.00  0.00    +0.044 C 
ATOM     27  C   UNL     1      35.199 -20.251 -22.542  0.00  0.00    +0.034 C 
ATOM     28  C   UNL     1      35.039 -19.495 -23.703  0.00  0.00    +0.142 C 
BRANCH  23  30
ATOM     29  O   UNL     1      34.020 -13.377 -22.057  0.00  0.00    -0.350 OA
ATOM     30  N   UNL     1      34.653 -16.106 -22.285  0.00  0.00    -0.303 N 
ATOM     31  C   UNL     1      34.170 -15.357 -23.451  0.00  0.00    +0.123 C 
ATOM     32  C   UNL     1      34.293 -15.534 -20.980  0.00  0.00    +0.123 C 
ATOM     33  C   UNL     1      34.519 -13.881 -23.295  0.00  0.00    +0.164 C 
ATOM     34  C   UNL     1      34.635 -14.049 -20.957  0.00  0.00    +0.164 C 
ENDBRANCH  23  30
ENDBRANCH   3  25
TORSDOF 6
ENDMDL
