MODEL 1
REMARK VINA RESULT:     -11.8      0.000      0.000
REMARK  Name = 23650961
REMARK  5 active torsions:
REMARK  status: ('A' for Active; 'I' for Inactive)
REMARK    1  A    between atoms: N_1  and  C_23
REMARK    2  A    between atoms: C_5  and  C_12
REMARK    3  A    between atoms: C_23  and  C_24
REMARK    4  A    between atoms: C_24  and  C_25
REMARK    5  A    between atoms: C_25  and  C_27
REMARK                            x       y       z     vdW  Elec       q    Type
REMARK                         _______ _______ _______ _____ _____    ______ ____
ROOT
ATOM      1  N   UNL     1      35.179 -20.609 -20.503  0.00  0.00    -0.268 N 
ATOM      2  N   UNL     1      34.311 -22.010 -18.832  0.00  0.00    -0.342 NA
ATOM      3  N   UNL     1      36.539 -21.110 -18.658  0.00  0.00    -0.170 NA
ATOM      4  C   UNL     1      35.348 -21.263 -19.293  0.00  0.00    +0.144 C 
ATOM      5  C   UNL     1      35.680 -22.546 -16.927  0.00  0.00    +0.061 C 
ATOM      6  C   UNL     1      34.509 -22.633 -17.653  0.00  0.00    +0.123 C 
ATOM      7  C   UNL     1      36.670 -21.762 -17.484  0.00  0.00    +0.113 C 
ATOM      8  C   UNL     1      33.360 -23.451 -17.158  0.00  0.00    +0.067 C 
ATOM      9  H   UNL     1      34.319 -20.713 -20.970  0.00  0.00    +0.159 HD
ENDROOT
BRANCH   5  12
ATOM     10  N   UNL     1      35.343 -22.749 -14.501  0.00  0.00    -0.314 N 
ATOM     11  N   UNL     1      36.577 -24.317 -15.480  0.00  0.00    -0.315 N 
ATOM     12  C   UNL     1      35.882 -23.216 -15.670  0.00  0.00    +0.171 C 
ATOM     13  C   UNL     1      35.715 -23.603 -13.495  0.00  0.00    +0.059 C 
ATOM     14  C   UNL     1      36.484 -24.574 -14.131  0.00  0.00    +0.055 C 
ATOM     15  C   UNL     1      37.033 -25.620 -13.371  0.00  0.00    -0.008 C 
ATOM     16  C   UNL     1      35.453 -23.610 -12.124  0.00  0.00    +0.011 C 
ATOM     17  C   UNL     1      36.006 -24.659 -11.382  0.00  0.00    -0.021 C 
ATOM     18  C   UNL     1      36.782 -25.647 -11.992  0.00  0.00    -0.007 C 
ATOM     19  C   UNL     1      37.869 -26.700 -13.976  0.00  0.00    +0.032 C 
ATOM     20  C   UNL     1      35.760 -24.722  -9.911  0.00  0.00    +0.031 C 
ATOM     21  H   UNL     1      34.787 -21.944 -14.401  0.00  0.00    +0.149 HD
ATOM     22  H   UNL     1      37.060 -24.845 -16.157  0.00  0.00    +0.149 HD
ENDBRANCH   5  12
BRANCH   1  23
ATOM     23  C   UNL     1      36.191 -19.782 -21.115  0.00  0.00    +0.098 C 
BRANCH  23  24
ATOM     24  C   UNL     1      35.569 -18.822 -22.125  0.00  0.00    +0.022 C 
BRANCH  24  25
ATOM     25  C   UNL     1      35.420 -17.406 -21.570  0.00  0.00    +0.002 C 
BRANCH  25  27
ATOM     26  N   UNL     1      33.580 -15.054 -24.691  0.00  0.00    +0.385 N 
ATOM     27  C   UNL     1      35.264 -16.385 -22.695  0.00  0.00    -0.004 C 
ATOM     28  C   UNL     1      34.242 -15.306 -22.321  0.00  0.00    -0.023 C 
ATOM     29  C   UNL     1      34.844 -17.065 -24.002  0.00  0.00    -0.023 C 
ATOM     30  C   UNL     1      34.004 -14.338 -23.480  0.00  0.00    -0.077 C 
ATOM     31  C   UNL     1      34.588 -16.038 -25.106  0.00  0.00    -0.077 C 
ATOM     32  C   UNL     1      33.307 -14.111 -25.775  0.00  0.00    -0.101 C 
ATOM     33  H   UNL     1      32.719 -15.557 -24.472  0.00  0.00    -0.080 HD
ENDBRANCH  25  27
ENDBRANCH  24  25
ENDBRANCH  23  24
ENDBRANCH   1  23
TORSDOF 5
ENDMDL
MODEL 2
REMARK VINA RESULT:     -11.5      3.125     12.450
REMARK  Name = 23650961
REMARK  5 active torsions:
REMARK  status: ('A' for Active; 'I' for Inactive)
REMARK    1  A    between atoms: N_1  and  C_23
REMARK    2  A    between atoms: C_5  and  C_12
REMARK    3  A    between atoms: C_23  and  C_24
REMARK    4  A    between atoms: C_24  and  C_25
REMARK    5  A    between atoms: C_25  and  C_27
REMARK                            x       y       z     vdW  Elec       q    Type
REMARK                         _______ _______ _______ _____ _____    ______ ____
ROOT
ATOM      1  N   UNL     1      35.721 -18.518 -22.488  0.00  0.00    -0.268 N 
ATOM      2  N   UNL     1      34.755 -16.722 -23.649  0.00  0.00    -0.342 NA
ATOM      3  N   UNL     1      35.110 -16.608 -21.269  0.00  0.00    -0.170 NA
ATOM      4  C   UNL     1      35.178 -17.242 -22.468  0.00  0.00    +0.144 C 
ATOM      5  C   UNL     1      34.115 -14.748 -22.430  0.00  0.00    +0.061 C 
ATOM      6  C   UNL     1      34.231 -15.481 -23.594  0.00  0.00    +0.123 C 
ATOM      7  C   UNL     1      34.575 -15.369 -21.286  0.00  0.00    +0.113 C 
ATOM      8  C   UNL     1      33.769 -14.920 -24.900  0.00  0.00    +0.067 C 
ATOM      9  H   UNL     1      35.776 -18.985 -23.352  0.00  0.00    +0.159 HD
ENDROOT
BRANCH   5  12
ATOM     10  N   UNL     1      34.031 -12.403 -23.158  0.00  0.00    -0.314 N 
ATOM     11  N   UNL     1      32.552 -13.033 -21.623  0.00  0.00    -0.315 N 
ATOM     12  C   UNL     1      33.554 -13.425 -22.381  0.00  0.00    +0.171 C 
ATOM     13  C   UNL     1      33.291 -11.282 -22.881  0.00  0.00    +0.059 C 
ATOM     14  C   UNL     1      32.374 -11.701 -21.921  0.00  0.00    +0.055 C 
ATOM     15  C   UNL     1      31.447 -10.777 -21.410  0.00  0.00    -0.008 C 
ATOM     16  C   UNL     1      33.343  -9.977 -23.374  0.00  0.00    +0.011 C 
ATOM     17  C   UNL     1      32.413  -9.071 -22.855  0.00  0.00    -0.021 C 
ATOM     18  C   UNL     1      31.481  -9.460 -21.891  0.00  0.00    -0.007 C 
ATOM     19  C   UNL     1      30.431 -11.145 -20.378  0.00  0.00    +0.032 C 
ATOM     20  C   UNL     1      32.417  -7.659 -23.343  0.00  0.00    +0.031 C 
ATOM     21  H   UNL     1      34.774 -12.462 -23.800  0.00  0.00    +0.149 HD
ATOM     22  H   UNL     1      32.039 -13.575 -20.980  0.00  0.00    +0.149 HD
ENDBRANCH   5  12
BRANCH   1  23
ATOM     23  C   UNL     1      36.212 -19.198 -21.313  0.00  0.00    +0.098 C 
BRANCH  23  24
ATOM     24  C   UNL     1      35.130 -20.088 -20.711  0.00  0.00    +0.022 C 
BRANCH  24  25
ATOM     25  C   UNL     1      35.691 -21.400 -20.161  0.00  0.00    +0.002 C 
BRANCH  25  27
ATOM     26  N   UNL     1      34.838 -23.497 -16.482  0.00  0.00    +0.385 N 
ATOM     27  C   UNL     1      35.188 -21.665 -18.744  0.00  0.00    -0.004 C 
ATOM     28  C   UNL     1      36.342 -22.053 -17.814  0.00  0.00    -0.023 C 
ATOM     29  C   UNL     1      34.124 -22.767 -18.735  0.00  0.00    -0.023 C 
ATOM     30  C   UNL     1      35.834 -22.419 -16.418  0.00  0.00    -0.077 C 
ATOM     31  C   UNL     1      33.688 -23.108 -17.309  0.00  0.00    -0.077 C 
ATOM     32  C   UNL     1      34.399 -23.871 -15.138  0.00  0.00    -0.101 C 
ATOM     33  H   UNL     1      35.280 -24.307 -16.919  0.00  0.00    -0.080 HD
ENDBRANCH  25  27
ENDBRANCH  24  25
ENDBRANCH  23  24
ENDBRANCH   1  23
TORSDOF 5
ENDMDL
MODEL 3
REMARK VINA RESULT:     -11.5      2.189      3.752
REMARK  Name = 23650961
REMARK  5 active torsions:
REMARK  status: ('A' for Active; 'I' for Inactive)
REMARK    1  A    between atoms: N_1  and  C_23
REMARK    2  A    between atoms: C_5  and  C_12
REMARK    3  A    between atoms: C_23  and  C_24
REMARK    4  A    between atoms: C_24  and  C_25
REMARK    5  A    between atoms: C_25  and  C_27
REMARK                            x       y       z     vdW  Elec       q    Type
REMARK                         _______ _______ _______ _____ _____    ______ ____
ROOT
ATOM      1  N   UNL     1      35.704 -19.304 -22.111  0.00  0.00    -0.268 N 
ATOM      2  N   UNL     1      36.123 -20.561 -20.174  0.00  0.00    -0.342 NA
ATOM      3  N   UNL     1      33.870 -20.176 -20.935  0.00  0.00    -0.170 NA
ATOM      4  C   UNL     1      35.217 -20.037 -21.040  0.00  0.00    +0.144 C 
ATOM      5  C   UNL     1      34.264 -21.469 -18.943  0.00  0.00    +0.061 C 
ATOM      6  C   UNL     1      35.615 -21.267 -19.143  0.00  0.00    +0.123 C 
ATOM      7  C   UNL     1      33.430 -20.894 -19.881  0.00  0.00    +0.113 C 
ATOM      8  C   UNL     1      36.622 -21.838 -18.198  0.00  0.00    +0.067 C 
ATOM      9  H   UNL     1      36.679 -19.198 -22.195  0.00  0.00    +0.159 HD
ENDROOT
BRANCH   5  12
ATOM     10  N   UNL     1      32.386 -22.387 -17.652  0.00  0.00    -0.314 N 
ATOM     11  N   UNL     1      34.432 -22.833 -16.907  0.00  0.00    -0.315 N 
ATOM     12  C   UNL     1      33.733 -22.224 -17.840  0.00  0.00    +0.171 C 
ATOM     13  C   UNL     1      32.208 -23.148 -16.525  0.00  0.00    +0.059 C 
ATOM     14  C   UNL     1      33.499 -23.415 -16.079  0.00  0.00    +0.055 C 
ATOM     15  C   UNL     1      33.678 -24.189 -14.920  0.00  0.00    -0.008 C 
ATOM     16  C   UNL     1      31.062 -23.614 -15.878  0.00  0.00    +0.011 C 
ATOM     17  C   UNL     1      31.258 -24.382 -14.726  0.00  0.00    -0.021 C 
ATOM     18  C   UNL     1      32.541 -24.666 -14.254  0.00  0.00    -0.007 C 
ATOM     19  C   UNL     1      35.029 -24.519 -14.375  0.00  0.00    +0.032 C 
ATOM     20  C   UNL     1      30.071 -24.910 -13.989  0.00  0.00    +0.031 C 
ATOM     21  H   UNL     1      31.673 -22.022 -18.223  0.00  0.00    +0.149 HD
ATOM     22  H   UNL     1      35.413 -22.866 -16.819  0.00  0.00    +0.149 HD
ENDBRANCH   5  12
BRANCH   1  23
ATOM     23  C   UNL     1      34.863 -18.689 -23.109  0.00  0.00    +0.098 C 
BRANCH  23  24
ATOM     24  C   UNL     1      34.954 -17.167 -23.031  0.00  0.00    +0.022 C 
BRANCH  24  25
ATOM     25  C   UNL     1      34.965 -16.656 -21.590  0.00  0.00    +0.002 C 
BRANCH  25  27
ATOM     26  N   UNL     1      32.205 -13.334 -21.651  0.00  0.00    +0.385 N 
ATOM     27  C   UNL     1      34.440 -15.224 -21.507  0.00  0.00    -0.004 C 
ATOM     28  C   UNL     1      33.412 -15.080 -20.380  0.00  0.00    -0.023 C 
ATOM     29  C   UNL     1      33.816 -14.789 -22.837  0.00  0.00    -0.023 C 
ATOM     30  C   UNL     1      32.808 -13.675 -20.355  0.00  0.00    -0.077 C 
ATOM     31  C   UNL     1      33.199 -13.393 -22.730  0.00  0.00    -0.077 C 
ATOM     32  C   UNL     1      31.586 -12.010 -21.596  0.00  0.00    -0.101 C 
ATOM     33  H   UNL     1      31.481 -14.025 -21.852  0.00  0.00    -0.080 HD
ENDBRANCH  25  27
ENDBRANCH  24  25
ENDBRANCH  23  24
ENDBRANCH   1  23
TORSDOF 5
ENDMDL
MODEL 4
REMARK VINA RESULT:     -11.2      1.479      2.360
REMARK  Name = 23650961
REMARK  5 active torsions:
REMARK  status: ('A' for Active; 'I' for Inactive)
REMARK    1  A    between atoms: N_1  and  C_23
REMARK    2  A    between atoms: C_5  and  C_12
REMARK    3  A    between atoms: C_23  and  C_24
REMARK    4  A    between atoms: C_24  and  C_25
REMARK    5  A    between atoms: C_25  and  C_27
REMARK                            x       y       z     vdW  Elec       q    Type
REMARK                         _______ _______ _______ _____ _____    ______ ____
ROOT
ATOM      1  N   UNL     1      34.770 -19.902 -21.402  0.00  0.00    -0.268 N 
ATOM      2  N   UNL     1      33.978 -21.255 -19.655  0.00  0.00    -0.342 NA
ATOM      3  N   UNL     1      36.290 -20.584 -19.751  0.00  0.00    -0.170 NA
ATOM      4  C   UNL     1      35.021 -20.602 -20.232  0.00  0.00    +0.144 C 
ATOM      5  C   UNL     1      35.512 -21.973 -17.945  0.00  0.00    +0.061 C 
ATOM      6  C   UNL     1      34.257 -21.926 -18.520  0.00  0.00    +0.123 C 
ATOM      7  C   UNL     1      36.500 -21.276 -18.611  0.00  0.00    +0.113 C 
ATOM      8  C   UNL     1      33.102 -22.639 -17.895  0.00  0.00    +0.067 C 
ATOM      9  H   UNL     1      33.853 -19.909 -21.759  0.00  0.00    +0.159 HD
ENDROOT
BRANCH   5  12
ATOM     10  N   UNL     1      37.065 -23.110 -16.418  0.00  0.00    -0.314 N 
ATOM     11  N   UNL     1      34.930 -23.031 -15.805  0.00  0.00    -0.315 N 
ATOM     12  C   UNL     1      35.800 -22.693 -16.733  0.00  0.00    +0.171 C 
ATOM     13  C   UNL     1      37.005 -23.759 -15.211  0.00  0.00    +0.059 C 
ATOM     14  C   UNL     1      35.663 -23.696 -14.849  0.00  0.00    +0.055 C 
ATOM     15  C   UNL     1      35.251 -24.279 -13.638  0.00  0.00    -0.008 C 
ATOM     16  C   UNL     1      37.982 -24.377 -14.428  0.00  0.00    +0.011 C 
ATOM     17  C   UNL     1      37.556 -24.952 -13.227  0.00  0.00    -0.021 C 
ATOM     18  C   UNL     1      36.216 -24.905 -12.837  0.00  0.00    -0.007 C 
ATOM     19  C   UNL     1      33.831 -24.255 -13.178  0.00  0.00    +0.032 C 
ATOM     20  C   UNL     1      38.554 -25.627 -12.344  0.00  0.00    +0.031 C 
ATOM     21  H   UNL     1      37.873 -22.970 -16.961  0.00  0.00    +0.149 HD
ATOM     22  H   UNL     1      33.962 -22.848 -15.796  0.00  0.00    +0.149 HD
ENDBRANCH   5  12
BRANCH   1  23
ATOM     23  C   UNL     1      35.776 -19.163 -22.126  0.00  0.00    +0.098 C 
BRANCH  23  24
ATOM     24  C   UNL     1      35.685 -17.673 -21.811  0.00  0.00    +0.022 C 
BRANCH  24  25
ATOM     25  C   UNL     1      35.272 -16.844 -23.028  0.00  0.00    +0.002 C 
BRANCH  25  27
ATOM     26  N   UNL     1      32.636 -13.666 -21.759  0.00  0.00    +0.385 N 
ATOM     27  C   UNL     1      34.796 -15.453 -22.614  0.00  0.00    -0.004 C 
ATOM     28  C   UNL     1      34.234 -15.466 -21.189  0.00  0.00    -0.023 C 
ATOM     29  C   UNL     1      33.737 -14.922 -23.584  0.00  0.00    -0.023 C 
ATOM     30  C   UNL     1      33.663 -14.101 -20.803  0.00  0.00    -0.077 C 
ATOM     31  C   UNL     1      33.183 -13.573 -23.119  0.00  0.00    -0.077 C 
ATOM     32  C   UNL     1      32.064 -12.383 -21.349  0.00  0.00    -0.101 C 
ATOM     33  H   UNL     1      31.895 -14.367 -21.765  0.00  0.00    -0.080 HD
ENDBRANCH  25  27
ENDBRANCH  24  25
ENDBRANCH  23  24
ENDBRANCH   1  23
TORSDOF 5
ENDMDL
MODEL 5
REMARK VINA RESULT:     -11.2      3.535     13.064
REMARK  Name = 23650961
REMARK  5 active torsions:
REMARK  status: ('A' for Active; 'I' for Inactive)
REMARK    1  A    between atoms: N_1  and  C_23
REMARK    2  A    between atoms: C_5  and  C_12
REMARK    3  A    between atoms: C_23  and  C_24
REMARK    4  A    between atoms: C_24  and  C_25
REMARK    5  A    between atoms: C_25  and  C_27
REMARK                            x       y       z     vdW  Elec       q    Type
REMARK                         _______ _______ _______ _____ _____    ______ ____
ROOT
ATOM      1  N   UNL     1      35.116 -17.605 -23.587  0.00  0.00    -0.268 N 
ATOM      2  N   UNL     1      34.127 -15.708 -24.552  0.00  0.00    -0.342 NA
ATOM      3  N   UNL     1      35.163 -15.594 -22.379  0.00  0.00    -0.170 NA
ATOM      4  C   UNL     1      34.792 -16.260 -23.503  0.00  0.00    +0.144 C 
ATOM      5  C   UNL     1      34.156 -13.629 -23.340  0.00  0.00    +0.061 C 
ATOM      6  C   UNL     1      33.827 -14.399 -24.437  0.00  0.00    +0.123 C 
ATOM      7  C   UNL     1      34.831 -14.287 -22.331  0.00  0.00    +0.113 C 
ATOM      8  C   UNL     1      33.096 -13.804 -25.597  0.00  0.00    +0.067 C 
ATOM      9  H   UNL     1      34.852 -18.096 -24.398  0.00  0.00    +0.159 HD
ENDROOT
BRANCH   5  12
ATOM     10  N   UNL     1      32.673 -11.801 -22.637  0.00  0.00    -0.314 N 
ATOM     11  N   UNL     1      34.565 -11.227 -23.652  0.00  0.00    -0.315 N 
ATOM     12  C   UNL     1      33.831 -12.233 -23.227  0.00  0.00    +0.171 C 
ATOM     13  C   UNL     1      32.661 -10.430 -22.687  0.00  0.00    +0.059 C 
ATOM     14  C   UNL     1      33.852 -10.096 -23.324  0.00  0.00    +0.055 C 
ATOM     15  C   UNL     1      34.158  -8.741 -23.539  0.00  0.00    -0.008 C 
ATOM     16  C   UNL     1      31.738  -9.482 -22.242  0.00  0.00    +0.011 C 
ATOM     17  C   UNL     1      32.057  -8.139 -22.464  0.00  0.00    -0.021 C 
ATOM     18  C   UNL     1      33.245  -7.773 -23.101  0.00  0.00    -0.007 C 
ATOM     19  C   UNL     1      35.414  -8.299 -24.216  0.00  0.00    +0.032 C 
ATOM     20  C   UNL     1      31.110  -7.078 -22.010  0.00  0.00    +0.031 C 
ATOM     21  H   UNL     1      31.974 -12.372 -22.247  0.00  0.00    +0.149 HD
ATOM     22  H   UNL     1      35.438 -11.273 -24.107  0.00  0.00    +0.149 HD
ENDBRANCH   5  12
BRANCH   1  23
ATOM     23  C   UNL     1      35.820 -18.326 -22.553  0.00  0.00    +0.098 C 
BRANCH  23  24
ATOM     24  C   UNL     1      34.861 -18.761 -21.448  0.00  0.00    +0.022 C 
BRANCH  24  25
ATOM     25  C   UNL     1      34.745 -20.281 -21.340  0.00  0.00    +0.002 C 
BRANCH  25  27
ATOM     26  N   UNL     1      34.472 -22.873 -17.896  0.00  0.00    +0.385 N 
ATOM     27  C   UNL     1      34.626 -20.725 -19.884  0.00  0.00    -0.004 C 
ATOM     28  C   UNL     1      35.852 -21.538 -19.455  0.00  0.00    -0.023 C 
ATOM     29  C   UNL     1      33.355 -21.550 -19.662  0.00  0.00    -0.023 C 
ATOM     30  C   UNL     1      35.696 -22.071 -18.030  0.00  0.00    -0.077 C 
ATOM     31  C   UNL     1      33.280 -22.082 -18.229  0.00  0.00    -0.077 C 
ATOM     32  C   UNL     1      34.362 -23.418 -16.542  0.00  0.00    -0.101 C 
ATOM     33  H   UNL     1      34.530 -23.648 -18.556  0.00  0.00    -0.080 HD
ENDBRANCH  25  27
ENDBRANCH  24  25
ENDBRANCH  23  24
ENDBRANCH   1  23
TORSDOF 5
ENDMDL
MODEL 6
REMARK VINA RESULT:     -11.2      3.800     13.514
REMARK  Name = 23650961
REMARK  5 active torsions:
REMARK  status: ('A' for Active; 'I' for Inactive)
REMARK    1  A    between atoms: N_1  and  C_23
REMARK    2  A    between atoms: C_5  and  C_12
REMARK    3  A    between atoms: C_23  and  C_24
REMARK    4  A    between atoms: C_24  and  C_25
REMARK    5  A    between atoms: C_25  and  C_27
REMARK                            x       y       z     vdW  Elec       q    Type
REMARK                         _______ _______ _______ _____ _____    ______ ____
ROOT
ATOM      1  N   UNL     1      34.577 -17.194 -23.154  0.00  0.00    -0.268 N 
ATOM      2  N   UNL     1      33.978 -15.301 -24.405  0.00  0.00    -0.342 NA
ATOM      3  N   UNL     1      34.757 -15.088 -22.135  0.00  0.00    -0.170 NA
ATOM      4  C   UNL     1      34.433 -15.817 -23.234  0.00  0.00    +0.144 C 
ATOM      5  C   UNL     1      34.149 -13.125 -23.389  0.00  0.00    +0.061 C 
ATOM      6  C   UNL     1      33.848 -13.959 -24.448  0.00  0.00    +0.123 C 
ATOM      7  C   UNL     1      34.603 -13.752 -22.247  0.00  0.00    +0.113 C 
ATOM      8  C   UNL     1      33.347 -13.403 -25.741  0.00  0.00    +0.067 C 
ATOM      9  H   UNL     1      34.346 -17.731 -23.945  0.00  0.00    +0.159 HD
ENDROOT
BRANCH   5  12
ATOM     10  N   UNL     1      34.958 -10.890 -24.013  0.00  0.00    -0.314 N 
ATOM     11  N   UNL     1      32.991 -10.996 -22.983  0.00  0.00    -0.315 N 
ATOM     12  C   UNL     1      34.006 -11.695 -23.445  0.00  0.00    +0.171 C 
ATOM     13  C   UNL     1      34.528  -9.592 -23.908  0.00  0.00    +0.059 C 
ATOM     14  C   UNL     1      33.299  -9.684 -23.263  0.00  0.00    +0.055 C 
ATOM     15  C   UNL     1      32.575  -8.510 -22.995  0.00  0.00    -0.008 C 
ATOM     16  C   UNL     1      35.093  -8.381 -24.312  0.00  0.00    +0.011 C 
ATOM     17  C   UNL     1      34.360  -7.222 -24.037  0.00  0.00    -0.021 C 
ATOM     18  C   UNL     1      33.124  -7.282 -23.391  0.00  0.00    -0.007 C 
ATOM     19  C   UNL     1      31.250  -8.523 -22.306  0.00  0.00    +0.032 C 
ATOM     20  C   UNL     1      34.911  -5.895 -24.445  0.00  0.00    +0.031 C 
ATOM     21  H   UNL     1      35.800 -11.190 -24.422  0.00  0.00    +0.149 HD
ATOM     22  H   UNL     1      32.184 -11.339 -22.533  0.00  0.00    +0.149 HD
ENDBRANCH   5  12
BRANCH   1  23
ATOM     23  C   UNL     1      35.049 -17.883 -21.977  0.00  0.00    +0.098 C 
BRANCH  23  24
ATOM     24  C   UNL     1      34.804 -19.385 -22.094  0.00  0.00    +0.022 C 
BRANCH  24  25
ATOM     25  C   UNL     1      35.750 -20.201 -21.213  0.00  0.00    +0.002 C 
BRANCH  25  27
ATOM     26  N   UNL     1      33.568 -22.635 -18.389  0.00  0.00    +0.385 N 
ATOM     27  C   UNL     1      35.065 -20.631 -19.918  0.00  0.00    -0.004 C 
ATOM     28  C   UNL     1      35.727 -21.885 -19.336  0.00  0.00    -0.023 C 
ATOM     29  C   UNL     1      33.573 -20.892 -20.144  0.00  0.00    -0.023 C 
ATOM     30  C   UNL     1      34.985 -22.381 -18.094  0.00  0.00    -0.077 C 
ATOM     31  C   UNL     1      32.901 -21.420 -18.875  0.00  0.00    -0.077 C 
ATOM     32  C   UNL     1      32.883 -23.157 -17.207  0.00  0.00    -0.101 C 
ATOM     33  H   UNL     1      33.522 -23.336 -19.130  0.00  0.00    -0.080 HD
ENDBRANCH  25  27
ENDBRANCH  24  25
ENDBRANCH  23  24
ENDBRANCH   1  23
TORSDOF 5
ENDMDL
MODEL 7
REMARK VINA RESULT:     -11.1      4.583     13.761
REMARK  Name = 23650961
REMARK  5 active torsions:
REMARK  status: ('A' for Active; 'I' for Inactive)
REMARK    1  A    between atoms: N_1  and  C_23
REMARK    2  A    between atoms: C_5  and  C_12
REMARK    3  A    between atoms: C_23  and  C_24
REMARK    4  A    between atoms: C_24  and  C_25
REMARK    5  A    between atoms: C_25  and  C_27
REMARK                            x       y       z     vdW  Elec       q    Type
REMARK                         _______ _______ _______ _____ _____    ______ ____
ROOT
ATOM      1  N   UNL     1      34.071 -16.071 -22.614  0.00  0.00    -0.268 N 
ATOM      2  N   UNL     1      32.987 -14.172 -21.761  0.00  0.00    -0.342 NA
ATOM      3  N   UNL     1      34.489 -14.001 -23.637  0.00  0.00    -0.170 NA
ATOM      4  C   UNL     1      33.842 -14.705 -22.673  0.00  0.00    +0.144 C 
ATOM      5  C   UNL     1      33.394 -12.033 -22.787  0.00  0.00    +0.061 C 
ATOM      6  C   UNL     1      32.788 -12.841 -21.846  0.00  0.00    +0.123 C 
ATOM      7  C   UNL     1      34.244 -12.675 -23.665  0.00  0.00    +0.113 C 
ATOM      8  C   UNL     1      31.846 -12.267 -20.838  0.00  0.00    +0.067 C 
ATOM      9  H   UNL     1      33.606 -16.590 -21.918  0.00  0.00    +0.159 HD
ENDROOT
BRANCH   5  12
ATOM     10  N   UNL     1      31.960 -10.048 -22.591  0.00  0.00    -0.314 N 
ATOM     11  N   UNL     1      34.069  -9.708 -23.203  0.00  0.00    -0.315 N 
ATOM     12  C   UNL     1      33.175 -10.614 -22.869  0.00  0.00    +0.171 C 
ATOM     13  C   UNL     1      32.079  -8.692 -22.758  0.00  0.00    +0.059 C 
ATOM     14  C   UNL     1      33.404  -8.504 -23.140  0.00  0.00    +0.055 C 
ATOM     15  C   UNL     1      33.866  -7.202 -23.396  0.00  0.00    -0.008 C 
ATOM     16  C   UNL     1      31.168  -7.644 -22.612  0.00  0.00    +0.011 C 
ATOM     17  C   UNL     1      31.644  -6.355 -22.871  0.00  0.00    -0.021 C 
ATOM     18  C   UNL     1      32.968  -6.135 -23.256  0.00  0.00    -0.007 C 
ATOM     19  C   UNL     1      35.272  -6.916 -23.810  0.00  0.00    +0.032 C 
ATOM     20  C   UNL     1      30.717  -5.192 -22.731  0.00  0.00    +0.031 C 
ATOM     21  H   UNL     1      31.146 -10.528 -22.319  0.00  0.00    +0.149 HD
ATOM     22  H   UNL     1      35.012  -9.858 -23.447  0.00  0.00    +0.149 HD
ENDBRANCH   5  12
BRANCH   1  23
ATOM     23  C   UNL     1      34.952 -16.775 -23.514  0.00  0.00    +0.098 C 
BRANCH  23  24
ATOM     24  C   UNL     1      34.974 -18.267 -23.194  0.00  0.00    +0.022 C 
BRANCH  24  25
ATOM     25  C   UNL     1      35.714 -18.574 -21.892  0.00  0.00    +0.002 C 
BRANCH  25  27
ATOM     26  N   UNL     1      34.404 -21.466 -18.963  0.00  0.00    +0.385 N 
ATOM     27  C   UNL     1      35.250 -19.899 -21.291  0.00  0.00    -0.004 C 
ATOM     28  C   UNL     1      33.855 -19.763 -20.671  0.00  0.00    -0.023 C 
ATOM     29  C   UNL     1      36.239 -20.402 -20.235  0.00  0.00    -0.023 C 
ATOM     30  C   UNL     1      33.425 -21.057 -19.979  0.00  0.00    -0.077 C 
ATOM     31  C   UNL     1      35.730 -21.676 -19.559  0.00  0.00    -0.077 C 
ATOM     32  C   UNL     1      33.954 -22.676 -18.275  0.00  0.00    -0.101 C 
ATOM     33  H   UNL     1      34.482 -20.712 -18.280  0.00  0.00    -0.080 HD
ENDBRANCH  25  27
ENDBRANCH  24  25
ENDBRANCH  23  24
ENDBRANCH   1  23
TORSDOF 5
ENDMDL
MODEL 8
REMARK VINA RESULT:     -10.9      2.579     12.203
REMARK  Name = 23650961
REMARK  5 active torsions:
REMARK  status: ('A' for Active; 'I' for Inactive)
REMARK    1  A    between atoms: N_1  and  C_23
REMARK    2  A    between atoms: C_5  and  C_12
REMARK    3  A    between atoms: C_23  and  C_24
REMARK    4  A    between atoms: C_24  and  C_25
REMARK    5  A    between atoms: C_25  and  C_27
REMARK                            x       y       z     vdW  Elec       q    Type
REMARK                         _______ _______ _______ _____ _____    ______ ____
ROOT
ATOM      1  N   UNL     1      35.777 -19.508 -21.758  0.00  0.00    -0.268 N 
ATOM      2  N   UNL     1      35.137 -17.788 -23.221  0.00  0.00    -0.342 NA
ATOM      3  N   UNL     1      35.216 -17.422 -20.841  0.00  0.00    -0.170 NA
ATOM      4  C   UNL     1      35.364 -18.198 -21.945  0.00  0.00    +0.144 C 
ATOM      5  C   UNL     1      34.555 -15.636 -22.313  0.00  0.00    +0.061 C 
ATOM      6  C   UNL     1      34.736 -16.508 -23.367  0.00  0.00    +0.123 C 
ATOM      7  C   UNL     1      34.812 -16.153 -21.059  0.00  0.00    +0.113 C 
ATOM      8  C   UNL     1      34.491 -16.069 -24.774  0.00  0.00    +0.067 C 
ATOM      9  H   UNL     1      35.887 -20.077 -22.553  0.00  0.00    +0.159 HD
ENDROOT
BRANCH   5  12
ATOM     10  N   UNL     1      33.113 -13.733 -21.733  0.00  0.00    -0.314 N 
ATOM     11  N   UNL     1      34.624 -13.400 -23.329  0.00  0.00    -0.315 N 
ATOM     12  C   UNL     1      34.126 -14.273 -22.480  0.00  0.00    +0.171 C 
ATOM     13  C   UNL     1      32.948 -12.430 -22.128  0.00  0.00    +0.059 C 
ATOM     14  C   UNL     1      33.903 -12.246 -23.124  0.00  0.00    +0.055 C 
ATOM     15  C   UNL     1      34.005 -10.993 -23.753  0.00  0.00    -0.008 C 
ATOM     16  C   UNL     1      32.072 -11.426 -21.711  0.00  0.00    +0.011 C 
ATOM     17  C   UNL     1      32.186 -10.186 -22.348  0.00  0.00    -0.021 C 
ATOM     18  C   UNL     1      33.134  -9.971 -23.351  0.00  0.00    -0.007 C 
ATOM     19  C   UNL     1      35.001 -10.714 -24.830  0.00  0.00    +0.032 C 
ATOM     20  C   UNL     1      31.278  -9.071 -21.946  0.00  0.00    +0.031 C 
ATOM     21  H   UNL     1      32.595 -14.197 -21.038  0.00  0.00    +0.149 HD
ATOM     22  H   UNL     1      35.356 -13.541 -23.973  0.00  0.00    +0.149 HD
ENDBRANCH   5  12
BRANCH   1  23
ATOM     23  C   UNL     1      36.055 -20.083 -20.464  0.00  0.00    +0.098 C 
BRANCH  23  24
ATOM     24  C   UNL     1      34.876 -20.921 -19.979  0.00  0.00    +0.022 C 
BRANCH  24  25
ATOM     25  C   UNL     1      35.321 -22.173 -19.222  0.00  0.00    +0.002 C 
BRANCH  25  27
ATOM     26  N   UNL     1      33.982 -23.758 -15.434  0.00  0.00    +0.385 N 
ATOM     27  C   UNL     1      34.697 -22.228 -17.830  0.00  0.00    -0.004 C 
ATOM     28  C   UNL     1      35.732 -22.642 -16.779  0.00  0.00    -0.023 C 
ATOM     29  C   UNL     1      33.510 -23.196 -17.796  0.00  0.00    -0.023 C 
ATOM     30  C   UNL     1      35.093 -22.797 -15.398  0.00  0.00    -0.077 C 
ATOM     31  C   UNL     1      32.943 -23.332 -16.382  0.00  0.00    -0.077 C 
ATOM     32  C   UNL     1      33.413 -23.934 -14.098  0.00  0.00    -0.101 C 
ATOM     33  H   UNL     1      34.351 -24.654 -15.753  0.00  0.00    -0.080 HD
ENDBRANCH  25  27
ENDBRANCH  24  25
ENDBRANCH  23  24
ENDBRANCH   1  23
TORSDOF 5
ENDMDL
MODEL 9
REMARK VINA RESULT:     -10.7      1.727     11.522
REMARK  Name = 23650961
REMARK  5 active torsions:
REMARK  status: ('A' for Active; 'I' for Inactive)
REMARK    1  A    between atoms: N_1  and  C_23
REMARK    2  A    between atoms: C_5  and  C_12
REMARK    3  A    between atoms: C_23  and  C_24
REMARK    4  A    between atoms: C_24  and  C_25
REMARK    5  A    between atoms: C_25  and  C_27
REMARK                            x       y       z     vdW  Elec       q    Type
REMARK                         _______ _______ _______ _____ _____    ______ ____
ROOT
ATOM      1  N   UNL     1      35.436 -22.423 -18.711  0.00  0.00    -0.268 N 
ATOM      2  N   UNL     1      36.411 -20.636 -19.878  0.00  0.00    -0.342 NA
ATOM      3  N   UNL     1      34.020 -20.934 -19.842  0.00  0.00    -0.170 NA
ATOM      4  C   UNL     1      35.284 -21.295 -19.502  0.00  0.00    +0.144 C 
ATOM      5  C   UNL     1      34.987 -19.089 -21.051  0.00  0.00    +0.061 C 
ATOM      6  C   UNL     1      36.227 -19.544 -20.648  0.00  0.00    +0.123 C 
ATOM      7  C   UNL     1      33.908 -19.832 -20.614  0.00  0.00    +0.113 C 
ATOM      8  C   UNL     1      37.473 -18.828 -21.055  0.00  0.00    +0.067 C 
ATOM      9  H   UNL     1      36.348 -22.693 -18.458  0.00  0.00    +0.159 HD
ENDROOT
BRANCH   5  12
ATOM     10  N   UNL     1      34.706 -18.002 -23.236  0.00  0.00    -0.314 N 
ATOM     11  N   UNL     1      34.700 -16.682 -21.448  0.00  0.00    -0.315 N 
ATOM     12  C   UNL     1      34.801 -17.924 -21.873  0.00  0.00    +0.171 C 
ATOM     13  C   UNL     1      34.534 -16.731 -23.720  0.00  0.00    +0.059 C 
ATOM     14  C   UNL     1      34.533 -15.925 -22.586  0.00  0.00    +0.055 C 
ATOM     15  C   UNL     1      34.373 -14.536 -22.731  0.00  0.00    -0.008 C 
ATOM     16  C   UNL     1      34.383 -16.231 -25.015  0.00  0.00    +0.011 C 
ATOM     17  C   UNL     1      34.226 -14.848 -25.142  0.00  0.00    -0.021 C 
ATOM     18  C   UNL     1      34.221 -14.013 -24.023  0.00  0.00    -0.007 C 
ATOM     19  C   UNL     1      34.361 -13.603 -21.565  0.00  0.00    +0.032 C 
ATOM     20  C   UNL     1      34.059 -14.253 -26.502  0.00  0.00    +0.031 C 
ATOM     21  H   UNL     1      34.754 -18.825 -23.774  0.00  0.00    +0.149 HD
ATOM     22  H   UNL     1      34.736 -16.363 -20.517  0.00  0.00    +0.149 HD
ENDBRANCH   5  12
BRANCH   1  23
ATOM     23  C   UNL     1      34.333 -23.223 -18.235  0.00  0.00    +0.098 C 
BRANCH  23  24
ATOM     24  C   UNL     1      33.920 -22.796 -16.830  0.00  0.00    +0.022 C 
BRANCH  24  25
ATOM     25  C   UNL     1      33.565 -23.986 -15.938  0.00  0.00    +0.002 C 
BRANCH  25  27
ATOM     26  N   UNL     1      35.954 -23.241 -12.418  0.00  0.00    +0.385 N 
ATOM     27  C   UNL     1      34.610 -24.189 -14.844  0.00  0.00    -0.004 C 
ATOM     28  C   UNL     1      33.954 -24.255 -13.461  0.00  0.00    -0.023 C 
ATOM     29  C   UNL     1      35.656 -23.070 -14.867  0.00  0.00    -0.023 C 
ATOM     30  C   UNL     1      35.002 -24.358 -12.352  0.00  0.00    -0.077 C 
ATOM     31  C   UNL     1      36.649 -23.213 -13.712  0.00  0.00    -0.077 C 
ATOM     32  C   UNL     1      36.919 -23.325 -11.321  0.00  0.00    -0.101 C 
ATOM     33  H   UNL     1      35.427 -22.372 -12.324  0.00  0.00    -0.080 HD
ENDBRANCH  25  27
ENDBRANCH  24  25
ENDBRANCH  23  24
ENDBRANCH   1  23
TORSDOF 5
ENDMDL
