MODEL 1
REMARK VINA RESULT:     -11.5      0.000      0.000
REMARK  Name = 4413
REMARK  6 active torsions:
REMARK  status: ('A' for Active; 'I' for Inactive)
REMARK    1  A    between atoms: O_1  and  C_9
REMARK    2  A    between atoms: O_1  and  C_19
REMARK    3  A    between atoms: C_6  and  C_14
REMARK    4  A    between atoms: C_19  and  C_20
REMARK    5  A    between atoms: C_23  and  N_26
REMARK    6  A    between atoms: N_26  and  C_29
REMARK                            x       y       z     vdW  Elec       q    Type
REMARK                         _______ _______ _______ _____ _____    ______ ____
ROOT
ATOM      1  O   UNL     1      35.993 -17.933 -22.136  0.00  0.00    -0.421 OA
ENDROOT
BRANCH   1   9
ATOM      2  C   UNL     1      33.789 -14.401 -22.362  0.00  0.00    +0.000 C 
ATOM      3  C   UNL     1      33.791 -15.158 -21.166  0.00  0.00    +0.003 C 
ATOM      4  C   UNL     1      33.041 -13.213 -22.422  0.00  0.00    +0.003 C 
ATOM      5  C   UNL     1      34.538 -16.345 -21.107  0.00  0.00    +0.038 C 
ATOM      6  C   UNL     1      32.307 -12.778 -21.318  0.00  0.00    +0.031 C 
ATOM      7  C   UNL     1      33.047 -14.705 -20.065  0.00  0.00    +0.000 C 
ATOM      8  C   UNL     1      34.534 -14.854 -23.464  0.00  0.00    +0.003 C 
ATOM      9  C   UNL     1      35.273 -16.781 -22.211  0.00  0.00    +0.149 C 
ATOM     10  C   UNL     1      32.309 -13.523 -20.142  0.00  0.00    +0.003 C 
ATOM     11  C   UNL     1      35.270 -16.036 -23.386  0.00  0.00    +0.038 C 
BRANCH   6  14
ATOM     12  N   UNL     1      32.053 -10.407 -22.012  0.00  0.00    -0.343 N 
ATOM     13  N   UNL     1      30.325 -11.494 -20.873  0.00  0.00    -0.285 NA
ATOM     14  C   UNL     1      31.538 -11.547 -21.396  0.00  0.00    +0.117 C 
ATOM     15  H   UNL     1      31.514  -9.585 -22.054  0.00  0.00    +0.144 HD
ATOM     16  H   UNL     1      32.955 -10.426 -22.406  0.00  0.00    +0.144 HD
ATOM     17  H   UNL     1      29.803 -10.661 -20.925  0.00  0.00    +0.188 HD
ENDBRANCH   6  14
ENDBRANCH   1   9
BRANCH   1  19
ATOM     18  O   UNL     1      34.843 -19.388 -23.545  0.00  0.00    -0.244 OA
ATOM     19  C   UNL     1      35.268 -19.086 -22.440  0.00  0.00    +0.346 C 
BRANCH  19  20
ATOM     20  C   UNL     1      35.073 -19.934 -21.236  0.00  0.00    +0.076 C 
ATOM     21  C   UNL     1      33.791 -20.176 -20.790  0.00  0.00    +0.008 C 
ATOM     22  C   UNL     1      36.183 -20.454 -20.602  0.00  0.00    +0.008 C 
ATOM     23  C   UNL     1      34.713 -21.513 -19.002  0.00  0.00    +0.084 C 
ATOM     24  C   UNL     1      33.609 -20.974 -19.661  0.00  0.00    +0.019 C 
ATOM     25  C   UNL     1      36.001 -21.253 -19.472  0.00  0.00    +0.019 C 
BRANCH  23  26
ATOM     26  N   UNL     1      34.532 -22.311 -17.869  0.00  0.00    -0.214 NA
BRANCH  26  29
ATOM     27  N   UNL     1      33.601 -24.396 -18.364  0.00  0.00    -0.370 N 
ATOM     28  N   UNL     1      32.264 -22.890 -17.293  0.00  0.00    -0.370 N 
ATOM     29  C   UNL     1      33.509 -23.132 -17.830  0.00  0.00    +0.193 C 
ATOM     30  H   UNL     1      34.442 -24.695 -18.780  0.00  0.00    +0.159 HD
ATOM     31  H   UNL     1      32.827 -25.004 -18.329  0.00  0.00    +0.159 HD
ATOM     32  H   UNL     1      32.068 -22.019 -16.878  0.00  0.00    +0.159 HD
ATOM     33  H   UNL     1      31.570 -23.588 -17.322  0.00  0.00    +0.159 HD
ENDBRANCH  26  29
ENDBRANCH  23  26
ENDBRANCH  19  20
ENDBRANCH   1  19
TORSDOF 6
ENDMDL
MODEL 2
REMARK VINA RESULT:     -11.5      1.029      1.566
REMARK  Name = 4413
REMARK  6 active torsions:
REMARK  status: ('A' for Active; 'I' for Inactive)
REMARK    1  A    between atoms: O_1  and  C_9
REMARK    2  A    between atoms: O_1  and  C_19
REMARK    3  A    between atoms: C_6  and  C_14
REMARK    4  A    between atoms: C_19  and  C_20
REMARK    5  A    between atoms: C_23  and  N_26
REMARK    6  A    between atoms: N_26  and  C_29
REMARK                            x       y       z     vdW  Elec       q    Type
REMARK                         _______ _______ _______ _____ _____    ______ ____
ROOT
ATOM      1  O   UNL     1      36.017 -18.850 -22.290  0.00  0.00    -0.421 OA
ENDROOT
BRANCH   1   9
ATOM      2  C   UNL     1      34.029 -15.207 -22.702  0.00  0.00    +0.000 C 
ATOM      3  C   UNL     1      34.241 -15.756 -21.414  0.00  0.00    +0.003 C 
ATOM      4  C   UNL     1      33.358 -13.979 -22.823  0.00  0.00    +0.003 C 
ATOM      5  C   UNL     1      34.913 -16.984 -21.294  0.00  0.00    +0.038 C 
ATOM      6  C   UNL     1      32.904 -13.302 -21.691  0.00  0.00    +0.031 C 
ATOM      7  C   UNL     1      33.778 -15.061 -20.286  0.00  0.00    +0.000 C 
ATOM      8  C   UNL     1      34.493 -15.903 -23.830  0.00  0.00    +0.003 C 
ATOM      9  C   UNL     1      35.367 -17.662 -22.425  0.00  0.00    +0.149 C 
ATOM     10  C   UNL     1      33.113 -13.841 -20.425  0.00  0.00    +0.003 C 
ATOM     11  C   UNL     1      35.158 -17.122 -23.691  0.00  0.00    +0.038 C 
BRANCH   6  14
ATOM     12  N   UNL     1      30.958 -11.821 -21.259  0.00  0.00    -0.343 N 
ATOM     13  N   UNL     1      32.768 -11.051 -22.521  0.00  0.00    -0.285 NA
ATOM     14  C   UNL     1      32.211 -12.032 -21.833  0.00  0.00    +0.117 C 
ATOM     15  H   UNL     1      30.508 -10.953 -21.367  0.00  0.00    +0.144 HD
ATOM     16  H   UNL     1      30.525 -12.540 -20.744  0.00  0.00    +0.144 HD
ATOM     17  H   UNL     1      32.300 -10.190 -22.619  0.00  0.00    +0.188 HD
ENDBRANCH   6  14
ENDBRANCH   1   9
BRANCH   1  19
ATOM     18  O   UNL     1      37.416 -18.546 -20.452  0.00  0.00    -0.244 OA
ATOM     19  C   UNL     1      36.479 -19.109 -20.999  0.00  0.00    +0.346 C 
BRANCH  19  20
ATOM     20  C   UNL     1      35.675 -20.170 -20.341  0.00  0.00    +0.076 C 
ATOM     21  C   UNL     1      34.304 -20.164 -20.501  0.00  0.00    +0.008 C 
ATOM     22  C   UNL     1      36.323 -21.131 -19.593  0.00  0.00    +0.008 C 
ATOM     23  C   UNL     1      34.181 -22.145 -19.124  0.00  0.00    +0.084 C 
ATOM     24  C   UNL     1      33.550 -21.162 -19.885  0.00  0.00    +0.019 C 
ATOM     25  C   UNL     1      35.568 -22.130 -18.977  0.00  0.00    +0.019 C 
BRANCH  23  26
ATOM     26  N   UNL     1      33.424 -23.145 -18.505  0.00  0.00    -0.214 NA
BRANCH  26  29
ATOM     27  N   UNL     1      31.750 -22.531 -16.995  0.00  0.00    -0.370 N 
ATOM     28  N   UNL     1      33.761 -23.158 -16.118  0.00  0.00    -0.370 N 
ATOM     29  C   UNL     1      33.027 -22.964 -17.268  0.00  0.00    +0.193 C 
ATOM     30  H   UNL     1      31.123 -22.355 -17.733  0.00  0.00    +0.159 HD
ATOM     31  H   UNL     1      31.464 -22.399 -16.062  0.00  0.00    +0.159 HD
ATOM     32  H   UNL     1      34.693 -23.468 -16.177  0.00  0.00    +0.159 HD
ATOM     33  H   UNL     1      33.353 -22.989 -15.238  0.00  0.00    +0.159 HD
ENDBRANCH  26  29
ENDBRANCH  23  26
ENDBRANCH  19  20
ENDBRANCH   1  19
TORSDOF 6
ENDMDL
MODEL 3
REMARK VINA RESULT:     -10.9      2.453      3.522
REMARK  Name = 4413
REMARK  6 active torsions:
REMARK  status: ('A' for Active; 'I' for Inactive)
REMARK    1  A    between atoms: O_1  and  C_9
REMARK    2  A    between atoms: O_1  and  C_19
REMARK    3  A    between atoms: C_6  and  C_14
REMARK    4  A    between atoms: C_19  and  C_20
REMARK    5  A    between atoms: C_23  and  N_26
REMARK    6  A    between atoms: N_26  and  C_29
REMARK                            x       y       z     vdW  Elec       q    Type
REMARK                         _______ _______ _______ _____ _____    ______ ____
ROOT
ATOM      1  O   UNL     1      35.637 -20.468 -20.720  0.00  0.00    -0.421 OA
ENDROOT
BRANCH   1   9
ATOM      2  C   UNL     1      34.781 -17.131 -23.070  0.00  0.00    +0.000 C 
ATOM      3  C   UNL     1      34.867 -17.002 -21.662  0.00  0.00    +0.003 C 
ATOM      4  C   UNL     1      34.492 -15.998 -23.847  0.00  0.00    +0.003 C 
ATOM      5  C   UNL     1      35.156 -18.136 -20.886  0.00  0.00    +0.038 C 
ATOM      6  C   UNL     1      34.291 -14.755 -23.245  0.00  0.00    +0.031 C 
ATOM      7  C   UNL     1      34.662 -15.745 -21.074  0.00  0.00    +0.000 C 
ATOM      8  C   UNL     1      34.985 -18.390 -23.658  0.00  0.00    +0.003 C 
ATOM      9  C   UNL     1      35.356 -19.380 -21.487  0.00  0.00    +0.149 C 
ATOM     10  C   UNL     1      34.376 -14.628 -21.862  0.00  0.00    +0.003 C 
ATOM     11  C   UNL     1      35.271 -19.505 -22.871  0.00  0.00    +0.038 C 
BRANCH   6  14
ATOM     12  N   UNL     1      34.307 -12.302 -23.634  0.00  0.00    -0.343 N 
ATOM     13  N   UNL     1      33.408 -13.745 -25.239  0.00  0.00    -0.285 NA
ATOM     14  C   UNL     1      33.992 -13.591 -24.064  0.00  0.00    +0.117 C 
ATOM     15  H   UNL     1      34.097 -11.529 -24.206  0.00  0.00    +0.144 HD
ATOM     16  H   UNL     1      34.741 -12.167 -22.761  0.00  0.00    +0.144 HD
ATOM     17  H   UNL     1      33.205 -12.958 -25.794  0.00  0.00    +0.188 HD
ENDBRANCH   6  14
ENDBRANCH   1   9
BRANCH   1  19
ATOM     18  O   UNL     1      33.376 -20.892 -20.353  0.00  0.00    -0.244 OA
ATOM     19  C   UNL     1      34.545 -20.967 -20.007  0.00  0.00    +0.346 C 
BRANCH  19  20
ATOM     20  C   UNL     1      34.979 -21.627 -18.749  0.00  0.00    +0.076 C 
ATOM     21  C   UNL     1      36.291 -21.495 -18.345  0.00  0.00    +0.008 C 
ATOM     22  C   UNL     1      34.055 -22.350 -18.024  0.00  0.00    +0.008 C 
ATOM     23  C   UNL     1      35.783 -22.849 -16.410  0.00  0.00    +0.084 C 
ATOM     24  C   UNL     1      36.697 -22.113 -17.163  0.00  0.00    +0.019 C 
ATOM     25  C   UNL     1      34.461 -22.969 -16.841  0.00  0.00    +0.019 C 
BRANCH  23  26
ATOM     26  N   UNL     1      36.190 -23.470 -15.226  0.00  0.00    -0.214 NA
BRANCH  26  29
ATOM     27  N   UNL     1      36.291 -25.796 -15.428  0.00  0.00    -0.370 N 
ATOM     28  N   UNL     1      34.612 -24.937 -14.143  0.00  0.00    -0.370 N 
ATOM     29  C   UNL     1      35.705 -24.654 -14.932  0.00  0.00    +0.193 C 
ATOM     30  H   UNL     1      37.083 -25.731 -16.009  0.00  0.00    +0.159 HD
ATOM     31  H   UNL     1      35.918 -26.679 -15.201  0.00  0.00    +0.159 HD
ATOM     32  H   UNL     1      34.104 -24.204 -13.727  0.00  0.00    +0.159 HD
ATOM     33  H   UNL     1      34.341 -25.872 -13.993  0.00  0.00    +0.159 HD
ENDBRANCH  26  29
ENDBRANCH  23  26
ENDBRANCH  19  20
ENDBRANCH   1  19
TORSDOF 6
ENDMDL
MODEL 4
REMARK VINA RESULT:     -10.8      4.618     10.199
REMARK  Name = 4413
REMARK  6 active torsions:
REMARK  status: ('A' for Active; 'I' for Inactive)
REMARK    1  A    between atoms: O_1  and  C_9
REMARK    2  A    between atoms: O_1  and  C_19
REMARK    3  A    between atoms: C_6  and  C_14
REMARK    4  A    between atoms: C_19  and  C_20
REMARK    5  A    between atoms: C_23  and  N_26
REMARK    6  A    between atoms: N_26  and  C_29
REMARK                            x       y       z     vdW  Elec       q    Type
REMARK                         _______ _______ _______ _____ _____    ______ ____
ROOT
ATOM      1  O   UNL     1      32.761 -22.649 -17.927  0.00  0.00    -0.421 OA
ENDROOT
BRANCH   1   9
ATOM      2  C   UNL     1      33.928 -23.751 -14.079  0.00  0.00    +0.000 C 
ATOM      3  C   UNL     1      34.882 -23.225 -14.985  0.00  0.00    +0.003 C 
ATOM      4  C   UNL     1      34.338 -24.117 -12.787  0.00  0.00    +0.003 C 
ATOM      5  C   UNL     1      34.471 -22.859 -16.277  0.00  0.00    +0.038 C 
ATOM      6  C   UNL     1      35.668 -23.966 -12.392  0.00  0.00    +0.031 C 
ATOM      7  C   UNL     1      36.215 -23.080 -14.571  0.00  0.00    +0.000 C 
ATOM      8  C   UNL     1      32.594 -23.897 -14.494  0.00  0.00    +0.003 C 
ATOM      9  C   UNL     1      33.141 -23.010 -16.672  0.00  0.00    +0.149 C 
ATOM     10  C   UNL     1      36.605 -23.449 -13.282  0.00  0.00    +0.003 C 
ATOM     11  C   UNL     1      32.205 -23.527 -15.782  0.00  0.00    +0.038 C 
BRANCH   6  14
ATOM     12  N   UNL     1      37.256 -23.868 -10.485  0.00  0.00    -0.343 N 
ATOM     13  N   UNL     1      35.323 -25.175 -10.344  0.00  0.00    -0.285 NA
ATOM     14  C   UNL     1      36.076 -24.350 -11.051  0.00  0.00    +0.117 C 
ATOM     15  H   UNL     1      37.512 -24.141  -9.575  0.00  0.00    +0.144 HD
ATOM     16  H   UNL     1      37.831 -23.254 -10.996  0.00  0.00    +0.144 HD
ATOM     17  H   UNL     1      35.598 -25.437  -9.436  0.00  0.00    +0.188 HD
ENDBRANCH   6  14
ENDBRANCH   1   9
BRANCH   1  19
ATOM     18  O   UNL     1      33.843 -24.174 -19.317  0.00  0.00    -0.244 OA
ATOM     19  C   UNL     1      33.653 -23.030 -18.932  0.00  0.00    +0.346 C 
BRANCH  19  20
ATOM     20  C   UNL     1      34.357 -21.854 -19.502  0.00  0.00    +0.076 C 
ATOM     21  C   UNL     1      33.617 -20.868 -20.121  0.00  0.00    +0.008 C 
ATOM     22  C   UNL     1      35.731 -21.782 -19.392  0.00  0.00    +0.008 C 
ATOM     23  C   UNL     1      35.666 -19.665 -20.556  0.00  0.00    +0.084 C 
ATOM     24  C   UNL     1      34.279 -19.762 -20.653  0.00  0.00    +0.019 C 
ATOM     25  C   UNL     1      36.393 -20.676 -19.925  0.00  0.00    +0.019 C 
BRANCH  23  26
ATOM     26  N   UNL     1      36.330 -18.558 -21.091  0.00  0.00    -0.214 NA
BRANCH  26  29
ATOM     27  N   UNL     1      35.588 -17.514 -23.045  0.00  0.00    -0.370 N 
ATOM     28  N   UNL     1      34.862 -16.646 -21.063  0.00  0.00    -0.370 N 
ATOM     29  C   UNL     1      35.625 -17.617 -21.674  0.00  0.00    +0.193 C 
ATOM     30  H   UNL     1      36.092 -18.151 -23.600  0.00  0.00    +0.159 HD
ATOM     31  H   UNL     1      35.055 -16.803 -23.471  0.00  0.00    +0.159 HD
ATOM     32  H   UNL     1      34.805 -16.610 -20.082  0.00  0.00    +0.159 HD
ATOM     33  H   UNL     1      34.373 -15.988 -21.609  0.00  0.00    +0.159 HD
ENDBRANCH  26  29
ENDBRANCH  23  26
ENDBRANCH  19  20
ENDBRANCH   1  19
TORSDOF 6
ENDMDL
MODEL 5
REMARK VINA RESULT:     -10.8      2.342      9.179
REMARK  Name = 4413
REMARK  6 active torsions:
REMARK  status: ('A' for Active; 'I' for Inactive)
REMARK    1  A    between atoms: O_1  and  C_9
REMARK    2  A    between atoms: O_1  and  C_19
REMARK    3  A    between atoms: C_6  and  C_14
REMARK    4  A    between atoms: C_19  and  C_20
REMARK    5  A    between atoms: C_23  and  N_26
REMARK    6  A    between atoms: N_26  and  C_29
REMARK                            x       y       z     vdW  Elec       q    Type
REMARK                         _______ _______ _______ _____ _____    ______ ____
ROOT
ATOM      1  O   UNL     1      35.477 -20.002 -21.320  0.00  0.00    -0.421 OA
ENDROOT
BRANCH   1   9
ATOM      2  C   UNL     1      34.541 -22.199 -17.902  0.00  0.00    +0.000 C 
ATOM      3  C   UNL     1      35.879 -21.806 -18.145  0.00  0.00    +0.003 C 
ATOM      4  C   UNL     1      34.242 -22.939 -16.746  0.00  0.00    +0.003 C 
ATOM      5  C   UNL     1      36.176 -21.067 -19.302  0.00  0.00    +0.038 C 
ATOM      6  C   UNL     1      35.248 -23.285 -15.843  0.00  0.00    +0.031 C 
ATOM      7  C   UNL     1      36.878 -22.163 -17.226  0.00  0.00    +0.000 C 
ATOM      8  C   UNL     1      33.541 -21.843 -18.822  0.00  0.00    +0.003 C 
ATOM      9  C   UNL     1      35.171 -20.720 -20.205  0.00  0.00    +0.149 C 
ATOM     10  C   UNL     1      36.563 -22.898 -16.082  0.00  0.00    +0.003 C 
ATOM     11  C   UNL     1      33.856 -21.108 -19.965  0.00  0.00    +0.038 C 
BRANCH   6  14
ATOM     12  N   UNL     1      34.140 -23.510 -13.631  0.00  0.00    -0.343 N 
ATOM     13  N   UNL     1      35.374 -25.286 -14.519  0.00  0.00    -0.285 NA
ATOM     14  C   UNL     1      34.922 -24.051 -14.651  0.00  0.00    +0.117 C 
ATOM     15  H   UNL     1      33.932 -24.047 -12.833  0.00  0.00    +0.144 HD
ATOM     16  H   UNL     1      33.797 -22.591 -13.710  0.00  0.00    +0.144 HD
ATOM     17  H   UNL     1      35.154 -25.807 -13.712  0.00  0.00    +0.188 HD
ENDBRANCH   6  14
ENDBRANCH   1   9
BRANCH   1  19
ATOM     18  O   UNL     1      37.103 -18.635 -20.362  0.00  0.00    -0.244 OA
ATOM     19  C   UNL     1      36.114 -18.786 -21.064  0.00  0.00    +0.346 C 
BRANCH  19  20
ATOM     20  C   UNL     1      35.440 -17.667 -21.771  0.00  0.00    +0.076 C 
ATOM     21  C   UNL     1      34.853 -16.665 -21.027  0.00  0.00    +0.008 C 
ATOM     22  C   UNL     1      35.425 -17.663 -23.151  0.00  0.00    +0.008 C 
ATOM     23  C   UNL     1      34.194 -15.585 -23.084  0.00  0.00    +0.084 C 
ATOM     24  C   UNL     1      34.223 -15.613 -21.691  0.00  0.00    +0.019 C 
ATOM     25  C   UNL     1      34.795 -16.611 -23.815  0.00  0.00    +0.019 C 
BRANCH  23  26
ATOM     26  N   UNL     1      33.561 -14.532 -23.751  0.00  0.00    -0.214 NA
BRANCH  26  29
ATOM     27  N   UNL     1      34.445 -12.397 -23.407  0.00  0.00    -0.370 N 
ATOM     28  N   UNL     1      32.539 -12.927 -22.271  0.00  0.00    -0.370 N 
ATOM     29  C   UNL     1      33.494 -13.360 -23.164  0.00  0.00    +0.193 C 
ATOM     30  H   UNL     1      35.185 -12.582 -24.029  0.00  0.00    +0.159 HD
ATOM     31  H   UNL     1      34.384 -11.521 -22.961  0.00  0.00    +0.159 HD
ATOM     32  H   UNL     1      31.801 -13.524 -22.012  0.00  0.00    +0.159 HD
ATOM     33  H   UNL     1      32.593 -12.018 -21.893  0.00  0.00    +0.159 HD
ENDBRANCH  26  29
ENDBRANCH  23  26
ENDBRANCH  19  20
ENDBRANCH   1  19
TORSDOF 6
ENDMDL
MODEL 6
REMARK VINA RESULT:     -10.7      1.636      8.837
REMARK  Name = 4413
REMARK  6 active torsions:
REMARK  status: ('A' for Active; 'I' for Inactive)
REMARK    1  A    between atoms: O_1  and  C_9
REMARK    2  A    between atoms: O_1  and  C_19
REMARK    3  A    between atoms: C_6  and  C_14
REMARK    4  A    between atoms: C_19  and  C_20
REMARK    5  A    between atoms: C_23  and  N_26
REMARK    6  A    between atoms: N_26  and  C_29
REMARK                            x       y       z     vdW  Elec       q    Type
REMARK                         _______ _______ _______ _____ _____    ______ ____
ROOT
ATOM      1  O   UNL     1      36.183 -17.351 -22.592  0.00  0.00    -0.421 OA
ENDROOT
BRANCH   1   9
ATOM      2  C   UNL     1      35.567 -20.575 -20.022  0.00  0.00    +0.000 C 
ATOM      3  C   UNL     1      34.459 -19.893 -20.579  0.00  0.00    +0.003 C 
ATOM      4  C   UNL     1      35.342 -21.659 -19.158  0.00  0.00    +0.003 C 
ATOM      5  C   UNL     1      34.685 -18.809 -21.443  0.00  0.00    +0.038 C 
ATOM      6  C   UNL     1      34.044 -22.066 -18.849  0.00  0.00    +0.031 C 
ATOM      7  C   UNL     1      33.160 -20.316 -20.258  0.00  0.00    +0.000 C 
ATOM      8  C   UNL     1      36.867 -20.152 -20.343  0.00  0.00    +0.003 C 
ATOM      9  C   UNL     1      35.983 -18.402 -21.752  0.00  0.00    +0.149 C 
ATOM     10  C   UNL     1      32.954 -21.395 -19.397  0.00  0.00    +0.003 C 
ATOM     11  C   UNL     1      37.072 -19.073 -21.203  0.00  0.00    +0.038 C 
BRANCH   6  14
ATOM     12  N   UNL     1      33.585 -24.472 -18.443  0.00  0.00    -0.343 N 
ATOM     13  N   UNL     1      33.858 -23.004 -16.644  0.00  0.00    -0.285 NA
ATOM     14  C   UNL     1      33.828 -23.190 -17.952  0.00  0.00    +0.117 C 
ATOM     15  H   UNL     1      33.442 -25.219 -17.817  0.00  0.00    +0.144 HD
ATOM     16  H   UNL     1      33.556 -24.631 -19.414  0.00  0.00    +0.144 HD
ATOM     17  H   UNL     1      33.712 -23.764 -16.036  0.00  0.00    +0.188 HD
ENDBRANCH   6  14
ENDBRANCH   1   9
BRANCH   1  19
ATOM     18  O   UNL     1      34.737 -17.969 -24.311  0.00  0.00    -0.244 OA
ATOM     19  C   UNL     1      35.153 -17.144 -23.512  0.00  0.00    +0.346 C 
BRANCH  19  20
ATOM     20  C   UNL     1      34.597 -15.771 -23.398  0.00  0.00    +0.076 C 
ATOM     21  C   UNL     1      33.890 -15.247 -24.460  0.00  0.00    +0.008 C 
ATOM     22  C   UNL     1      34.804 -15.064 -22.231  0.00  0.00    +0.008 C 
ATOM     23  C   UNL     1      33.560 -13.223 -23.183  0.00  0.00    +0.084 C 
ATOM     24  C   UNL     1      33.366 -13.959 -24.351  0.00  0.00    +0.019 C 
ATOM     25  C   UNL     1      34.279 -13.775 -22.123  0.00  0.00    +0.019 C 
BRANCH  23  26
ATOM     26  N   UNL     1      33.037 -11.932 -23.075  0.00  0.00    -0.214 NA
BRANCH  26  29
ATOM     27  N   UNL     1      33.417  -9.630 -23.187  0.00  0.00    -0.370 N 
ATOM     28  N   UNL     1      34.841 -10.976 -24.355  0.00  0.00    -0.370 N 
ATOM     29  C   UNL     1      33.742 -10.922 -23.526  0.00  0.00    +0.193 C 
ATOM     30  H   UNL     1      32.649  -9.454 -22.597  0.00  0.00    +0.159 HD
ATOM     31  H   UNL     1      33.955  -8.880 -23.532  0.00  0.00    +0.159 HD
ATOM     32  H   UNL     1      35.177 -11.845 -24.672  0.00  0.00    +0.159 HD
ATOM     33  H   UNL     1      35.293 -10.145 -24.630  0.00  0.00    +0.159 HD
ENDBRANCH  26  29
ENDBRANCH  23  26
ENDBRANCH  19  20
ENDBRANCH   1  19
TORSDOF 6
ENDMDL
MODEL 7
REMARK VINA RESULT:     -10.6      2.308      9.139
REMARK  Name = 4413
REMARK  6 active torsions:
REMARK  status: ('A' for Active; 'I' for Inactive)
REMARK    1  A    between atoms: O_1  and  C_9
REMARK    2  A    between atoms: O_1  and  C_19
REMARK    3  A    between atoms: C_6  and  C_14
REMARK    4  A    between atoms: C_19  and  C_20
REMARK    5  A    between atoms: C_23  and  N_26
REMARK    6  A    between atoms: N_26  and  C_29
REMARK                            x       y       z     vdW  Elec       q    Type
REMARK                         _______ _______ _______ _____ _____    ______ ____
ROOT
ATOM      1  O   UNL     1      35.362 -20.194 -21.124  0.00  0.00    -0.421 OA
ENDROOT
BRANCH   1   9
ATOM      2  C   UNL     1      35.214 -22.350 -17.559  0.00  0.00    +0.000 C 
ATOM      3  C   UNL     1      34.019 -22.060 -18.260  0.00  0.00    +0.003 C 
ATOM      4  C   UNL     1      35.147 -23.078 -16.359  0.00  0.00    +0.003 C 
ATOM      5  C   UNL     1      34.087 -21.332 -19.459  0.00  0.00    +0.038 C 
ATOM      6  C   UNL     1      33.920 -23.513 -15.859  0.00  0.00    +0.031 C 
ATOM      7  C   UNL     1      32.793 -22.506 -17.742  0.00  0.00    +0.000 C 
ATOM      8  C   UNL     1      36.441 -21.904 -18.077  0.00  0.00    +0.003 C 
ATOM      9  C   UNL     1      35.315 -20.896 -19.960  0.00  0.00    +0.149 C 
ATOM     10  C   UNL     1      32.744 -23.228 -16.549  0.00  0.00    +0.003 C 
ATOM     11  C   UNL     1      36.489 -21.182 -19.270  0.00  0.00    +0.038 C 
BRANCH   6  14
ATOM     12  N   UNL     1      32.722 -24.271 -13.820  0.00  0.00    -0.343 N 
ATOM     13  N   UNL     1      34.920 -24.959 -14.221  0.00  0.00    -0.285 NA
ATOM     14  C   UNL     1      33.867 -24.266 -14.616  0.00  0.00    +0.117 C 
ATOM     15  H   UNL     1      32.709 -24.788 -12.982  0.00  0.00    +0.144 HD
ATOM     16  H   UNL     1      31.928 -23.759 -14.095  0.00  0.00    +0.144 HD
ATOM     17  H   UNL     1      34.886 -25.469 -13.379  0.00  0.00    +0.188 HD
ENDBRANCH   6  14
ENDBRANCH   1   9
BRANCH   1  19
ATOM     18  O   UNL     1      37.221 -18.937 -20.498  0.00  0.00    -0.244 OA
ATOM     19  C   UNL     1      36.145 -19.039 -21.068  0.00  0.00    +0.346 C 
BRANCH  19  20
ATOM     20  C   UNL     1      35.510 -17.921 -21.811  0.00  0.00    +0.076 C 
ATOM     21  C   UNL     1      35.046 -16.830 -21.105  0.00  0.00    +0.008 C 
ATOM     22  C   UNL     1      35.406 -18.007 -23.184  0.00  0.00    +0.008 C 
ATOM     23  C   UNL     1      34.334 -15.841 -23.191  0.00  0.00    +0.084 C 
ATOM     24  C   UNL     1      34.452 -15.779 -21.803  0.00  0.00    +0.019 C 
ATOM     25  C   UNL     1      34.811 -16.955 -23.882  0.00  0.00    +0.019 C 
BRANCH  23  26
ATOM     26  N   UNL     1      33.737 -14.789 -23.891  0.00  0.00    -0.214 NA
BRANCH  26  29
ATOM     27  N   UNL     1      34.368 -12.608 -23.339  0.00  0.00    -0.370 N 
ATOM     28  N   UNL     1      32.404 -13.374 -22.465  0.00  0.00    -0.370 N 
ATOM     29  C   UNL     1      33.492 -13.665 -23.258  0.00  0.00    +0.193 C 
ATOM     30  H   UNL     1      35.188 -12.688 -23.877  0.00  0.00    +0.159 HD
ATOM     31  H   UNL     1      34.173 -11.770 -22.859  0.00  0.00    +0.159 HD
ATOM     32  H   UNL     1      31.702 -14.050 -22.326  0.00  0.00    +0.159 HD
ATOM     33  H   UNL     1      32.328 -12.489 -22.038  0.00  0.00    +0.159 HD
ENDBRANCH  26  29
ENDBRANCH  23  26
ENDBRANCH  19  20
ENDBRANCH   1  19
TORSDOF 6
ENDMDL
MODEL 8
REMARK VINA RESULT:     -10.6      1.562      2.669
REMARK  Name = 4413
REMARK  6 active torsions:
REMARK  status: ('A' for Active; 'I' for Inactive)
REMARK    1  A    between atoms: O_1  and  C_9
REMARK    2  A    between atoms: O_1  and  C_19
REMARK    3  A    between atoms: C_6  and  C_14
REMARK    4  A    between atoms: C_19  and  C_20
REMARK    5  A    between atoms: C_23  and  N_26
REMARK    6  A    between atoms: N_26  and  C_29
REMARK                            x       y       z     vdW  Elec       q    Type
REMARK                         _______ _______ _______ _____ _____    ______ ____
ROOT
ATOM      1  O   UNL     1      35.264 -19.096 -22.125  0.00  0.00    -0.421 OA
ENDROOT
BRANCH   1   9
ATOM      2  C   UNL     1      34.481 -15.003 -22.265  0.00  0.00    +0.000 C 
ATOM      3  C   UNL     1      34.596 -15.743 -23.467  0.00  0.00    +0.003 C 
ATOM      4  C   UNL     1      34.217 -13.625 -22.330  0.00  0.00    +0.003 C 
ATOM      5  C   UNL     1      34.860 -17.121 -23.401  0.00  0.00    +0.038 C 
ATOM      6  C   UNL     1      34.068 -12.986 -23.561  0.00  0.00    +0.031 C 
ATOM      7  C   UNL     1      34.442 -15.084 -24.696  0.00  0.00    +0.000 C 
ATOM      8  C   UNL     1      34.635 -15.663 -21.034  0.00  0.00    +0.003 C 
ATOM      9  C   UNL     1      35.010 -17.760 -22.170  0.00  0.00    +0.149 C 
ATOM     10  C   UNL     1      34.180 -13.714 -24.742  0.00  0.00    +0.003 C 
ATOM     11  C   UNL     1      34.897 -17.032 -20.989  0.00  0.00    +0.038 C 
BRANCH   6  14
ATOM     12  N   UNL     1      34.591 -10.694 -24.362  0.00  0.00    -0.343 N 
ATOM     13  N   UNL     1      32.777 -11.059 -22.933  0.00  0.00    -0.285 NA
ATOM     14  C   UNL     1      33.795 -11.559 -23.611  0.00  0.00    +0.117 C 
ATOM     15  H   UNL     1      34.387  -9.732 -24.382  0.00  0.00    +0.144 HD
ATOM     16  H   UNL     1      35.355 -11.047 -24.872  0.00  0.00    +0.144 HD
ATOM     17  H   UNL     1      32.590 -10.093 -22.966  0.00  0.00    +0.188 HD
ENDBRANCH   6  14
ENDBRANCH   1   9
BRANCH   1  19
ATOM     18  O   UNL     1      37.119 -19.076 -20.715  0.00  0.00    -0.244 OA
ATOM     19  C   UNL     1      36.015 -19.503 -21.020  0.00  0.00    +0.346 C 
BRANCH  19  20
ATOM     20  C   UNL     1      35.295 -20.534 -20.229  0.00  0.00    +0.076 C 
ATOM     21  C   UNL     1      36.028 -21.443 -19.495  0.00  0.00    +0.008 C 
ATOM     22  C   UNL     1      33.916 -20.548 -20.253  0.00  0.00    +0.008 C 
ATOM     23  C   UNL     1      33.958 -22.445 -18.757  0.00  0.00    +0.084 C 
ATOM     24  C   UNL     1      35.351 -22.409 -18.751  0.00  0.00    +0.019 C 
ATOM     25  C   UNL     1      33.239 -21.515 -19.509  0.00  0.00    +0.019 C 
BRANCH  23  26
ATOM     26  N   UNL     1      33.279 -23.415 -18.012  0.00  0.00    -0.214 NA
BRANCH  26  29
ATOM     27  N   UNL     1      31.644 -22.786 -16.467  0.00  0.00    -0.370 N 
ATOM     28  N   UNL     1      33.748 -23.153 -15.662  0.00  0.00    -0.370 N 
ATOM     29  C   UNL     1      32.937 -23.139 -16.776  0.00  0.00    +0.193 C 
ATOM     30  H   UNL     1      30.964 -22.739 -17.176  0.00  0.00    +0.159 HD
ATOM     31  H   UNL     1      31.399 -22.581 -15.535  0.00  0.00    +0.159 HD
ATOM     32  H   UNL     1      34.699 -23.390 -15.749  0.00  0.00    +0.159 HD
ATOM     33  H   UNL     1      33.376 -22.926 -14.779  0.00  0.00    +0.159 HD
ENDBRANCH  26  29
ENDBRANCH  23  26
ENDBRANCH  19  20
ENDBRANCH   1  19
TORSDOF 6
ENDMDL
MODEL 9
REMARK VINA RESULT:     -10.5      5.539     11.541
REMARK  Name = 4413
REMARK  6 active torsions:
REMARK  status: ('A' for Active; 'I' for Inactive)
REMARK    1  A    between atoms: O_1  and  C_9
REMARK    2  A    between atoms: O_1  and  C_19
REMARK    3  A    between atoms: C_6  and  C_14
REMARK    4  A    between atoms: C_19  and  C_20
REMARK    5  A    between atoms: C_23  and  N_26
REMARK    6  A    between atoms: N_26  and  C_29
REMARK                            x       y       z     vdW  Elec       q    Type
REMARK                         _______ _______ _______ _____ _____    ______ ____
ROOT
ATOM      1  O   UNL     1      31.142 -10.546 -20.420  0.00  0.00    -0.421 OA
ENDROOT
BRANCH   1   9
ATOM      2  C   UNL     1      33.084 -13.979 -21.772  0.00  0.00    +0.000 C 
ATOM      3  C   UNL     1      32.964 -12.853 -22.622  0.00  0.00    +0.003 C 
ATOM      4  C   UNL     1      33.741 -15.127 -22.242  0.00  0.00    +0.003 C 
ATOM      5  C   UNL     1      32.307 -11.705 -22.150  0.00  0.00    +0.038 C 
ATOM      6  C   UNL     1      34.273 -15.165 -23.532  0.00  0.00    +0.031 C 
ATOM      7  C   UNL     1      33.505 -12.908 -23.916  0.00  0.00    +0.000 C 
ATOM      8  C   UNL     1      32.543 -13.923 -20.477  0.00  0.00    +0.003 C 
ATOM      9  C   UNL     1      31.775 -11.667 -20.861  0.00  0.00    +0.149 C 
ATOM     10  C   UNL     1      34.155 -14.058 -24.367  0.00  0.00    +0.003 C 
ATOM     11  C   UNL     1      31.893 -12.774 -20.026  0.00  0.00    +0.038 C 
BRANCH   6  14
ATOM     12  N   UNL     1      35.638 -17.200 -23.128  0.00  0.00    -0.343 N 
ATOM     13  N   UNL     1      34.922 -16.670 -25.289  0.00  0.00    -0.285 NA
ATOM     14  C   UNL     1      34.950 -16.362 -24.004  0.00  0.00    +0.117 C 
ATOM     15  H   UNL     1      36.089 -18.005 -23.470  0.00  0.00    +0.144 HD
ATOM     16  H   UNL     1      35.673 -16.986 -22.168  0.00  0.00    +0.144 HD
ATOM     17  H   UNL     1      35.380 -17.480 -25.611  0.00  0.00    +0.188 HD
ENDBRANCH   6  14
ENDBRANCH   1   9
BRANCH   1  19
ATOM     18  O   UNL     1      32.674  -9.702 -18.879  0.00  0.00    -0.244 OA
ATOM     19  C   UNL     1      31.994  -9.576 -19.887  0.00  0.00    +0.346 C 
BRANCH  19  20
ATOM     20  C   UNL     1      31.989  -8.342 -20.713  0.00  0.00    +0.076 C 
ATOM     21  C   UNL     1      32.565  -7.196 -20.206  0.00  0.00    +0.008 C 
ATOM     22  C   UNL     1      31.408  -8.381 -21.965  0.00  0.00    +0.008 C 
ATOM     23  C   UNL     1      31.983  -6.051 -22.252  0.00  0.00    +0.084 C 
ATOM     24  C   UNL     1      32.562  -6.038 -20.983  0.00  0.00    +0.019 C 
ATOM     25  C   UNL     1      31.405  -7.222 -22.743  0.00  0.00    +0.019 C 
BRANCH  23  26
ATOM     26  N   UNL     1      31.978  -4.890 -23.030  0.00  0.00    -0.214 NA
BRANCH  26  29
ATOM     27  N   UNL     1      30.536  -3.357 -24.044  0.00  0.00    -0.370 N 
ATOM     28  N   UNL     1      30.175  -3.820 -21.839  0.00  0.00    -0.370 N 
ATOM     29  C   UNL     1      30.951  -4.077 -22.949  0.00  0.00    +0.193 C 
ATOM     30  H   UNL     1      31.009  -3.450 -24.903  0.00  0.00    +0.159 HD
ATOM     31  H   UNL     1      29.764  -2.749 -23.971  0.00  0.00    +0.159 HD
ATOM     32  H   UNL     1      30.369  -4.274 -20.988  0.00  0.00    +0.159 HD
ATOM     33  H   UNL     1      29.425  -3.185 -21.899  0.00  0.00    +0.159 HD
ENDBRANCH  26  29
ENDBRANCH  23  26
ENDBRANCH  19  20
ENDBRANCH   1  19
TORSDOF 6
ENDMDL
