MODEL 1
REMARK VINA RESULT:     -11.8      0.000      0.000
REMARK  Name = 72696796
REMARK  9 active torsions:
REMARK  status: ('A' for Active; 'I' for Inactive)
REMARK    1  A    between atoms: N_2  and  C_29
REMARK    2  A    between atoms: C_10  and  C_12
REMARK    3  A    between atoms: C_13  and  C_16
REMARK    4  A    between atoms: N_15  and  C_18
REMARK    5  A    between atoms: C_18  and  C_20
REMARK    6  A    between atoms: C_29  and  O_30
REMARK    7  A    between atoms: O_30  and  P_31
REMARK    8  A    between atoms: P_31  and  O_33
REMARK    9  A    between atoms: P_31  and  O_35
REMARK                            x       y       z     vdW  Elec       q    Type
REMARK                         _______ _______ _______ _____ _____    ______ ____
ROOT
ATOM      1  O   UNL     1      31.661  -7.631 -19.914  0.00  0.00    -0.274 OA
ATOM      2  N   UNL     1      32.507  -9.002 -21.597  0.00  0.00    -0.217 N 
ATOM      3  N   UNL     1      33.433 -10.494 -23.242  0.00  0.00    -0.229 NA
ATOM      4  C   UNL     1      31.306 -11.180 -20.205  0.00  0.00    +0.039 C 
ATOM      5  C   UNL     1      32.167 -11.407 -21.407  0.00  0.00    +0.010 C 
ATOM      6  C   UNL     1      31.789  -9.961 -19.446  0.00  0.00    +0.090 C 
ATOM      7  C   UNL     1      32.723 -10.326 -22.096  0.00  0.00    +0.135 C 
ATOM      8  C   UNL     1      31.943  -8.752 -20.344  0.00  0.00    +0.233 C 
ATOM      9  C   UNL     1      32.357 -12.694 -21.919  0.00  0.00    +0.000 C 
ATOM     10  C   UNL     1      33.096 -12.879 -23.079  0.00  0.00    +0.019 C 
ATOM     11  C   UNL     1      33.607 -11.755 -23.698  0.00  0.00    +0.100 C 
ENDROOT
BRANCH  10  12
ATOM     12  C   UNL     1      33.335 -14.205 -23.616  0.00  0.00    +0.006 C 
ATOM     13  C   UNL     1      34.549 -14.793 -23.740  0.00  0.00    +0.058 C 
BRANCH  13  16
ATOM     14  O   UNL     1      34.536 -16.301 -25.556  0.00  0.00    -0.270 OA
ATOM     15  N   UNL     1      34.959 -17.194 -23.453  0.00  0.00    -0.267 N 
ATOM     16  C   UNL     1      34.669 -16.154 -24.340  0.00  0.00    +0.250 C 
ATOM     17  C   UNL     1      35.122 -18.549 -23.967  0.00  0.00    +0.116 C 
BRANCH  15  18
ATOM     18  C   UNL     1      35.155 -17.041 -22.013  0.00  0.00    +0.158 C 
BRANCH  18  20
ATOM     19  O   UNL     1      33.987 -18.884 -20.950  0.00  0.00    -0.456 OA
ATOM     20  C   UNL     1      35.192 -18.366 -21.307  0.00  0.00    +0.139 A 
ATOM     21  C   UNL     1      36.214 -19.205 -20.927  0.00  0.00    +0.013 A 
ATOM     22  C   UNL     1      35.604 -20.318 -20.292  0.00  0.00    +0.033 A 
ATOM     23  C   UNL     1      34.235 -20.072 -20.331  0.00  0.00    +0.145 A 
ATOM     24  C   UNL     1      37.657 -18.987 -21.140  0.00  0.00    +0.034 C 
ATOM     25  C   UNL     1      36.056 -21.503 -19.688  0.00  0.00    +0.003 C 
ATOM     26  C   UNL     1      33.272 -20.932 -19.807  0.00  0.00    +0.037 C 
ATOM     27  C   UNL     1      35.110 -22.389 -19.152  0.00  0.00    +0.000 C 
ATOM     28  C   UNL     1      33.743 -22.105 -19.211  0.00  0.00    +0.003 C 
ENDBRANCH  18  20
ENDBRANCH  15  18
ENDBRANCH  13  16
ENDBRANCH  10  12
BRANCH   2  29
ATOM     29  C   UNL     1      32.897  -7.892 -22.460  0.00  0.00    +0.257 C 
BRANCH  29  30
ATOM     30  O   UNL     1      31.733  -7.202 -22.873  0.00  0.00    -0.251 OA
BRANCH  30  31
ATOM     31  P   UNL     1      31.743  -5.584 -22.835  0.00  0.00    +0.475 P 
ATOM     32  O   UNL     1      30.432  -4.921 -23.142  0.00  0.00    -0.227 OA
BRANCH  31  33
ATOM     33  O   UNL     1      32.954  -5.197 -23.834  0.00  0.00    -0.303 OA
ATOM     34  H   UNL     1      33.802  -5.340 -23.385  0.00  0.00    +0.222 HD
ENDBRANCH  31  33
BRANCH  31  35
ATOM     35  O   UNL     1      32.351  -5.239 -21.375  0.00  0.00    -0.303 OA
ATOM     36  H   UNL     1      31.726  -5.523 -20.690  0.00  0.00    +0.222 HD
ENDBRANCH  31  35
ENDBRANCH  30  31
ENDBRANCH  29  30
ENDBRANCH   2  29
TORSDOF 9
ENDMDL
MODEL 2
REMARK VINA RESULT:     -11.8      6.016     12.717
REMARK  Name = 72696796
REMARK  9 active torsions:
REMARK  status: ('A' for Active; 'I' for Inactive)
REMARK    1  A    between atoms: N_2  and  C_29
REMARK    2  A    between atoms: C_10  and  C_12
REMARK    3  A    between atoms: C_13  and  C_16
REMARK    4  A    between atoms: N_15  and  C_18
REMARK    5  A    between atoms: C_18  and  C_20
REMARK    6  A    between atoms: C_29  and  O_30
REMARK    7  A    between atoms: O_30  and  P_31
REMARK    8  A    between atoms: P_31  and  O_33
REMARK    9  A    between atoms: P_31  and  O_35
REMARK                            x       y       z     vdW  Elec       q    Type
REMARK                         _______ _______ _______ _____ _____    ______ ____
ROOT
ATOM      1  O   UNL     1      34.143 -24.239 -14.216  0.00  0.00    -0.274 OA
ATOM      2  N   UNL     1      35.319 -23.084 -15.864  0.00  0.00    -0.217 N 
ATOM      3  N   UNL     1      36.477 -21.970 -17.654  0.00  0.00    -0.229 NA
ATOM      4  C   UNL     1      32.820 -22.772 -17.200  0.00  0.00    +0.039 C 
ATOM      5  C   UNL     1      34.100 -22.320 -17.830  0.00  0.00    +0.010 C 
ATOM      6  C   UNL     1      33.074 -23.984 -16.327  0.00  0.00    +0.090 C 
ATOM      7  C   UNL     1      35.312 -22.453 -17.148  0.00  0.00    +0.135 C 
ATOM      8  C   UNL     1      34.208 -23.758 -15.350  0.00  0.00    +0.233 C 
ATOM      9  C   UNL     1      34.099 -21.674 -19.070  0.00  0.00    +0.000 C 
ATOM     10  C   UNL     1      35.286 -21.194 -19.605  0.00  0.00    +0.019 C 
ATOM     11  C   UNL     1      36.438 -21.365 -18.862  0.00  0.00    +0.100 C 
ENDROOT
BRANCH  10  12
ATOM     12  C   UNL     1      35.319 -20.547 -20.903  0.00  0.00    +0.006 C 
ATOM     13  C   UNL     1      34.677 -19.399 -21.222  0.00  0.00    +0.058 C 
BRANCH  13  16
ATOM     14  O   UNL     1      34.576 -19.592 -23.573  0.00  0.00    -0.270 OA
ATOM     15  N   UNL     1      35.026 -17.481 -22.711  0.00  0.00    -0.267 N 
ATOM     16  C   UNL     1      34.761 -18.849 -22.607  0.00  0.00    +0.250 C 
ATOM     17  C   UNL     1      35.094 -16.863 -24.029  0.00  0.00    +0.116 C 
BRANCH  15  18
ATOM     18  C   UNL     1      35.215 -16.573 -21.581  0.00  0.00    +0.158 C 
BRANCH  18  20
ATOM     19  O   UNL     1      34.936 -14.469 -22.758  0.00  0.00    -0.456 OA
ATOM     20  C   UNL     1      34.474 -15.280 -21.770  0.00  0.00    +0.139 A 
ATOM     21  C   UNL     1      33.391 -14.713 -21.142  0.00  0.00    +0.013 A 
ATOM     22  C   UNL     1      33.164 -13.466 -21.782  0.00  0.00    +0.033 A 
ATOM     23  C   UNL     1      34.141 -13.363 -22.767  0.00  0.00    +0.145 A 
ATOM     24  C   UNL     1      32.619 -15.289 -20.024  0.00  0.00    +0.034 C 
ATOM     25  C   UNL     1      32.243 -12.414 -21.636  0.00  0.00    +0.003 C 
ATOM     26  C   UNL     1      34.268 -12.277 -23.630  0.00  0.00    +0.037 C 
ATOM     27  C   UNL     1      32.346 -11.307 -22.490  0.00  0.00    +0.000 C 
ATOM     28  C   UNL     1      33.342 -11.242 -23.468  0.00  0.00    +0.003 C 
ENDBRANCH  18  20
ENDBRANCH  15  18
ENDBRANCH  13  16
ENDBRANCH  10  12
BRANCH   2  29
ATOM     29  C   UNL     1      36.548 -22.997 -15.083  0.00  0.00    +0.257 C 
BRANCH  29  30
ATOM     30  O   UNL     1      37.366 -24.110 -15.391  0.00  0.00    -0.251 OA
BRANCH  30  31
ATOM     31  P   UNL     1      37.844 -25.072 -14.180  0.00  0.00    +0.475 P 
ATOM     32  O   UNL     1      38.594 -24.393 -13.071  0.00  0.00    -0.227 OA
BRANCH  31  33
ATOM     33  O   UNL     1      38.658 -26.246 -14.938  0.00  0.00    -0.303 OA
ATOM     34  H   UNL     1      38.041 -26.941 -15.214  0.00  0.00    +0.222 HD
ENDBRANCH  31  33
BRANCH  31  35
ATOM     35  O   UNL     1      36.481 -25.813 -13.719  0.00  0.00    -0.303 OA
ATOM     36  H   UNL     1      36.306 -26.564 -14.306  0.00  0.00    +0.222 HD
ENDBRANCH  31  35
ENDBRANCH  30  31
ENDBRANCH  29  30
ENDBRANCH   2  29
TORSDOF 9
ENDMDL
MODEL 3
REMARK VINA RESULT:     -11.1      6.272     12.925
REMARK  Name = 72696796
REMARK  9 active torsions:
REMARK  status: ('A' for Active; 'I' for Inactive)
REMARK    1  A    between atoms: N_2  and  C_29
REMARK    2  A    between atoms: C_10  and  C_12
REMARK    3  A    between atoms: C_13  and  C_16
REMARK    4  A    between atoms: N_15  and  C_18
REMARK    5  A    between atoms: C_18  and  C_20
REMARK    6  A    between atoms: C_29  and  O_30
REMARK    7  A    between atoms: O_30  and  P_31
REMARK    8  A    between atoms: P_31  and  O_33
REMARK    9  A    between atoms: P_31  and  O_35
REMARK                            x       y       z     vdW  Elec       q    Type
REMARK                         _______ _______ _______ _____ _____    ______ ____
ROOT
ATOM      1  O   UNL     1      33.409 -24.401 -13.709  0.00  0.00    -0.274 OA
ATOM      2  N   UNL     1      34.655 -23.452 -15.434  0.00  0.00    -0.217 N 
ATOM      3  N   UNL     1      35.870 -22.542 -17.301  0.00  0.00    -0.229 NA
ATOM      4  C   UNL     1      32.164 -22.783 -16.648  0.00  0.00    +0.039 C 
ATOM      5  C   UNL     1      33.462 -22.534 -17.349  0.00  0.00    +0.010 C 
ATOM      6  C   UNL     1      32.280 -24.010 -15.767  0.00  0.00    +0.090 C 
ATOM      7  C   UNL     1      34.675 -22.840 -16.728  0.00  0.00    +0.135 C 
ATOM      8  C   UNL     1      33.485 -23.947 -14.852  0.00  0.00    +0.233 C 
ATOM      9  C   UNL     1      33.491 -21.908 -18.599  0.00  0.00    +0.000 C 
ATOM     10  C   UNL     1      34.707 -21.616 -19.202  0.00  0.00    +0.019 C 
ATOM     11  C   UNL     1      35.858 -21.950 -18.516  0.00  0.00    +0.100 C 
ENDROOT
BRANCH  10  12
ATOM     12  C   UNL     1      34.767 -20.995 -20.512  0.00  0.00    +0.006 C 
ATOM     13  C   UNL     1      34.779 -19.662 -20.746  0.00  0.00    +0.058 C 
BRANCH  13  16
ATOM     14  O   UNL     1      34.669 -19.923 -23.090  0.00  0.00    -0.270 OA
ATOM     15  N   UNL     1      34.972 -17.763 -22.287  0.00  0.00    -0.267 N 
ATOM     16  C   UNL     1      34.809 -19.143 -22.145  0.00  0.00    +0.250 C 
ATOM     17  C   UNL     1      34.981 -17.176 -23.622  0.00  0.00    +0.116 C 
BRANCH  15  18
ATOM     18  C   UNL     1      35.104 -16.814 -21.183  0.00  0.00    +0.158 C 
BRANCH  18  20
ATOM     19  O   UNL     1      34.928 -14.746 -22.440  0.00  0.00    -0.456 OA
ATOM     20  C   UNL     1      34.389 -15.523 -21.464  0.00  0.00    +0.139 A 
ATOM     21  C   UNL     1      33.269 -14.930 -20.932  0.00  0.00    +0.013 A 
ATOM     22  C   UNL     1      33.098 -13.702 -21.623  0.00  0.00    +0.033 A 
ATOM     23  C   UNL     1      34.144 -13.636 -22.539  0.00  0.00    +0.145 A 
ATOM     24  C   UNL     1      32.414 -15.468 -19.855  0.00  0.00    +0.034 C 
ATOM     25  C   UNL     1      32.178 -12.641 -21.576  0.00  0.00    +0.003 C 
ATOM     26  C   UNL     1      34.342 -12.577 -23.422  0.00  0.00    +0.037 C 
ATOM     27  C   UNL     1      32.351 -11.561 -22.453  0.00  0.00    +0.000 C 
ATOM     28  C   UNL     1      33.415 -11.532 -23.358  0.00  0.00    +0.003 C 
ENDBRANCH  18  20
ENDBRANCH  15  18
ENDBRANCH  13  16
ENDBRANCH  10  12
BRANCH   2  29
ATOM     29  C   UNL     1      35.923 -23.542 -14.719  0.00  0.00    +0.257 C 
BRANCH  29  30
ATOM     30  O   UNL     1      36.504 -24.807 -14.973  0.00  0.00    -0.251 OA
BRANCH  30  31
ATOM     31  P   UNL     1      37.243 -25.574 -13.755  0.00  0.00    +0.475 P 
ATOM     32  O   UNL     1      38.070 -26.764 -14.146  0.00  0.00    -0.227 OA
BRANCH  31  33
ATOM     33  O   UNL     1      36.035 -25.889 -12.728  0.00  0.00    -0.303 OA
ATOM     34  H   UNL     1      36.299 -25.637 -11.830  0.00  0.00    +0.222 HD
ENDBRANCH  31  33
BRANCH  31  35
ATOM     35  O   UNL     1      38.063 -24.398 -13.004  0.00  0.00    -0.303 OA
ATOM     36  H   UNL     1      38.856 -24.771 -12.588  0.00  0.00    +0.222 HD
ENDBRANCH  31  35
ENDBRANCH  30  31
ENDBRANCH  29  30
ENDBRANCH   2  29
TORSDOF 9
ENDMDL
MODEL 4
REMARK VINA RESULT:     -10.7      5.988     12.526
REMARK  Name = 72696796
REMARK  9 active torsions:
REMARK  status: ('A' for Active; 'I' for Inactive)
REMARK    1  A    between atoms: N_2  and  C_29
REMARK    2  A    between atoms: C_10  and  C_12
REMARK    3  A    between atoms: C_13  and  C_16
REMARK    4  A    between atoms: N_15  and  C_18
REMARK    5  A    between atoms: C_18  and  C_20
REMARK    6  A    between atoms: C_29  and  O_30
REMARK    7  A    between atoms: O_30  and  P_31
REMARK    8  A    between atoms: P_31  and  O_33
REMARK    9  A    between atoms: P_31  and  O_35
REMARK                            x       y       z     vdW  Elec       q    Type
REMARK                         _______ _______ _______ _____ _____    ______ ____
ROOT
ATOM      1  O   UNL     1      34.048 -24.101 -13.986  0.00  0.00    -0.274 OA
ATOM      2  N   UNL     1      35.088 -23.047 -15.785  0.00  0.00    -0.217 N 
ATOM      3  N   UNL     1      36.099 -22.041 -17.722  0.00  0.00    -0.229 NA
ATOM      4  C   UNL     1      32.489 -22.780 -16.924  0.00  0.00    +0.039 C 
ATOM      5  C   UNL     1      33.714 -22.376 -17.681  0.00  0.00    +0.010 C 
ATOM      6  C   UNL     1      32.807 -23.947 -16.011  0.00  0.00    +0.090 C 
ATOM      7  C   UNL     1      34.978 -22.484 -17.096  0.00  0.00    +0.135 C 
ATOM      8  C   UNL     1      34.020 -23.681 -15.145  0.00  0.00    +0.233 C 
ATOM      9  C   UNL     1      33.613 -21.796 -18.949  0.00  0.00    +0.000 C 
ATOM     10  C   UNL     1      34.754 -21.357 -19.606  0.00  0.00    +0.019 C 
ATOM     11  C   UNL     1      35.963 -21.500 -18.954  0.00  0.00    +0.100 C 
ENDROOT
BRANCH  10  12
ATOM     12  C   UNL     1      34.682 -20.781 -20.935  0.00  0.00    +0.006 C 
ATOM     13  C   UNL     1      34.993 -19.501 -21.252  0.00  0.00    +0.058 C 
BRANCH  13  16
ATOM     14  O   UNL     1      34.472 -19.793 -23.536  0.00  0.00    -0.270 OA
ATOM     15  N   UNL     1      35.126 -17.664 -22.872  0.00  0.00    -0.267 N 
ATOM     16  C   UNL     1      34.846 -19.016 -22.655  0.00  0.00    +0.250 C 
ATOM     17  C   UNL     1      34.976 -17.107 -24.211  0.00  0.00    +0.116 C 
BRANCH  15  18
ATOM     18  C   UNL     1      35.537 -16.715 -21.839  0.00  0.00    +0.158 C 
BRANCH  18  20
ATOM     19  O   UNL     1      33.948 -15.383 -20.579  0.00  0.00    -0.456 OA
ATOM     20  C   UNL     1      34.608 -15.538 -21.757  0.00  0.00    +0.139 A 
ATOM     21  C   UNL     1      34.263 -14.544 -22.643  0.00  0.00    +0.013 A 
ATOM     22  C   UNL     1      33.326 -13.716 -21.971  0.00  0.00    +0.033 A 
ATOM     23  C   UNL     1      33.166 -14.274 -20.707  0.00  0.00    +0.145 A 
ATOM     24  C   UNL     1      34.770 -14.376 -24.018  0.00  0.00    +0.034 C 
ATOM     25  C   UNL     1      32.596 -12.558 -22.292  0.00  0.00    +0.003 C 
ATOM     26  C   UNL     1      32.322 -13.757 -19.727  0.00  0.00    +0.037 C 
ATOM     27  C   UNL     1      31.739 -12.015 -21.325  0.00  0.00    +0.000 C 
ATOM     28  C   UNL     1      31.605 -12.606 -20.067  0.00  0.00    +0.003 C 
ENDBRANCH  18  20
ENDBRANCH  15  18
ENDBRANCH  13  16
ENDBRANCH  10  12
BRANCH   2  29
ATOM     29  C   UNL     1      36.379 -22.931 -15.115  0.00  0.00    +0.257 C 
BRANCH  29  30
ATOM     30  O   UNL     1      37.160 -24.069 -15.426  0.00  0.00    -0.251 OA
BRANCH  30  31
ATOM     31  P   UNL     1      37.700 -24.989 -14.209  0.00  0.00    +0.475 P 
ATOM     32  O   UNL     1      38.412 -24.255 -13.109  0.00  0.00    -0.227 OA
BRANCH  31  33
ATOM     33  O   UNL     1      38.581 -26.118 -14.959  0.00  0.00    -0.303 OA
ATOM     34  H   UNL     1      38.348 -26.137 -15.901  0.00  0.00    +0.222 HD
ENDBRANCH  31  33
BRANCH  31  35
ATOM     35  O   UNL     1      36.386 -25.807 -13.736  0.00  0.00    -0.303 OA
ATOM     36  H   UNL     1      36.112 -26.414 -14.440  0.00  0.00    +0.222 HD
ENDBRANCH  31  35
ENDBRANCH  30  31
ENDBRANCH  29  30
ENDBRANCH   2  29
TORSDOF 9
ENDMDL
MODEL 5
REMARK VINA RESULT:      -9.9      3.557     11.553
REMARK  Name = 72696796
REMARK  9 active torsions:
REMARK  status: ('A' for Active; 'I' for Inactive)
REMARK    1  A    between atoms: N_2  and  C_29
REMARK    2  A    between atoms: C_10  and  C_12
REMARK    3  A    between atoms: C_13  and  C_16
REMARK    4  A    between atoms: N_15  and  C_18
REMARK    5  A    between atoms: C_18  and  C_20
REMARK    6  A    between atoms: C_29  and  O_30
REMARK    7  A    between atoms: O_30  and  P_31
REMARK    8  A    between atoms: P_31  and  O_33
REMARK    9  A    between atoms: P_31  and  O_35
REMARK                            x       y       z     vdW  Elec       q    Type
REMARK                         _______ _______ _______ _____ _____    ______ ____
ROOT
ATOM      1  O   UNL     1      34.925 -17.515 -23.923  0.00  0.00    -0.274 OA
ATOM      2  N   UNL     1      34.209 -16.053 -22.255  0.00  0.00    -0.217 N 
ATOM      3  N   UNL     1      33.539 -14.450 -20.591  0.00  0.00    -0.229 NA
ATOM      4  C   UNL     1      33.426 -14.294 -24.357  0.00  0.00    +0.039 C 
ATOM      5  C   UNL     1      33.337 -13.879 -22.923  0.00  0.00    +0.010 C 
ATOM      6  C   UNL     1      34.592 -15.243 -24.549  0.00  0.00    +0.090 C 
ATOM      7  C   UNL     1      33.695 -14.765 -21.904  0.00  0.00    +0.135 C 
ATOM      8  C   UNL     1      34.562 -16.393 -23.564  0.00  0.00    +0.233 C 
ATOM      9  C   UNL     1      32.807 -12.635 -22.570  0.00  0.00    +0.000 C 
ATOM     10  C   UNL     1      32.660 -12.295 -21.232  0.00  0.00    +0.019 C 
ATOM     11  C   UNL     1      33.037 -13.231 -20.289  0.00  0.00    +0.100 C 
ENDROOT
BRANCH  10  12
ATOM     12  C   UNL     1      32.142 -10.999 -20.837  0.00  0.00    +0.006 C 
ATOM     13  C   UNL     1      32.672  -9.803 -21.191  0.00  0.00    +0.058 C 
BRANCH  13  16
ATOM     14  O   UNL     1      32.099  -8.271 -19.488  0.00  0.00    -0.270 OA
ATOM     15  N   UNL     1      31.508  -7.696 -21.661  0.00  0.00    -0.267 N 
ATOM     16  C   UNL     1      32.066  -8.534 -20.692  0.00  0.00    +0.250 C 
ATOM     17  C   UNL     1      30.924  -6.423 -21.256  0.00  0.00    +0.116 C 
BRANCH  15  18
ATOM     18  C   UNL     1      31.486  -7.969 -23.097  0.00  0.00    +0.158 C 
BRANCH  18  20
ATOM     19  O   UNL     1      31.980  -6.048 -24.495  0.00  0.00    -0.456 OA
ATOM     20  C   UNL     1      32.483  -7.128 -23.842  0.00  0.00    +0.139 A 
ATOM     21  C   UNL     1      33.845  -7.213 -24.018  0.00  0.00    +0.013 A 
ATOM     22  C   UNL     1      34.213  -6.111 -24.834  0.00  0.00    +0.033 A 
ATOM     23  C   UNL     1      33.031  -5.427 -25.101  0.00  0.00    +0.145 A 
ATOM     24  C   UNL     1      34.742  -8.245 -23.464  0.00  0.00    +0.034 C 
ATOM     25  C   UNL     1      35.412  -5.619 -25.378  0.00  0.00    +0.003 C 
ATOM     26  C   UNL     1      32.956  -4.273 -25.878  0.00  0.00    +0.037 C 
ATOM     27  C   UNL     1      35.368  -4.459 -26.164  0.00  0.00    +0.000 C 
ATOM     28  C   UNL     1      34.160  -3.800 -26.408  0.00  0.00    +0.003 C 
ENDBRANCH  18  20
ENDBRANCH  15  18
ENDBRANCH  13  16
ENDBRANCH  10  12
BRANCH   2  29
ATOM     29  C   UNL     1      34.350 -17.031 -21.181  0.00  0.00    +0.257 C 
BRANCH  29  30
ATOM     30  O   UNL     1      35.726 -17.205 -20.899  0.00  0.00    -0.251 OA
BRANCH  30  31
ATOM     31  P   UNL     1      36.365 -18.683 -21.062  0.00  0.00    +0.475 P 
ATOM     32  O   UNL     1      35.404 -19.824 -20.900  0.00  0.00    -0.227 OA
BRANCH  31  33
ATOM     33  O   UNL     1      37.597 -18.672 -20.014  0.00  0.00    -0.303 OA
ATOM     34  H   UNL     1      37.672 -17.792 -19.612  0.00  0.00    +0.222 HD
ENDBRANCH  31  33
BRANCH  31  35
ATOM     35  O   UNL     1      37.107 -18.622 -22.498  0.00  0.00    -0.303 OA
ATOM     36  H   UNL     1      36.694 -17.937 -23.047  0.00  0.00    +0.222 HD
ENDBRANCH  31  35
ENDBRANCH  30  31
ENDBRANCH  29  30
ENDBRANCH   2  29
TORSDOF 9
ENDMDL
MODEL 6
REMARK VINA RESULT:      -9.9      7.405     13.903
REMARK  Name = 72696796
REMARK  9 active torsions:
REMARK  status: ('A' for Active; 'I' for Inactive)
REMARK    1  A    between atoms: N_2  and  C_29
REMARK    2  A    between atoms: C_10  and  C_12
REMARK    3  A    between atoms: C_13  and  C_16
REMARK    4  A    between atoms: N_15  and  C_18
REMARK    5  A    between atoms: C_18  and  C_20
REMARK    6  A    between atoms: C_29  and  O_30
REMARK    7  A    between atoms: O_30  and  P_31
REMARK    8  A    between atoms: P_31  and  O_33
REMARK    9  A    between atoms: P_31  and  O_35
REMARK                            x       y       z     vdW  Elec       q    Type
REMARK                         _______ _______ _______ _____ _____    ______ ____
ROOT
ATOM      1  O   UNL     1      37.588 -24.666 -10.512  0.00  0.00    -0.274 OA
ATOM      2  N   UNL     1      37.400 -23.996 -12.736  0.00  0.00    -0.217 N 
ATOM      3  N   UNL     1      37.117 -23.399 -15.049  0.00  0.00    -0.229 NA
ATOM      4  C   UNL     1      34.583 -23.911 -12.304  0.00  0.00    +0.039 C 
ATOM      5  C   UNL     1      35.169 -23.680 -13.661  0.00  0.00    +0.010 C 
ATOM      6  C   UNL     1      35.447 -24.885 -11.528  0.00  0.00    +0.090 C 
ATOM      7  C   UNL     1      36.553 -23.694 -13.849  0.00  0.00    +0.135 C 
ATOM      8  C   UNL     1      36.905 -24.478 -11.521  0.00  0.00    +0.233 C 
ATOM      9  C   UNL     1      34.351 -23.354 -14.747  0.00  0.00    +0.000 C 
ATOM     10  C   UNL     1      34.915 -23.068 -15.982  0.00  0.00    +0.019 C 
ATOM     11  C   UNL     1      36.292 -23.102 -16.079  0.00  0.00    +0.100 C 
ENDROOT
BRANCH  10  12
ATOM     12  C   UNL     1      34.089 -22.758 -17.133  0.00  0.00    +0.006 C 
ATOM     13  C   UNL     1      34.454 -21.963 -18.168  0.00  0.00    +0.058 C 
BRANCH  13  16
ATOM     14  O   UNL     1      32.421 -22.287 -19.323  0.00  0.00    -0.270 OA
ATOM     15  N   UNL     1      33.900 -20.732 -20.216  0.00  0.00    -0.267 N 
ATOM     16  C   UNL     1      33.500 -21.692 -19.282  0.00  0.00    +0.250 C 
ATOM     17  C   UNL     1      33.008 -20.390 -21.317  0.00  0.00    +0.116 C 
BRANCH  15  18
ATOM     18  C   UNL     1      35.157 -19.989 -20.170  0.00  0.00    +0.158 C 
BRANCH  18  20
ATOM     19  O   UNL     1      34.777 -17.598 -20.341  0.00  0.00    -0.456 OA
ATOM     20  C   UNL     1      35.100 -18.740 -21.003  0.00  0.00    +0.139 A 
ATOM     21  C   UNL     1      35.311 -18.485 -22.338  0.00  0.00    +0.013 A 
ATOM     22  C   UNL     1      35.106 -17.092 -22.518  0.00  0.00    +0.033 A 
ATOM     23  C   UNL     1      34.779 -16.593 -21.262  0.00  0.00    +0.145 A 
ATOM     24  C   UNL     1      35.680 -19.469 -23.374  0.00  0.00    +0.034 C 
ATOM     25  C   UNL     1      35.158 -16.200 -23.603  0.00  0.00    +0.003 C 
ATOM     26  C   UNL     1      34.498 -15.253 -21.003  0.00  0.00    +0.037 C 
ATOM     27  C   UNL     1      34.880 -14.845 -23.373  0.00  0.00    +0.000 C 
ATOM     28  C   UNL     1      34.556 -14.383 -22.095  0.00  0.00    +0.003 C 
ENDBRANCH  18  20
ENDBRANCH  15  18
ENDBRANCH  13  16
ENDBRANCH  10  12
BRANCH   2  29
ATOM     29  C   UNL     1      38.832 -23.774 -12.908  0.00  0.00    +0.257 C 
BRANCH  29  30
ATOM     30  O   UNL     1      39.481 -25.027 -13.005  0.00  0.00    -0.251 OA
BRANCH  30  31
ATOM     31  P   UNL     1      39.870 -25.580 -14.476  0.00  0.00    +0.475 P 
ATOM     32  O   UNL     1      41.086 -26.459 -14.536  0.00  0.00    -0.227 OA
BRANCH  31  33
ATOM     33  O   UNL     1      39.955 -24.234 -15.368  0.00  0.00    -0.303 OA
ATOM     34  H   UNL     1      40.367 -24.437 -16.222  0.00  0.00    +0.222 HD
ENDBRANCH  31  33
BRANCH  31  35
ATOM     35  O   UNL     1      38.506 -26.277 -14.996  0.00  0.00    -0.303 OA
ATOM     36  H   UNL     1      38.389 -27.131 -14.552  0.00  0.00    +0.222 HD
ENDBRANCH  31  35
ENDBRANCH  30  31
ENDBRANCH  29  30
ENDBRANCH   2  29
TORSDOF 9
ENDMDL
MODEL 7
REMARK VINA RESULT:      -9.8      2.950      5.258
REMARK  Name = 72696796
REMARK  9 active torsions:
REMARK  status: ('A' for Active; 'I' for Inactive)
REMARK    1  A    between atoms: N_2  and  C_29
REMARK    2  A    between atoms: C_10  and  C_12
REMARK    3  A    between atoms: C_13  and  C_16
REMARK    4  A    between atoms: N_15  and  C_18
REMARK    5  A    between atoms: C_18  and  C_20
REMARK    6  A    between atoms: C_29  and  O_30
REMARK    7  A    between atoms: O_30  and  P_31
REMARK    8  A    between atoms: P_31  and  O_33
REMARK    9  A    between atoms: P_31  and  O_35
REMARK                            x       y       z     vdW  Elec       q    Type
REMARK                         _______ _______ _______ _____ _____    ______ ____
ROOT
ATOM      1  O   UNL     1      32.435  -2.916 -24.885  0.00  0.00    -0.274 OA
ATOM      2  N   UNL     1      33.031  -5.101 -24.340  0.00  0.00    -0.217 N 
ATOM      3  N   UNL     1      33.624  -7.329 -23.652  0.00  0.00    -0.229 NA
ATOM      4  C   UNL     1      30.573  -5.243 -22.905  0.00  0.00    +0.039 C 
ATOM      5  C   UNL     1      31.563  -6.364 -22.863  0.00  0.00    +0.010 C 
ATOM      6  C   UNL     1      31.297  -3.920 -23.052  0.00  0.00    +0.090 C 
ATOM      7  C   UNL     1      32.749  -6.291 -23.598  0.00  0.00    +0.135 C 
ATOM      8  C   UNL     1      32.280  -3.931 -24.203  0.00  0.00    +0.233 C 
ATOM      9  C   UNL     1      31.281  -7.542 -22.166  0.00  0.00    +0.000 C 
ATOM     10  C   UNL     1      32.177  -8.602 -22.200  0.00  0.00    +0.019 C 
ATOM     11  C   UNL     1      33.324  -8.446 -22.953  0.00  0.00    +0.100 C 
ENDROOT
BRANCH  10  12
ATOM     12  C   UNL     1      31.925  -9.824 -21.460  0.00  0.00    +0.006 C 
ATOM     13  C   UNL     1      32.335 -11.061 -21.829  0.00  0.00    +0.058 C 
BRANCH  13  16
ATOM     14  O   UNL     1      30.984 -12.219 -20.277  0.00  0.00    -0.270 OA
ATOM     15  N   UNL     1      32.825 -13.358 -21.121  0.00  0.00    -0.267 N 
ATOM     16  C   UNL     1      31.983 -12.250 -20.998  0.00  0.00    +0.250 C 
ATOM     17  C   UNL     1      32.530 -14.569 -20.365  0.00  0.00    +0.116 C 
BRANCH  15  18
ATOM     18  C   UNL     1      33.995 -13.432 -21.994  0.00  0.00    +0.158 C 
BRANCH  18  20
ATOM     19  O   UNL     1      34.832 -15.622 -21.367  0.00  0.00    -0.456 OA
ATOM     20  C   UNL     1      34.330 -14.848 -22.365  0.00  0.00    +0.139 A 
ATOM     21  C   UNL     1      34.237 -15.564 -23.536  0.00  0.00    +0.013 A 
ATOM     22  C   UNL     1      34.714 -16.870 -23.247  0.00  0.00    +0.033 A 
ATOM     23  C   UNL     1      35.068 -16.853 -21.902  0.00  0.00    +0.145 A 
ATOM     24  C   UNL     1      33.739 -15.069 -24.834  0.00  0.00    +0.034 C 
ATOM     25  C   UNL     1      34.886 -18.061 -23.972  0.00  0.00    +0.003 C 
ATOM     26  C   UNL     1      35.586 -17.950 -21.217  0.00  0.00    +0.037 C 
ATOM     27  C   UNL     1      35.405 -19.182 -23.311  0.00  0.00    +0.000 C 
ATOM     28  C   UNL     1      35.749 -19.125 -21.958  0.00  0.00    +0.003 C 
ENDBRANCH  18  20
ENDBRANCH  15  18
ENDBRANCH  13  16
ENDBRANCH  10  12
BRANCH   2  29
ATOM     29  C   UNL     1      34.152  -5.147 -25.274  0.00  0.00    +0.257 C 
BRANCH  29  30
ATOM     30  O   UNL     1      33.647  -5.116 -26.596  0.00  0.00    -0.251 OA
BRANCH  30  31
ATOM     31  P   UNL     1      34.406  -4.193 -27.688  0.00  0.00    +0.475 P 
ATOM     32  O   UNL     1      33.755  -4.120 -29.038  0.00  0.00    -0.227 OA
BRANCH  31  33
ATOM     33  O   UNL     1      35.913  -4.779 -27.686  0.00  0.00    -0.303 OA
ATOM     34  H   UNL     1      36.443  -4.305 -27.026  0.00  0.00    +0.222 HD
ENDBRANCH  31  33
BRANCH  31  35
ATOM     35  O   UNL     1      34.567  -2.768 -26.938  0.00  0.00    -0.303 OA
ATOM     36  H   UNL     1      33.969  -2.120 -27.340  0.00  0.00    +0.222 HD
ENDBRANCH  31  35
ENDBRANCH  30  31
ENDBRANCH  29  30
ENDBRANCH   2  29
TORSDOF 9
ENDMDL
MODEL 8
REMARK VINA RESULT:      -9.8      4.130      7.694
REMARK  Name = 72696796
REMARK  9 active torsions:
REMARK  status: ('A' for Active; 'I' for Inactive)
REMARK    1  A    between atoms: N_2  and  C_29
REMARK    2  A    between atoms: C_10  and  C_12
REMARK    3  A    between atoms: C_13  and  C_16
REMARK    4  A    between atoms: N_15  and  C_18
REMARK    5  A    between atoms: C_18  and  C_20
REMARK    6  A    between atoms: C_29  and  O_30
REMARK    7  A    between atoms: O_30  and  P_31
REMARK    8  A    between atoms: P_31  and  O_33
REMARK    9  A    between atoms: P_31  and  O_35
REMARK                            x       y       z     vdW  Elec       q    Type
REMARK                         _______ _______ _______ _____ _____    ______ ____
ROOT
ATOM      1  O   UNL     1      34.287  -3.137 -27.940  0.00  0.00    -0.274 OA
ATOM      2  N   UNL     1      34.792  -4.756 -26.342  0.00  0.00    -0.217 N 
ATOM      3  N   UNL     1      35.282  -6.341 -24.599  0.00  0.00    -0.229 NA
ATOM      4  C   UNL     1      32.236  -4.203 -25.208  0.00  0.00    +0.039 C 
ATOM      5  C   UNL     1      33.194  -5.141 -24.545  0.00  0.00    +0.010 C 
ATOM      6  C   UNL     1      32.999  -3.117 -25.938  0.00  0.00    +0.090 C 
ATOM      7  C   UNL     1      34.430  -5.425 -25.130  0.00  0.00    +0.135 C 
ATOM      8  C   UNL     1      34.061  -3.683 -26.858  0.00  0.00    +0.233 C 
ATOM      9  C   UNL     1      32.836  -5.823 -23.377  0.00  0.00    +0.000 C 
ATOM     10  C   UNL     1      33.706  -6.747 -22.817  0.00  0.00    +0.019 C 
ATOM     11  C   UNL     1      34.907  -6.968 -23.462  0.00  0.00    +0.100 C 
ENDROOT
BRANCH  10  12
ATOM     12  C   UNL     1      33.373  -7.445 -21.589  0.00  0.00    +0.006 C 
ATOM     13  C   UNL     1      32.317  -8.275 -21.423  0.00  0.00    +0.058 C 
BRANCH  13  16
ATOM     14  O   UNL     1      32.306  -8.289 -19.062  0.00  0.00    -0.270 OA
ATOM     15  N   UNL     1      31.517 -10.199 -20.126  0.00  0.00    -0.267 N 
ATOM     16  C   UNL     1      32.060  -8.911 -20.097  0.00  0.00    +0.250 C 
ATOM     17  C   UNL     1      31.210 -10.874 -18.872  0.00  0.00    +0.116 C 
BRANCH  15  18
ATOM     18  C   UNL     1      31.185 -10.943 -21.339  0.00  0.00    +0.158 C 
BRANCH  18  20
ATOM     19  O   UNL     1      32.041 -13.115 -20.678  0.00  0.00    -0.456 OA
ATOM     20  C   UNL     1      32.125 -12.092 -21.568  0.00  0.00    +0.139 A 
ATOM     21  C   UNL     1      33.089 -12.347 -22.515  0.00  0.00    +0.013 A 
ATOM     22  C   UNL     1      33.642 -13.615 -22.192  0.00  0.00    +0.033 A 
ATOM     23  C   UNL     1      32.964 -14.044 -21.055  0.00  0.00    +0.145 A 
ATOM     24  C   UNL     1      33.470 -11.475 -23.642  0.00  0.00    +0.034 C 
ATOM     25  C   UNL     1      34.639 -14.444 -22.733  0.00  0.00    +0.003 C 
ATOM     26  C   UNL     1      33.209 -15.254 -20.411  0.00  0.00    +0.037 C 
ATOM     27  C   UNL     1      34.908 -15.669 -22.107  0.00  0.00    +0.000 C 
ATOM     28  C   UNL     1      34.204 -16.064 -20.966  0.00  0.00    +0.003 C 
ENDBRANCH  18  20
ENDBRANCH  15  18
ENDBRANCH  13  16
ENDBRANCH  10  12
BRANCH   2  29
ATOM     29  C   UNL     1      35.974  -5.243 -27.045  0.00  0.00    +0.257 C 
BRANCH  29  30
ATOM     30  O   UNL     1      37.063  -4.386 -26.759  0.00  0.00    -0.251 OA
BRANCH  30  31
ATOM     31  P   UNL     1      38.046  -3.959 -27.971  0.00  0.00    +0.475 P 
ATOM     32  O   UNL     1      39.284  -3.212 -27.568  0.00  0.00    -0.227 OA
BRANCH  31  33
ATOM     33  O   UNL     1      37.066  -3.164 -28.982  0.00  0.00    -0.303 OA
ATOM     34  H   UNL     1      36.707  -3.782 -29.638  0.00  0.00    +0.222 HD
ENDBRANCH  31  33
BRANCH  31  35
ATOM     35  O   UNL     1      38.320  -5.351 -28.750  0.00  0.00    -0.303 OA
ATOM     36  H   UNL     1      39.187  -5.315 -29.183  0.00  0.00    +0.222 HD
ENDBRANCH  31  35
ENDBRANCH  30  31
ENDBRANCH  29  30
ENDBRANCH   2  29
TORSDOF 9
ENDMDL
MODEL 9
REMARK VINA RESULT:      -9.7      3.565     11.191
REMARK  Name = 72696796
REMARK  9 active torsions:
REMARK  status: ('A' for Active; 'I' for Inactive)
REMARK    1  A    between atoms: N_2  and  C_29
REMARK    2  A    between atoms: C_10  and  C_12
REMARK    3  A    between atoms: C_13  and  C_16
REMARK    4  A    between atoms: N_15  and  C_18
REMARK    5  A    between atoms: C_18  and  C_20
REMARK    6  A    between atoms: C_29  and  O_30
REMARK    7  A    between atoms: O_30  and  P_31
REMARK    8  A    between atoms: P_31  and  O_33
REMARK    9  A    between atoms: P_31  and  O_35
REMARK                            x       y       z     vdW  Elec       q    Type
REMARK                         _______ _______ _______ _____ _____    ______ ____
ROOT
ATOM      1  O   UNL     1      35.051 -18.633 -24.605  0.00  0.00    -0.274 OA
ATOM      2  N   UNL     1      34.695 -17.315 -22.717  0.00  0.00    -0.217 N 
ATOM      3  N   UNL     1      34.401 -15.860 -20.823  0.00  0.00    -0.229 NA
ATOM      4  C   UNL     1      33.885 -15.251 -24.509  0.00  0.00    +0.039 C 
ATOM      5  C   UNL     1      34.004 -15.001 -23.038  0.00  0.00    +0.010 C 
ATOM      6  C   UNL     1      34.908 -16.281 -24.942  0.00  0.00    +0.090 C 
ATOM      7  C   UNL     1      34.372 -16.032 -22.171  0.00  0.00    +0.135 C 
ATOM      8  C   UNL     1      34.860 -17.530 -24.088  0.00  0.00    +0.233 C 
ATOM      9  C   UNL     1      33.661 -13.760 -22.493  0.00  0.00    +0.000 C 
ATOM     10  C   UNL     1      33.704 -13.569 -21.119  0.00  0.00    +0.019 C 
ATOM     11  C   UNL     1      34.076 -14.642 -20.334  0.00  0.00    +0.100 C 
ENDROOT
BRANCH  10  12
ATOM     12  C   UNL     1      33.383 -12.283 -20.528  0.00  0.00    +0.006 C 
ATOM     13  C   UNL     1      32.204 -11.962 -19.945  0.00  0.00    +0.058 C 
BRANCH  13  16
ATOM     14  O   UNL     1      32.100 -10.384 -18.191  0.00  0.00    -0.270 OA
ATOM     15  N   UNL     1      31.672  -9.599 -20.337  0.00  0.00    -0.267 N 
ATOM     16  C   UNL     1      31.982 -10.590 -19.401  0.00  0.00    +0.250 C 
ATOM     17  C   UNL     1      31.471  -8.228 -19.887  0.00  0.00    +0.116 C 
BRANCH  15  18
ATOM     18  C   UNL     1      31.561  -9.811 -21.778  0.00  0.00    +0.158 C 
BRANCH  18  20
ATOM     19  O   UNL     1      33.564  -8.760 -22.657  0.00  0.00    -0.456 OA
ATOM     20  C   UNL     1      32.209  -8.704 -22.560  0.00  0.00    +0.139 A 
ATOM     21  C   UNL     1      31.718  -7.604 -23.223  0.00  0.00    +0.013 A 
ATOM     22  C   UNL     1      32.842  -6.931 -23.770  0.00  0.00    +0.033 A 
ATOM     23  C   UNL     1      33.952  -7.681 -23.393  0.00  0.00    +0.145 A 
ATOM     24  C   UNL     1      30.303  -7.207 -23.342  0.00  0.00    +0.034 C 
ATOM     25  C   UNL     1      33.044  -5.773 -24.540  0.00  0.00    +0.003 C 
ATOM     26  C   UNL     1      35.264  -7.358 -23.732  0.00  0.00    +0.037 C 
ATOM     27  C   UNL     1      34.354  -5.422 -24.897  0.00  0.00    +0.000 C 
ATOM     28  C   UNL     1      35.442  -6.202 -24.498  0.00  0.00    +0.003 C 
ENDBRANCH  18  20
ENDBRANCH  15  18
ENDBRANCH  13  16
ENDBRANCH  10  12
BRANCH   2  29
ATOM     29  C   UNL     1      34.845 -18.421 -21.778  0.00  0.00    +0.257 C 
BRANCH  29  30
ATOM     30  O   UNL     1      35.841 -18.086 -20.830  0.00  0.00    -0.251 OA
BRANCH  30  31
ATOM     31  P   UNL     1      37.122 -19.063 -20.681  0.00  0.00    +0.475 P 
ATOM     32  O   UNL     1      36.807 -20.516 -20.471  0.00  0.00    -0.227 OA
BRANCH  31  33
ATOM     33  O   UNL     1      37.981 -18.372 -19.499  0.00  0.00    -0.303 OA
ATOM     34  H   UNL     1      37.462 -17.657 -19.097  0.00  0.00    +0.222 HD
ENDBRANCH  31  33
BRANCH  31  35
ATOM     35  O   UNL     1      38.001 -18.746 -22.003  0.00  0.00    -0.303 OA
ATOM     36  H   UNL     1      38.421 -17.877 -21.912  0.00  0.00    +0.222 HD
ENDBRANCH  31  35
ENDBRANCH  30  31
ENDBRANCH  29  30
ENDBRANCH   2  29
TORSDOF 9
ENDMDL
