MODEL 1
REMARK VINA RESULT:     -11.1      0.000      0.000
REMARK  Name = 42627769
REMARK  10 active torsions:
REMARK  status: ('A' for Active; 'I' for Inactive)
REMARK    1  A    between atoms: C_1  and  C_3
REMARK    2  A    between atoms: C_1  and  N_6
REMARK    3  A    between atoms: C_1  and  C_22
REMARK    4  A    between atoms: C_3  and  O_4
REMARK    5  A    between atoms: N_6  and  S_8
REMARK    6  A    between atoms: S_8  and  C_11
REMARK    7  A    between atoms: C_16  and  O_17
REMARK    8  A    between atoms: O_17  and  C_18
REMARK    9  A    between atoms: C_18  and  C_19
REMARK   10  A    between atoms: C_22  and  C_24
REMARK                            x       y       z     vdW  Elec       q    Type
REMARK                         _______ _______ _______ _____ _____    ______ ____
ROOT
ATOM      1  C   UNL     1      34.748 -23.536 -16.042  0.00  0.00    +0.178 C 
ENDROOT
BRANCH   1   3
ATOM      2  O   UNL     1      36.773 -22.886 -14.857  0.00  0.00    -0.249 OA
ATOM      3  C   UNL     1      36.087 -23.757 -15.376  0.00  0.00    +0.330 C 
BRANCH   3   4
ATOM      4  O   UNL     1      36.459 -25.064 -15.410  0.00  0.00    -0.479 OA
ATOM      5  H   UNL     1      35.812 -25.738 -15.333  0.00  0.00    +0.295 HD
ENDBRANCH   3   4
ENDBRANCH   1   3
BRANCH   1   6
ATOM      6  N   UNL     1      34.983 -22.642 -17.201  0.00  0.00    -0.170 NA
ATOM      7  H   UNL     1      35.010 -21.690 -16.839  0.00  0.00    +0.149 HD
BRANCH   6   8
ATOM      8  S   UNL     1      33.893 -22.641 -18.502  0.00  0.00    +0.061 S 
ATOM      9  O   UNL     1      32.587 -22.212 -18.039  0.00  0.00    -0.153 OA
ATOM     10  O   UNL     1      34.035 -23.887 -19.232  0.00  0.00    -0.153 OA
BRANCH   8  11
ATOM     11  C   UNL     1      34.552 -21.363 -19.530  0.00  0.00    +0.122 C 
ATOM     12  C   UNL     1      35.933 -21.194 -19.631  0.00  0.00    +0.023 C 
ATOM     13  C   UNL     1      33.693 -20.522 -20.237  0.00  0.00    +0.023 C 
ATOM     14  C   UNL     1      36.454 -20.184 -20.439  0.00  0.00    +0.038 C 
ATOM     15  C   UNL     1      34.214 -19.512 -21.045  0.00  0.00    +0.038 C 
ATOM     16  C   UNL     1      35.595 -19.343 -21.147  0.00  0.00    +0.140 C 
BRANCH  16  17
ATOM     17  O   UNL     1      36.104 -18.358 -21.935  0.00  0.00    -0.461 OA
BRANCH  17  18
ATOM     18  C   UNL     1      35.371 -18.024 -23.113  0.00  0.00    +0.281 C 
BRANCH  18  19
ATOM     19  C   UNL     1      35.041 -16.600 -23.102  0.00  0.00    -0.044 C 
ATOM     20  C   UNL     1      34.766 -15.431 -23.091  0.00  0.00    -0.086 C 
ATOM     21  C   UNL     1      34.434 -14.007 -23.077  0.00  0.00    +0.090 C 
ENDBRANCH  18  19
ENDBRANCH  17  18
ENDBRANCH  16  17
ENDBRANCH   8  11
ENDBRANCH   6   8
ENDBRANCH   1   6
BRANCH   1  22
ATOM     22  C   UNL     1      33.729 -22.881 -15.086  0.00  0.00    +0.056 C 
BRANCH  22  24
ATOM     23  N   UNL     1      31.928 -25.440 -13.204  0.00  0.00    -0.312 N 
ATOM     24  C   UNL     1      32.778 -23.835 -14.480  0.00  0.00    -0.004 C 
ATOM     25  C   UNL     1      31.401 -23.980 -14.806  0.00  0.00    +0.010 C 
ATOM     26  C   UNL     1      30.892 -24.993 -13.991  0.00  0.00    +0.048 C 
ATOM     27  C   UNL     1      33.073 -24.745 -13.492  0.00  0.00    +0.058 C 
ATOM     28  C   UNL     1      30.536 -23.345 -15.720  0.00  0.00    -0.003 C 
ATOM     29  C   UNL     1      29.555 -25.406 -14.045  0.00  0.00    +0.014 C 
ATOM     30  C   UNL     1      29.197 -23.747 -15.784  0.00  0.00    -0.022 C 
ATOM     31  C   UNL     1      28.716 -24.761 -14.958  0.00  0.00    -0.003 C 
ATOM     32  C   UNL     1      28.275 -23.078 -16.749  0.00  0.00    +0.031 C 
ATOM     33  H   UNL     1      31.858 -26.155 -12.531  0.00  0.00    +0.152 HD
ENDBRANCH  22  24
ENDBRANCH   1  22
TORSDOF 10
ENDMDL
MODEL 2
REMARK VINA RESULT:     -10.3      8.649     15.688
REMARK  Name = 42627769
REMARK  10 active torsions:
REMARK  status: ('A' for Active; 'I' for Inactive)
REMARK    1  A    between atoms: C_1  and  C_3
REMARK    2  A    between atoms: C_1  and  N_6
REMARK    3  A    between atoms: C_1  and  C_22
REMARK    4  A    between atoms: C_3  and  O_4
REMARK    5  A    between atoms: N_6  and  S_8
REMARK    6  A    between atoms: S_8  and  C_11
REMARK    7  A    between atoms: C_16  and  O_17
REMARK    8  A    between atoms: O_17  and  C_18
REMARK    9  A    between atoms: C_18  and  C_19
REMARK   10  A    between atoms: C_22  and  C_24
REMARK                            x       y       z     vdW  Elec       q    Type
REMARK                         _______ _______ _______ _____ _____    ______ ____
ROOT
ATOM      1  C   UNL     1      31.736  -8.401 -21.387  0.00  0.00    +0.178 C 
ENDROOT
BRANCH   1   3
ATOM      2  O   UNL     1      33.943  -7.421 -21.694  0.00  0.00    -0.249 OA
ATOM      3  C   UNL     1      33.052  -7.803 -20.946  0.00  0.00    +0.330 C 
BRANCH   3   4
ATOM      4  O   UNL     1      33.145  -7.725 -19.592  0.00  0.00    -0.479 OA
ATOM      5  H   UNL     1      33.755  -7.133 -19.197  0.00  0.00    +0.295 HD
ENDBRANCH   3   4
ENDBRANCH   1   3
BRANCH   1   6
ATOM      6  N   UNL     1      31.981  -9.838 -21.654  0.00  0.00    -0.170 NA
ATOM      7  H   UNL     1      31.462 -10.075 -22.498  0.00  0.00    +0.149 HD
BRANCH   6   8
ATOM      8  S   UNL     1      31.569 -10.998 -20.483  0.00  0.00    +0.061 S 
ATOM      9  O   UNL     1      30.133 -11.199 -20.486  0.00  0.00    -0.153 OA
ATOM     10  O   UNL     1      32.259 -10.679 -19.247  0.00  0.00    -0.153 OA
BRANCH   8  11
ATOM     11  C   UNL     1      32.325 -12.457 -21.134  0.00  0.00    +0.122 C 
ATOM     12  C   UNL     1      32.433 -13.599 -20.341  0.00  0.00    +0.023 C 
ATOM     13  C   UNL     1      32.815 -12.466 -22.440  0.00  0.00    +0.023 C 
ATOM     14  C   UNL     1      33.031 -14.750 -20.853  0.00  0.00    +0.038 C 
ATOM     15  C   UNL     1      33.414 -13.617 -22.952  0.00  0.00    +0.038 C 
ATOM     16  C   UNL     1      33.521 -14.759 -22.159  0.00  0.00    +0.140 C 
BRANCH  16  17
ATOM     17  O   UNL     1      34.106 -15.882 -22.658  0.00  0.00    -0.461 OA
BRANCH  17  18
ATOM     18  C   UNL     1      35.294 -16.338 -22.013  0.00  0.00    +0.281 C 
BRANCH  18  19
ATOM     19  C   UNL     1      35.094 -17.698 -21.516  0.00  0.00    -0.044 C 
ATOM     20  C   UNL     1      34.934 -18.816 -21.106  0.00  0.00    -0.086 C 
ATOM     21  C   UNL     1      34.736 -20.176 -20.607  0.00  0.00    +0.090 C 
ENDBRANCH  18  19
ENDBRANCH  17  18
ENDBRANCH  16  17
ENDBRANCH   8  11
ENDBRANCH   6   8
ENDBRANCH   1   6
BRANCH   1  22
ATOM     22  C   UNL     1      31.194  -7.726 -22.664  0.00  0.00    +0.056 C 
BRANCH  22  24
ATOM     23  N   UNL     1      30.404  -4.264 -21.816  0.00  0.00    -0.312 N 
ATOM     24  C   UNL     1      31.034  -6.263 -22.546  0.00  0.00    -0.004 C 
ATOM     25  C   UNL     1      31.606  -5.277 -23.399  0.00  0.00    +0.010 C 
ATOM     26  C   UNL     1      31.195  -4.032 -22.918  0.00  0.00    +0.048 C 
ATOM     27  C   UNL     1      30.302  -5.609 -21.582  0.00  0.00    +0.058 C 
ATOM     28  C   UNL     1      32.434  -5.325 -24.537  0.00  0.00    -0.003 C 
ATOM     29  C   UNL     1      31.572  -2.827 -23.522  0.00  0.00    +0.014 C 
ATOM     30  C   UNL     1      32.821  -4.128 -25.151  0.00  0.00    -0.022 C 
ATOM     31  C   UNL     1      32.396  -2.900 -24.649  0.00  0.00    -0.003 C 
ATOM     32  C   UNL     1      33.700  -4.171 -26.357  0.00  0.00    +0.031 C 
ATOM     33  H   UNL     1      29.975  -3.564 -21.272  0.00  0.00    +0.152 HD
ENDBRANCH  22  24
ENDBRANCH   1  22
TORSDOF 10
ENDMDL
MODEL 3
REMARK VINA RESULT:     -10.1      3.236     10.852
REMARK  Name = 42627769
REMARK  10 active torsions:
REMARK  status: ('A' for Active; 'I' for Inactive)
REMARK    1  A    between atoms: C_1  and  C_3
REMARK    2  A    between atoms: C_1  and  N_6
REMARK    3  A    between atoms: C_1  and  C_22
REMARK    4  A    between atoms: C_3  and  O_4
REMARK    5  A    between atoms: N_6  and  S_8
REMARK    6  A    between atoms: S_8  and  C_11
REMARK    7  A    between atoms: C_16  and  O_17
REMARK    8  A    between atoms: O_17  and  C_18
REMARK    9  A    between atoms: C_18  and  C_19
REMARK   10  A    between atoms: C_22  and  C_24
REMARK                            x       y       z     vdW  Elec       q    Type
REMARK                         _______ _______ _______ _____ _____    ______ ____
ROOT
ATOM      1  C   UNL     1      34.390 -16.493 -21.536  0.00  0.00    +0.178 C 
ENDROOT
BRANCH   1   3
ATOM      2  O   UNL     1      34.741 -14.375 -20.388  0.00  0.00    -0.249 OA
ATOM      3  C   UNL     1      34.021 -15.332 -20.640  0.00  0.00    +0.330 C 
BRANCH   3   4
ATOM      4  O   UNL     1      32.766 -15.463 -20.133  0.00  0.00    -0.479 OA
ATOM      5  H   UNL     1      32.195 -14.721 -20.099  0.00  0.00    +0.295 HD
ENDBRANCH   3   4
ENDBRANCH   1   3
BRANCH   1   6
ATOM      6  N   UNL     1      34.999 -17.531 -20.670  0.00  0.00    -0.170 NA
ATOM      7  H   UNL     1      35.711 -17.066 -20.109  0.00  0.00    +0.149 HD
BRANCH   6   8
ATOM      8  S   UNL     1      35.736 -18.891 -21.372  0.00  0.00    +0.061 S 
ATOM      9  O   UNL     1      37.162 -18.856 -21.110  0.00  0.00    -0.153 OA
ATOM     10  O   UNL     1      35.246 -19.040 -22.729  0.00  0.00    -0.153 OA
BRANCH   8  11
ATOM     11  C   UNL     1      35.041 -20.211 -20.425  0.00  0.00    +0.122 C 
ATOM     12  C   UNL     1      33.656 -20.344 -20.326  0.00  0.00    +0.023 C 
ATOM     13  C   UNL     1      35.877 -21.119 -19.774  0.00  0.00    +0.023 C 
ATOM     14  C   UNL     1      33.107 -21.384 -19.577  0.00  0.00    +0.038 C 
ATOM     15  C   UNL     1      35.327 -22.159 -19.025  0.00  0.00    +0.038 C 
ATOM     16  C   UNL     1      33.942 -22.292 -18.926  0.00  0.00    +0.140 C 
BRANCH  16  17
ATOM     17  O   UNL     1      33.406 -23.306 -18.195  0.00  0.00    -0.461 OA
BRANCH  17  18
ATOM     18  C   UNL     1      33.392 -23.149 -16.777  0.00  0.00    +0.281 C 
BRANCH  18  19
ATOM     19  C   UNL     1      32.012 -23.054 -16.305  0.00  0.00    -0.044 C 
ATOM     20  C   UNL     1      30.876 -22.979 -15.919  0.00  0.00    -0.086 C 
ATOM     21  C   UNL     1      29.496 -22.886 -15.448  0.00  0.00    +0.090 C 
ENDBRANCH  18  19
ENDBRANCH  17  18
ENDBRANCH  16  17
ENDBRANCH   8  11
ENDBRANCH   6   8
ENDBRANCH   1   6
BRANCH   1  22
ATOM     22  C   UNL     1      35.397 -16.081 -22.630  0.00  0.00    +0.056 C 
BRANCH  22  24
ATOM     23  N   UNL     1      33.899 -15.791 -25.948  0.00  0.00    -0.312 N 
ATOM     24  C   UNL     1      34.766 -15.689 -23.907  0.00  0.00    -0.004 C 
ATOM     25  C   UNL     1      34.346 -14.381 -24.278  0.00  0.00    +0.010 C 
ATOM     26  C   UNL     1      33.807 -14.473 -25.562  0.00  0.00    +0.048 C 
ATOM     27  C   UNL     1      34.477 -16.534 -24.953  0.00  0.00    +0.058 C 
ATOM     28  C   UNL     1      34.376 -13.124 -23.643  0.00  0.00    -0.003 C 
ATOM     29  C   UNL     1      33.293 -13.366 -26.247  0.00  0.00    +0.014 C 
ATOM     30  C   UNL     1      33.865 -12.008 -24.315  0.00  0.00    -0.022 C 
ATOM     31  C   UNL     1      33.332 -12.129 -25.596  0.00  0.00    -0.003 C 
ATOM     32  C   UNL     1      33.891 -10.672 -23.647  0.00  0.00    +0.031 C 
ATOM     33  H   UNL     1      33.593 -16.149 -26.813  0.00  0.00    +0.152 HD
ENDBRANCH  22  24
ENDBRANCH   1  22
TORSDOF 10
ENDMDL
MODEL 4
REMARK VINA RESULT:      -9.8      2.081      4.343
REMARK  Name = 42627769
REMARK  10 active torsions:
REMARK  status: ('A' for Active; 'I' for Inactive)
REMARK    1  A    between atoms: C_1  and  C_3
REMARK    2  A    between atoms: C_1  and  N_6
REMARK    3  A    between atoms: C_1  and  C_22
REMARK    4  A    between atoms: C_3  and  O_4
REMARK    5  A    between atoms: N_6  and  S_8
REMARK    6  A    between atoms: S_8  and  C_11
REMARK    7  A    between atoms: C_16  and  O_17
REMARK    8  A    between atoms: O_17  and  C_18
REMARK    9  A    between atoms: C_18  and  C_19
REMARK   10  A    between atoms: C_22  and  C_24
REMARK                            x       y       z     vdW  Elec       q    Type
REMARK                         _______ _______ _______ _____ _____    ______ ____
ROOT
ATOM      1  C   UNL     1      31.731 -22.853 -16.040  0.00  0.00    +0.178 C 
ENDROOT
BRANCH   1   3
ATOM      2  O   UNL     1      29.493 -22.369 -16.869  0.00  0.00    -0.249 OA
ATOM      3  C   UNL     1      30.221 -22.930 -16.060  0.00  0.00    +0.330 C 
BRANCH   3   4
ATOM      4  O   UNL     1      29.742 -23.715 -15.059  0.00  0.00    -0.479 OA
ATOM      5  H   UNL     1      29.436 -24.580 -15.247  0.00  0.00    +0.295 HD
ENDBRANCH   3   4
ENDBRANCH   1   3
BRANCH   1   6
ATOM      6  N   UNL     1      32.168 -22.578 -17.429  0.00  0.00    -0.170 NA
ATOM      7  H   UNL     1      31.532 -23.083 -18.045  0.00  0.00    +0.149 HD
BRANCH   6   8
ATOM      8  S   UNL     1      33.745 -22.982 -17.915  0.00  0.00    +0.061 S 
ATOM      9  O   UNL     1      33.725 -24.252 -18.615  0.00  0.00    -0.153 OA
ATOM     10  O   UNL     1      34.645 -22.781 -16.794  0.00  0.00    -0.153 OA
BRANCH   8  11
ATOM     11  C   UNL     1      34.099 -21.715 -19.094  0.00  0.00    +0.122 C 
ATOM     12  C   UNL     1      33.057 -21.006 -19.689  0.00  0.00    +0.023 C 
ATOM     13  C   UNL     1      35.421 -21.426 -19.432  0.00  0.00    +0.023 C 
ATOM     14  C   UNL     1      33.335 -20.007 -20.622  0.00  0.00    +0.038 C 
ATOM     15  C   UNL     1      35.700 -20.427 -20.365  0.00  0.00    +0.038 C 
ATOM     16  C   UNL     1      34.657 -19.717 -20.960  0.00  0.00    +0.140 C 
BRANCH  16  17
ATOM     17  O   UNL     1      34.929 -18.743 -21.871  0.00  0.00    -0.461 OA
BRANCH  17  18
ATOM     18  C   UNL     1      35.672 -17.615 -21.413  0.00  0.00    +0.281 C 
BRANCH  18  19
ATOM     19  C   UNL     1      34.757 -16.526 -21.075  0.00  0.00    -0.044 C 
ATOM     20  C   UNL     1      34.004 -15.633 -20.796  0.00  0.00    -0.086 C 
ATOM     21  C   UNL     1      33.089 -14.545 -20.455  0.00  0.00    +0.090 C 
ENDBRANCH  18  19
ENDBRANCH  17  18
ENDBRANCH  16  17
ENDBRANCH   8  11
ENDBRANCH   6   8
ENDBRANCH   1   6
BRANCH   1  22
ATOM     22  C   UNL     1      32.370 -24.170 -15.552  0.00  0.00    +0.056 C 
BRANCH  22  24
ATOM     23  N   UNL     1      33.544 -23.514 -12.157  0.00  0.00    -0.312 N 
ATOM     24  C   UNL     1      33.074 -24.050 -14.259  0.00  0.00    -0.004 C 
ATOM     25  C   UNL     1      34.357 -24.578 -13.941  0.00  0.00    +0.010 C 
ATOM     26  C   UNL     1      34.627 -24.228 -12.617  0.00  0.00    +0.048 C 
ATOM     27  C   UNL     1      32.600 -23.402 -13.142  0.00  0.00    +0.058 C 
ATOM     28  C   UNL     1      35.316 -25.322 -14.656  0.00  0.00    -0.003 C 
ATOM     29  C   UNL     1      35.814 -24.586 -11.968  0.00  0.00    +0.014 C 
ATOM     30  C   UNL     1      36.508 -25.687 -14.020  0.00  0.00    -0.022 C 
ATOM     31  C   UNL     1      36.751 -25.325 -12.697  0.00  0.00    -0.003 C 
ATOM     32  C   UNL     1      37.529 -26.477 -14.770  0.00  0.00    +0.031 C 
ATOM     33  H   UNL     1      33.459 -23.139 -11.250  0.00  0.00    +0.152 HD
ENDBRANCH  22  24
ENDBRANCH   1  22
TORSDOF 10
ENDMDL
MODEL 5
REMARK VINA RESULT:      -9.8      3.648     10.711
REMARK  Name = 42627769
REMARK  10 active torsions:
REMARK  status: ('A' for Active; 'I' for Inactive)
REMARK    1  A    between atoms: C_1  and  C_3
REMARK    2  A    between atoms: C_1  and  N_6
REMARK    3  A    between atoms: C_1  and  C_22
REMARK    4  A    between atoms: C_3  and  O_4
REMARK    5  A    between atoms: N_6  and  S_8
REMARK    6  A    between atoms: S_8  and  C_11
REMARK    7  A    between atoms: C_16  and  O_17
REMARK    8  A    between atoms: O_17  and  C_18
REMARK    9  A    between atoms: C_18  and  C_19
REMARK   10  A    between atoms: C_22  and  C_24
REMARK                            x       y       z     vdW  Elec       q    Type
REMARK                         _______ _______ _______ _____ _____    ______ ____
ROOT
ATOM      1  C   UNL     1      34.729 -16.088 -21.834  0.00  0.00    +0.178 C 
ENDROOT
BRANCH   1   3
ATOM      2  O   UNL     1      34.108 -16.709 -24.105  0.00  0.00    -0.249 OA
ATOM      3  C   UNL     1      34.948 -16.299 -23.315  0.00  0.00    +0.330 C 
BRANCH   3   4
ATOM      4  O   UNL     1      36.213 -15.971 -23.691  0.00  0.00    -0.479 OA
ATOM      5  H   UNL     1      36.904 -15.968 -23.059  0.00  0.00    +0.295 HD
ENDBRANCH   3   4
ENDBRANCH   1   3
BRANCH   1   6
ATOM      6  N   UNL     1      34.558 -17.429 -21.227  0.00  0.00    -0.170 NA
ATOM      7  H   UNL     1      34.438 -17.286 -20.225  0.00  0.00    +0.149 HD
BRANCH   6   8
ATOM      8  S   UNL     1      35.771 -18.602 -21.414  0.00  0.00    +0.061 S 
ATOM      9  O   UNL     1      36.967 -18.178 -20.712  0.00  0.00    -0.153 OA
ATOM     10  O   UNL     1      35.842 -18.982 -22.813  0.00  0.00    -0.153 OA
BRANCH   8  11
ATOM     11  C   UNL     1      35.086 -19.978 -20.541  0.00  0.00    +0.122 C 
ATOM     12  C   UNL     1      33.702 -20.138 -20.469  0.00  0.00    +0.023 C 
ATOM     13  C   UNL     1      35.928 -20.901 -19.921  0.00  0.00    +0.023 C 
ATOM     14  C   UNL     1      33.161 -21.222 -19.777  0.00  0.00    +0.038 C 
ATOM     15  C   UNL     1      35.386 -21.984 -19.229  0.00  0.00    +0.038 C 
ATOM     16  C   UNL     1      34.003 -22.145 -19.158  0.00  0.00    +0.140 C 
BRANCH  16  17
ATOM     17  O   UNL     1      33.474 -23.202 -18.483  0.00  0.00    -0.461 OA
BRANCH  17  18
ATOM     18  C   UNL     1      33.593 -23.190 -17.061  0.00  0.00    +0.281 C 
BRANCH  18  19
ATOM     19  C   UNL     1      32.266 -23.093 -16.456  0.00  0.00    -0.044 C 
ATOM     20  C   UNL     1      31.174 -23.011 -15.962  0.00  0.00    -0.086 C 
ATOM     21  C   UNL     1      29.845 -22.914 -15.359  0.00  0.00    +0.090 C 
ENDBRANCH  18  19
ENDBRANCH  17  18
ENDBRANCH  16  17
ENDBRANCH   8  11
ENDBRANCH   6   8
ENDBRANCH   1   6
BRANCH   1  22
ATOM     22  C   UNL     1      33.475 -15.232 -21.553  0.00  0.00    +0.056 C 
BRANCH  22  24
ATOM     23  N   UNL     1      34.020 -12.199 -23.511  0.00  0.00    -0.312 N 
ATOM     24  C   UNL     1      33.524 -13.884 -22.155  0.00  0.00    -0.004 C 
ATOM     25  C   UNL     1      32.849 -12.723 -21.686  0.00  0.00    +0.010 C 
ATOM     26  C   UNL     1      33.177 -11.680 -22.554  0.00  0.00    +0.048 C 
ATOM     27  C   UNL     1      34.234 -13.531 -23.278  0.00  0.00    +0.058 C 
ATOM     28  C   UNL     1      31.989 -12.458 -20.602  0.00  0.00    -0.003 C 
ATOM     29  C   UNL     1      32.687 -10.379 -22.392  0.00  0.00    +0.014 C 
ATOM     30  C   UNL     1      31.491 -11.162 -20.427  0.00  0.00    -0.022 C 
ATOM     31  C   UNL     1      31.835 -10.140 -21.310  0.00  0.00    -0.003 C 
ATOM     32  C   UNL     1      30.577 -10.874 -19.281  0.00  0.00    +0.031 C 
ATOM     33  H   UNL     1      34.411 -11.687 -24.256  0.00  0.00    +0.152 HD
ENDBRANCH  22  24
ENDBRANCH   1  22
TORSDOF 10
ENDMDL
MODEL 6
REMARK VINA RESULT:      -9.7      8.479     15.068
REMARK  Name = 42627769
REMARK  10 active torsions:
REMARK  status: ('A' for Active; 'I' for Inactive)
REMARK    1  A    between atoms: C_1  and  C_3
REMARK    2  A    between atoms: C_1  and  N_6
REMARK    3  A    between atoms: C_1  and  C_22
REMARK    4  A    between atoms: C_3  and  O_4
REMARK    5  A    between atoms: N_6  and  S_8
REMARK    6  A    between atoms: S_8  and  C_11
REMARK    7  A    between atoms: C_16  and  O_17
REMARK    8  A    between atoms: O_17  and  C_18
REMARK    9  A    between atoms: C_18  and  C_19
REMARK   10  A    between atoms: C_22  and  C_24
REMARK                            x       y       z     vdW  Elec       q    Type
REMARK                         _______ _______ _______ _____ _____    ______ ____
ROOT
ATOM      1  C   UNL     1      31.591  -8.686 -21.188  0.00  0.00    +0.178 C 
ENDROOT
BRANCH   1   3
ATOM      2  O   UNL     1      32.000  -6.357 -20.607  0.00  0.00    -0.249 OA
ATOM      3  C   UNL     1      32.242  -7.546 -20.439  0.00  0.00    +0.330 C 
BRANCH   3   4
ATOM      4  O   UNL     1      33.148  -7.991 -19.528  0.00  0.00    -0.479 OA
ATOM      5  H   UNL     1      33.956  -7.531 -19.408  0.00  0.00    +0.295 HD
ENDBRANCH   3   4
ENDBRANCH   1   3
BRANCH   1   6
ATOM      6  N   UNL     1      32.376  -9.906 -20.886  0.00  0.00    -0.170 NA
ATOM      7  H   UNL     1      33.036 -10.030 -21.653  0.00  0.00    +0.149 HD
BRANCH   6   8
ATOM      8  S   UNL     1      31.581 -11.393 -20.679  0.00  0.00    +0.061 S 
ATOM      9  O   UNL     1      30.347 -11.392 -21.442  0.00  0.00    -0.153 OA
ATOM     10  O   UNL     1      31.564 -11.720 -19.266  0.00  0.00    -0.153 OA
BRANCH   8  11
ATOM     11  C   UNL     1      32.701 -12.517 -21.456  0.00  0.00    +0.122 C 
ATOM     12  C   UNL     1      33.127 -13.657 -20.777  0.00  0.00    +0.023 C 
ATOM     13  C   UNL     1      33.162 -12.262 -22.748  0.00  0.00    +0.023 C 
ATOM     14  C   UNL     1      34.013 -14.544 -21.388  0.00  0.00    +0.038 C 
ATOM     15  C   UNL     1      34.048 -13.148 -23.360  0.00  0.00    +0.038 C 
ATOM     16  C   UNL     1      34.473 -14.290 -22.680  0.00  0.00    +0.140 C 
BRANCH  16  17
ATOM     17  O   UNL     1      35.338 -15.154 -23.276  0.00  0.00    -0.461 OA
BRANCH  17  18
ATOM     18  C   UNL     1      34.772 -16.253 -23.989  0.00  0.00    +0.281 C 
BRANCH  18  19
ATOM     19  C   UNL     1      34.952 -17.484 -23.221  0.00  0.00    -0.044 C 
ATOM     20  C   UNL     1      35.096 -18.496 -22.591  0.00  0.00    -0.086 C 
ATOM     21  C   UNL     1      35.274 -19.728 -21.824  0.00  0.00    +0.090 C 
ENDBRANCH  18  19
ENDBRANCH  17  18
ENDBRANCH  16  17
ENDBRANCH   8  11
ENDBRANCH   6   8
ENDBRANCH   1   6
BRANCH   1  22
ATOM     22  C   UNL     1      31.583  -8.444 -22.713  0.00  0.00    +0.056 C 
BRANCH  22  24
ATOM     23  N   UNL     1      35.052  -8.112 -23.803  0.00  0.00    -0.312 N 
ATOM     24  C   UNL     1      32.899  -8.065 -23.265  0.00  0.00    -0.004 C 
ATOM     25  C   UNL     1      33.201  -6.881 -23.996  0.00  0.00    +0.010 C 
ATOM     26  C   UNL     1      34.558  -6.936 -24.320  0.00  0.00    +0.048 C 
ATOM     27  C   UNL     1      34.056  -8.801 -23.163  0.00  0.00    +0.058 C 
ATOM     28  C   UNL     1      32.449  -5.765 -24.411  0.00  0.00    -0.003 C 
ATOM     29  C   UNL     1      35.203  -5.927 -25.043  0.00  0.00    +0.014 C 
ATOM     30  C   UNL     1      33.081  -4.748 -25.135  0.00  0.00    -0.022 C 
ATOM     31  C   UNL     1      34.436  -4.829 -25.446  0.00  0.00    -0.003 C 
ATOM     32  C   UNL     1      32.289  -3.563 -25.581  0.00  0.00    +0.031 C 
ATOM     33  H   UNL     1      35.985  -8.415 -23.881  0.00  0.00    +0.152 HD
ENDBRANCH  22  24
ENDBRANCH   1  22
TORSDOF 10
ENDMDL
MODEL 7
REMARK VINA RESULT:      -9.5      2.394      4.970
REMARK  Name = 42627769
REMARK  10 active torsions:
REMARK  status: ('A' for Active; 'I' for Inactive)
REMARK    1  A    between atoms: C_1  and  C_3
REMARK    2  A    between atoms: C_1  and  N_6
REMARK    3  A    between atoms: C_1  and  C_22
REMARK    4  A    between atoms: C_3  and  O_4
REMARK    5  A    between atoms: N_6  and  S_8
REMARK    6  A    between atoms: S_8  and  C_11
REMARK    7  A    between atoms: C_16  and  O_17
REMARK    8  A    between atoms: O_17  and  C_18
REMARK    9  A    between atoms: C_18  and  C_19
REMARK   10  A    between atoms: C_22  and  C_24
REMARK                            x       y       z     vdW  Elec       q    Type
REMARK                         _______ _______ _______ _____ _____    ______ ____
ROOT
ATOM      1  C   UNL     1      33.729 -23.188 -14.896  0.00  0.00    +0.178 C 
ENDROOT
BRANCH   1   3
ATOM      2  O   UNL     1      31.717 -24.553 -15.034  0.00  0.00    -0.249 OA
ATOM      3  C   UNL     1      32.243 -23.462 -14.853  0.00  0.00    +0.330 C 
BRANCH   3   4
ATOM      4  O   UNL     1      31.529 -22.338 -14.579  0.00  0.00    -0.479 OA
ATOM      5  H   UNL     1      31.796 -21.772 -13.882  0.00  0.00    +0.295 HD
ENDBRANCH   3   4
ENDBRANCH   1   3
BRANCH   1   6
ATOM      6  N   UNL     1      33.996 -22.440 -16.147  0.00  0.00    -0.170 NA
ATOM      7  H   UNL     1      33.779 -21.462 -15.959  0.00  0.00    +0.149 HD
BRANCH   6   8
ATOM      8  S   UNL     1      33.173 -22.858 -17.573  0.00  0.00    +0.061 S 
ATOM      9  O   UNL     1      31.789 -22.438 -17.474  0.00  0.00    -0.153 OA
ATOM     10  O   UNL     1      33.497 -24.231 -17.914  0.00  0.00    -0.153 OA
BRANCH   8  11
ATOM     11  C   UNL     1      33.970 -21.829 -18.768  0.00  0.00    +0.122 C 
ATOM     12  C   UNL     1      33.211 -20.989 -19.582  0.00  0.00    +0.023 C 
ATOM     13  C   UNL     1      35.359 -21.859 -18.901  0.00  0.00    +0.023 C 
ATOM     14  C   UNL     1      33.839 -20.178 -20.527  0.00  0.00    +0.038 C 
ATOM     15  C   UNL     1      35.987 -21.048 -19.846  0.00  0.00    +0.038 C 
ATOM     16  C   UNL     1      35.227 -20.208 -20.659  0.00  0.00    +0.140 C 
BRANCH  16  17
ATOM     17  O   UNL     1      35.839 -19.417 -21.582  0.00  0.00    -0.461 OA
BRANCH  17  18
ATOM     18  C   UNL     1      35.200 -19.284 -22.850  0.00  0.00    +0.281 C 
BRANCH  18  19
ATOM     19  C   UNL     1      35.026 -17.868 -23.169  0.00  0.00    -0.044 C 
ATOM     20  C   UNL     1      34.881 -16.706 -23.434  0.00  0.00    -0.086 C 
ATOM     21  C   UNL     1      34.705 -15.290 -23.755  0.00  0.00    +0.090 C 
ENDBRANCH  18  19
ENDBRANCH  17  18
ENDBRANCH  16  17
ENDBRANCH   8  11
ENDBRANCH   6   8
ENDBRANCH   1   6
BRANCH   1  22
ATOM     22  C   UNL     1      34.556 -24.491 -14.890  0.00  0.00    +0.056 C 
BRANCH  22  24
ATOM     23  N   UNL     1      35.883 -24.897 -11.512  0.00  0.00    -0.312 N 
ATOM     24  C   UNL     1      35.340 -24.697 -13.655  0.00  0.00    -0.004 C 
ATOM     25  C   UNL     1      36.735 -24.969 -13.573  0.00  0.00    +0.010 C 
ATOM     26  C   UNL     1      37.049 -25.090 -12.218  0.00  0.00    +0.048 C 
ATOM     27  C   UNL     1      34.845 -24.659 -12.373  0.00  0.00    +0.058 C 
ATOM     28  C   UNL     1      37.762 -25.124 -14.524  0.00  0.00    -0.003 C 
ATOM     29  C   UNL     1      38.345 -25.359 -11.764  0.00  0.00    +0.014 C 
ATOM     30  C   UNL     1      39.064 -25.393 -14.085  0.00  0.00    -0.022 C 
ATOM     31  C   UNL     1      39.348 -25.509 -12.726  0.00  0.00    -0.003 C 
ATOM     32  C   UNL     1      40.158 -25.560 -15.087  0.00  0.00    +0.031 C 
ATOM     33  H   UNL     1      35.806 -24.926 -10.531  0.00  0.00    +0.152 HD
ENDBRANCH  22  24
ENDBRANCH   1  22
TORSDOF 10
ENDMDL
MODEL 8
REMARK VINA RESULT:      -9.4      3.659     10.967
REMARK  Name = 42627769
REMARK  10 active torsions:
REMARK  status: ('A' for Active; 'I' for Inactive)
REMARK    1  A    between atoms: C_1  and  C_3
REMARK    2  A    between atoms: C_1  and  N_6
REMARK    3  A    between atoms: C_1  and  C_22
REMARK    4  A    between atoms: C_3  and  O_4
REMARK    5  A    between atoms: N_6  and  S_8
REMARK    6  A    between atoms: S_8  and  C_11
REMARK    7  A    between atoms: C_16  and  O_17
REMARK    8  A    between atoms: O_17  and  C_18
REMARK    9  A    between atoms: C_18  and  C_19
REMARK   10  A    between atoms: C_22  and  C_24
REMARK                            x       y       z     vdW  Elec       q    Type
REMARK                         _______ _______ _______ _____ _____    ______ ____
ROOT
ATOM      1  C   UNL     1      34.286 -16.560 -21.485  0.00  0.00    +0.178 C 
ENDROOT
BRANCH   1   3
ATOM      2  O   UNL     1      32.814 -15.563 -19.822  0.00  0.00    -0.249 OA
ATOM      3  C   UNL     1      33.825 -15.501 -20.509  0.00  0.00    +0.330 C 
BRANCH   3   4
ATOM      4  O   UNL     1      34.677 -14.443 -20.471  0.00  0.00    -0.479 OA
ATOM      5  H   UNL     1      34.394 -13.601 -20.769  0.00  0.00    +0.295 HD
ENDBRANCH   3   4
ENDBRANCH   1   3
BRANCH   1   6
ATOM      6  N   UNL     1      34.870 -17.661 -20.684  0.00  0.00    -0.170 NA
ATOM      7  H   UNL     1      35.651 -17.266 -20.163  0.00  0.00    +0.149 HD
BRANCH   6   8
ATOM      8  S   UNL     1      35.454 -19.054 -21.461  0.00  0.00    +0.061 S 
ATOM      9  O   UNL     1      36.904 -19.039 -21.456  0.00  0.00    -0.153 OA
ATOM     10  O   UNL     1      34.730 -19.233 -22.706  0.00  0.00    -0.153 OA
BRANCH   8  11
ATOM     11  C   UNL     1      34.919 -20.334 -20.366  0.00  0.00    +0.122 C 
ATOM     12  C   UNL     1      33.557 -20.539 -20.146  0.00  0.00    +0.023 C 
ATOM     13  C   UNL     1      35.858 -21.137 -19.719  0.00  0.00    +0.023 C 
ATOM     14  C   UNL     1      33.134 -21.547 -19.280  0.00  0.00    +0.038 C 
ATOM     15  C   UNL     1      35.435 -22.145 -18.853  0.00  0.00    +0.038 C 
ATOM     16  C   UNL     1      34.074 -22.351 -18.634  0.00  0.00    +0.140 C 
BRANCH  16  17
ATOM     17  O   UNL     1      33.661 -23.334 -17.788  0.00  0.00    -0.461 OA
BRANCH  17  18
ATOM     18  C   UNL     1      33.668 -23.036 -16.393  0.00  0.00    +0.281 C 
BRANCH  18  19
ATOM     19  C   UNL     1      34.602 -23.925 -15.704  0.00  0.00    -0.044 C 
ATOM     20  C   UNL     1      35.372 -24.655 -15.140  0.00  0.00    -0.086 C 
ATOM     21  C   UNL     1      36.308 -25.542 -14.452  0.00  0.00    +0.090 C 
ENDBRANCH  18  19
ENDBRANCH  17  18
ENDBRANCH  16  17
ENDBRANCH   8  11
ENDBRANCH   6   8
ENDBRANCH   1   6
BRANCH   1  22
ATOM     22  C   UNL     1      35.348 -16.018 -22.465  0.00  0.00    +0.056 C 
BRANCH  22  24
ATOM     23  N   UNL     1      34.090 -15.697 -25.879  0.00  0.00    -0.312 N 
ATOM     24  C   UNL     1      34.801 -15.616 -23.777  0.00  0.00    -0.004 C 
ATOM     25  C   UNL     1      34.373 -14.312 -24.152  0.00  0.00    +0.010 C 
ATOM     26  C   UNL     1      33.932 -14.391 -25.475  0.00  0.00    +0.048 C 
ATOM     27  C   UNL     1      34.615 -16.446 -24.859  0.00  0.00    +0.058 C 
ATOM     28  C   UNL     1      34.319 -13.069 -23.492  0.00  0.00    -0.003 C 
ATOM     29  C   UNL     1      33.438 -13.283 -26.174  0.00  0.00    +0.014 C 
ATOM     30  C   UNL     1      33.827 -11.952 -24.178  0.00  0.00    -0.022 C 
ATOM     31  C   UNL     1      33.393 -12.060 -25.498  0.00  0.00    -0.003 C 
ATOM     32  C   UNL     1      33.765 -10.632 -23.484  0.00  0.00    +0.031 C 
ATOM     33  H   UNL     1      33.859 -16.044 -26.770  0.00  0.00    +0.152 HD
ENDBRANCH  22  24
ENDBRANCH   1  22
TORSDOF 10
ENDMDL
MODEL 9
REMARK VINA RESULT:      -9.2     10.448     14.684
REMARK  Name = 42627769
REMARK  10 active torsions:
REMARK  status: ('A' for Active; 'I' for Inactive)
REMARK    1  A    between atoms: C_1  and  C_3
REMARK    2  A    between atoms: C_1  and  N_6
REMARK    3  A    between atoms: C_1  and  C_22
REMARK    4  A    between atoms: C_3  and  O_4
REMARK    5  A    between atoms: N_6  and  S_8
REMARK    6  A    between atoms: S_8  and  C_11
REMARK    7  A    between atoms: C_16  and  O_17
REMARK    8  A    between atoms: O_17  and  C_18
REMARK    9  A    between atoms: C_18  and  C_19
REMARK   10  A    between atoms: C_22  and  C_24
REMARK                            x       y       z     vdW  Elec       q    Type
REMARK                         _______ _______ _______ _____ _____    ______ ____
ROOT
ATOM      1  C   UNL     1      32.095 -10.323 -20.803  0.00  0.00    +0.178 C 
ENDROOT
BRANCH   1   3
ATOM      2  O   UNL     1      30.455 -10.718 -19.047  0.00  0.00    -0.249 OA
ATOM      3  C   UNL     1      31.449 -10.128 -19.450  0.00  0.00    +0.330 C 
BRANCH   3   4
ATOM      4  O   UNL     1      32.110  -9.204 -18.702  0.00  0.00    -0.479 OA
ATOM      5  H   UNL     1      31.942  -8.291 -18.830  0.00  0.00    +0.295 HD
ENDBRANCH   3   4
ENDBRANCH   1   3
BRANCH   1   6
ATOM      6  N   UNL     1      31.853  -9.085 -21.580  0.00  0.00    -0.170 NA
ATOM      7  H   UNL     1      31.563  -9.374 -22.514  0.00  0.00    +0.149 HD
BRANCH   6   8
ATOM      8  S   UNL     1      33.106  -7.957 -21.784  0.00  0.00    +0.061 S 
ATOM      9  O   UNL     1      33.974  -8.387 -22.864  0.00  0.00    -0.153 OA
ATOM     10  O   UNL     1      33.664  -7.638 -20.483  0.00  0.00    -0.153 OA
BRANCH   8  11
ATOM     11  C   UNL     1      32.224  -6.527 -22.331  0.00  0.00    +0.122 C 
ATOM     12  C   UNL     1      32.648  -5.839 -23.467  0.00  0.00    +0.023 C 
ATOM     13  C   UNL     1      31.105  -6.085 -21.624  0.00  0.00    +0.023 C 
ATOM     14  C   UNL     1      31.953  -4.708 -23.898  0.00  0.00    +0.038 C 
ATOM     15  C   UNL     1      30.410  -4.954 -22.055  0.00  0.00    +0.038 C 
ATOM     16  C   UNL     1      30.834  -4.267 -23.192  0.00  0.00    +0.140 C 
BRANCH  16  17
ATOM     17  O   UNL     1      30.157  -3.164 -23.612  0.00  0.00    -0.461 OA
BRANCH  17  18
ATOM     18  C   UNL     1      30.900  -2.180 -24.330  0.00  0.00    +0.281 C 
BRANCH  18  19
ATOM     19  C   UNL     1      30.467  -2.156 -25.726  0.00  0.00    -0.044 C 
ATOM     20  C   UNL     1      30.114  -2.139 -26.875  0.00  0.00    -0.086 C 
ATOM     21  C   UNL     1      29.683  -2.118 -28.271  0.00  0.00    +0.090 C 
ENDBRANCH  18  19
ENDBRANCH  17  18
ENDBRANCH  16  17
ENDBRANCH   8  11
ENDBRANCH   6   8
ENDBRANCH   1   6
BRANCH   1  22
ATOM     22  C   UNL     1      31.498 -11.530 -21.558  0.00  0.00    +0.056 C 
BRANCH  22  24
ATOM     23  N   UNL     1      33.354 -14.506 -20.542  0.00  0.00    -0.312 N 
ATOM     24  C   UNL     1      32.290 -12.770 -21.425  0.00  0.00    -0.004 C 
ATOM     25  C   UNL     1      32.849 -13.535 -22.486  0.00  0.00    +0.010 C 
ATOM     26  C   UNL     1      33.511 -14.619 -21.905  0.00  0.00    +0.048 C 
ATOM     27  C   UNL     1      32.617 -13.392 -20.242  0.00  0.00    +0.058 C 
ATOM     28  C   UNL     1      32.857 -13.409 -23.889  0.00  0.00    -0.003 C 
ATOM     29  C   UNL     1      34.183 -15.586 -22.659  0.00  0.00    +0.014 C 
ATOM     30  C   UNL     1      33.525 -14.370 -24.657  0.00  0.00    -0.022 C 
ATOM     31  C   UNL     1      34.177 -15.441 -24.050  0.00  0.00    -0.003 C 
ATOM     32  C   UNL     1      33.536 -14.244 -26.145  0.00  0.00    +0.031 C 
ATOM     33  H   UNL     1      33.718 -15.136 -19.878  0.00  0.00    +0.152 HD
ENDBRANCH  22  24
ENDBRANCH   1  22
TORSDOF 10
ENDMDL
