MODEL 1
REMARK VINA RESULT:     -12.2      0.000      0.000
REMARK  Name = 24864821
REMARK  5 active torsions:
REMARK  status: ('A' for Active; 'I' for Inactive)
REMARK    1  A    between atoms: C_5  and  C_16
REMARK    2  A    between atoms: C_7  and  C_10
REMARK    3  A    between atoms: C_16  and  O_17
REMARK    4  A    between atoms: O_17  and  C_20
REMARK    5  A    between atoms: C_25  and  O_28
REMARK                            x       y       z     vdW  Elec       q    Type
REMARK                         _______ _______ _______ _____ _____    ______ ____
ROOT
ATOM      1  N   UNL     1      36.404 -23.072 -15.459  0.00  0.00    -0.191 N 
ATOM      2  N   UNL     1      35.074 -22.836 -15.580  0.00  0.00    -0.163 NA
ATOM      3  N   UNL     1      38.572 -22.934 -15.748  0.00  0.00    -0.128 NA
ATOM      4  N   UNL     1      38.324 -23.910 -14.805  0.00  0.00    -0.127 NA
ATOM      5  C   UNL     1      37.414 -22.444 -16.128  0.00  0.00    +0.208 A 
ATOM      6  C   UNL     1      37.022 -23.986 -14.638  0.00  0.00    +0.186 A 
ATOM      7  C   UNL     1      34.335 -23.582 -14.807  0.00  0.00    +0.101 C 
ATOM      8  C   UNL     1      36.197 -24.790 -13.828  0.00  0.00    +0.042 C 
ATOM      9  C   UNL     1      34.868 -24.629 -13.878  0.00  0.00    +0.024 C 
ENDROOT
BRANCH   7  10
ATOM     10  C   UNL     1      32.858 -23.415 -14.845  0.00  0.00    +0.019 C 
ATOM     11  C   UNL     1      32.109 -23.569 -13.679  0.00  0.00    +0.002 C 
ATOM     12  C   UNL     1      32.223 -23.102 -16.046  0.00  0.00    +0.002 C 
ATOM     13  C   UNL     1      30.724 -23.410 -13.715  0.00  0.00    +0.000 C 
ATOM     14  C   UNL     1      30.838 -22.943 -16.082  0.00  0.00    +0.000 C 
ATOM     15  C   UNL     1      30.087 -23.098 -14.916  0.00  0.00    +0.000 C 
ENDBRANCH   7  10
BRANCH   5  16
ATOM     16  C   UNL     1      37.178 -21.358 -17.137  0.00  0.00    +0.272 C 
BRANCH  16  17
ATOM     17  O   UNL     1      36.888 -21.953 -18.400  0.00  0.00    -0.467 OA
BRANCH  17  20
ATOM     18  N   UNL     1      33.499 -20.604 -20.372  0.00  0.00    -0.248 NA
ATOM     19  C   UNL     1      35.875 -20.460 -20.004  0.00  0.00    +0.030 C 
ATOM     20  C   UNL     1      35.787 -21.493 -19.061  0.00  0.00    +0.138 C 
ATOM     21  C   UNL     1      34.691 -20.041 -20.644  0.00  0.00    +0.066 C 
ATOM     22  C   UNL     1      37.103 -19.850 -20.313  0.00  0.00    +0.059 C 
ATOM     23  C   UNL     1      34.780 -19.015 -21.580  0.00  0.00    +0.109 C 
ATOM     24  C   UNL     1      34.560 -22.076 -18.778  0.00  0.00    +0.057 C 
ATOM     25  C   UNL     1      35.999 -18.408 -21.888  0.00  0.00    +0.118 C 
ATOM     26  C   UNL     1      37.163 -18.826 -21.253  0.00  0.00    +0.011 C 
ATOM     27  C   UNL     1      33.455 -21.599 -19.456  0.00  0.00    +0.102 C 
BRANCH  25  28
ATOM     28  O   UNL     1      36.048 -17.408 -22.810  0.00  0.00    -0.476 OA
ATOM     29  C   UNL     1      34.938 -17.293 -23.701  0.00  0.00    +0.252 C 
ENDBRANCH  25  28
ENDBRANCH  17  20
ENDBRANCH  16  17
ENDBRANCH   5  16
TORSDOF 5
ENDMDL
MODEL 2
REMARK VINA RESULT:     -12.1      7.584     13.201
REMARK  Name = 24864821
REMARK  5 active torsions:
REMARK  status: ('A' for Active; 'I' for Inactive)
REMARK    1  A    between atoms: C_5  and  C_16
REMARK    2  A    between atoms: C_7  and  C_10
REMARK    3  A    between atoms: C_16  and  O_17
REMARK    4  A    between atoms: O_17  and  C_20
REMARK    5  A    between atoms: C_25  and  O_28
REMARK                            x       y       z     vdW  Elec       q    Type
REMARK                         _______ _______ _______ _____ _____    ______ ____
ROOT
ATOM      1  N   UNL     1      32.162 -10.514 -21.211  0.00  0.00    -0.191 N 
ATOM      2  N   UNL     1      32.624  -9.728 -22.216  0.00  0.00    -0.163 NA
ATOM      3  N   UNL     1      31.471 -12.271 -20.099  0.00  0.00    -0.128 NA
ATOM      4  N   UNL     1      31.447 -11.186 -19.247  0.00  0.00    -0.127 NA
ATOM      5  C   UNL     1      31.900 -11.851 -21.268  0.00  0.00    +0.208 A 
ATOM      6  C   UNL     1      31.864 -10.137 -19.922  0.00  0.00    +0.186 A 
ATOM      7  C   UNL     1      32.793  -8.482 -21.874  0.00  0.00    +0.101 C 
ATOM      8  C   UNL     1      32.040  -8.780 -19.587  0.00  0.00    +0.042 C 
ATOM      9  C   UNL     1      32.493  -7.927 -20.515  0.00  0.00    +0.024 C 
ENDROOT
BRANCH   7  10
ATOM     10  C   UNL     1      33.300  -7.520 -22.888  0.00  0.00    +0.019 C 
ATOM     11  C   UNL     1      32.421  -6.631 -23.507  0.00  0.00    +0.002 C 
ATOM     12  C   UNL     1      34.654  -7.507 -23.220  0.00  0.00    +0.002 C 
ATOM     13  C   UNL     1      32.897  -5.728 -24.456  0.00  0.00    +0.000 C 
ATOM     14  C   UNL     1      35.131  -6.604 -24.169  0.00  0.00    +0.000 C 
ATOM     15  C   UNL     1      34.253  -5.714 -24.789  0.00  0.00    +0.000 C 
ENDBRANCH   7  10
BRANCH   5  16
ATOM     16  C   UNL     1      32.093 -12.673 -22.509  0.00  0.00    +0.272 C 
BRANCH  16  17
ATOM     17  O   UNL     1      33.457 -13.083 -22.587  0.00  0.00    -0.467 OA
BRANCH  17  20
ATOM     18  N   UNL     1      34.339 -16.036 -25.361  0.00  0.00    -0.248 NA
ATOM     19  C   UNL     1      34.291 -15.296 -23.069  0.00  0.00    +0.030 C 
ATOM     20  C   UNL     1      33.755 -14.069 -23.481  0.00  0.00    +0.138 C 
ATOM     21  C   UNL     1      34.572 -16.264 -24.055  0.00  0.00    +0.066 C 
ATOM     22  C   UNL     1      34.547 -15.569 -21.714  0.00  0.00    +0.059 C 
ATOM     23  C   UNL     1      35.104 -17.483 -23.644  0.00  0.00    +0.109 C 
ATOM     24  C   UNL     1      33.514 -13.830 -24.827  0.00  0.00    +0.057 C 
ATOM     25  C   UNL     1      35.359 -17.755 -22.298  0.00  0.00    +0.118 C 
ATOM     26  C   UNL     1      35.079 -16.796 -21.331  0.00  0.00    +0.011 C 
ATOM     27  C   UNL     1      33.821 -14.839 -25.719  0.00  0.00    +0.102 C 
BRANCH  25  28
ATOM     28  O   UNL     1      35.878 -18.959 -21.934  0.00  0.00    -0.476 OA
ATOM     29  C   UNL     1      35.084 -19.775 -21.072  0.00  0.00    +0.252 C 
ENDBRANCH  25  28
ENDBRANCH  17  20
ENDBRANCH  16  17
ENDBRANCH   5  16
TORSDOF 5
ENDMDL
MODEL 3
REMARK VINA RESULT:     -11.8      4.405     10.121
REMARK  Name = 24864821
REMARK  5 active torsions:
REMARK  status: ('A' for Active; 'I' for Inactive)
REMARK    1  A    between atoms: C_5  and  C_16
REMARK    2  A    between atoms: C_7  and  C_10
REMARK    3  A    between atoms: C_16  and  O_17
REMARK    4  A    between atoms: O_17  and  C_20
REMARK    5  A    between atoms: C_25  and  O_28
REMARK                            x       y       z     vdW  Elec       q    Type
REMARK                         _______ _______ _______ _____ _____    ______ ____
ROOT
ATOM      1  N   UNL     1      34.123 -15.356 -23.736  0.00  0.00    -0.191 N 
ATOM      2  N   UNL     1      33.725 -14.589 -22.690  0.00  0.00    -0.163 NA
ATOM      3  N   UNL     1      35.066 -16.958 -24.895  0.00  0.00    -0.128 NA
ATOM      4  N   UNL     1      34.401 -16.127 -25.772  0.00  0.00    -0.127 NA
ATOM      5  C   UNL     1      34.890 -16.483 -23.683  0.00  0.00    +0.208 A 
ATOM      6  C   UNL     1      33.838 -15.169 -25.069  0.00  0.00    +0.186 A 
ATOM      7  C   UNL     1      32.986 -13.572 -23.035  0.00  0.00    +0.101 C 
ATOM      8  C   UNL     1      33.053 -14.051 -25.412  0.00  0.00    +0.042 C 
ATOM      9  C   UNL     1      32.612 -13.235 -24.446  0.00  0.00    +0.024 C 
ENDROOT
BRANCH   7  10
ATOM     10  C   UNL     1      32.484 -12.657 -21.977  0.00  0.00    +0.019 C 
ATOM     11  C   UNL     1      32.203 -11.325 -22.281  0.00  0.00    +0.002 C 
ATOM     12  C   UNL     1      32.291 -13.131 -20.679  0.00  0.00    +0.002 C 
ATOM     13  C   UNL     1      31.730 -10.468 -21.289  0.00  0.00    +0.000 C 
ATOM     14  C   UNL     1      31.817 -12.274 -19.687  0.00  0.00    +0.000 C 
ATOM     15  C   UNL     1      31.537 -10.941 -19.990  0.00  0.00    +0.000 C 
ENDBRANCH   7  10
BRANCH   5  16
ATOM     16  C   UNL     1      35.425 -17.052 -22.402  0.00  0.00    +0.272 C 
BRANCH  16  17
ATOM     17  O   UNL     1      34.855 -18.342 -22.193  0.00  0.00    -0.467 OA
BRANCH  17  20
ATOM     18  N   UNL     1      36.844 -20.799 -19.510  0.00  0.00    -0.248 NA
ATOM     19  C   UNL     1      34.778 -20.075 -20.515  0.00  0.00    +0.030 C 
ATOM     20  C   UNL     1      35.488 -19.160 -21.304  0.00  0.00    +0.138 C 
ATOM     21  C   UNL     1      35.506 -20.886 -19.619  0.00  0.00    +0.066 C 
ATOM     22  C   UNL     1      33.380 -20.193 -20.603  0.00  0.00    +0.059 C 
ATOM     23  C   UNL     1      34.799 -21.795 -18.836  0.00  0.00    +0.109 C 
ATOM     24  C   UNL     1      36.868 -19.068 -21.194  0.00  0.00    +0.057 C 
ATOM     25  C   UNL     1      33.410 -21.912 -18.923  0.00  0.00    +0.118 C 
ATOM     26  C   UNL     1      32.699 -21.110 -19.808  0.00  0.00    +0.011 C 
ATOM     27  C   UNL     1      37.493 -19.904 -20.289  0.00  0.00    +0.102 C 
BRANCH  25  28
ATOM     28  O   UNL     1      32.754 -22.813 -18.142  0.00  0.00    -0.476 OA
ATOM     29  C   UNL     1      33.411 -23.237 -16.948  0.00  0.00    +0.252 C 
ENDBRANCH  25  28
ENDBRANCH  17  20
ENDBRANCH  16  17
ENDBRANCH   5  16
TORSDOF 5
ENDMDL
MODEL 4
REMARK VINA RESULT:     -11.3      6.814     11.119
REMARK  Name = 24864821
REMARK  5 active torsions:
REMARK  status: ('A' for Active; 'I' for Inactive)
REMARK    1  A    between atoms: C_5  and  C_16
REMARK    2  A    between atoms: C_7  and  C_10
REMARK    3  A    between atoms: C_16  and  O_17
REMARK    4  A    between atoms: O_17  and  C_20
REMARK    5  A    between atoms: C_25  and  O_28
REMARK                            x       y       z     vdW  Elec       q    Type
REMARK                         _______ _______ _______ _____ _____    ______ ____
ROOT
ATOM      1  N   UNL     1      33.975 -15.217 -23.229  0.00  0.00    -0.191 N 
ATOM      2  N   UNL     1      34.367 -16.119 -22.294  0.00  0.00    -0.163 NA
ATOM      3  N   UNL     1      33.148 -13.410 -24.152  0.00  0.00    -0.128 NA
ATOM      4  N   UNL     1      33.604 -14.238 -25.158  0.00  0.00    -0.127 NA
ATOM      5  C   UNL     1      33.377 -14.011 -23.007  0.00  0.00    +0.208 A 
ATOM      6  C   UNL     1      34.099 -15.318 -24.595  0.00  0.00    +0.186 A 
ATOM      7  C   UNL     1      34.923 -17.187 -22.794  0.00  0.00    +0.101 C 
ATOM      8  C   UNL     1      34.687 -16.492 -25.106  0.00  0.00    +0.042 C 
ATOM      9  C   UNL     1      35.106 -17.440 -24.259  0.00  0.00    +0.024 C 
ENDROOT
BRANCH   7  10
ATOM     10  C   UNL     1      35.399 -18.249 -21.870  0.00  0.00    +0.019 C 
ATOM     11  C   UNL     1      34.506 -19.204 -21.385  0.00  0.00    +0.002 C 
ATOM     12  C   UNL     1      36.740 -18.292 -21.490  0.00  0.00    +0.002 C 
ATOM     13  C   UNL     1      34.954 -20.201 -20.519  0.00  0.00    +0.000 C 
ATOM     14  C   UNL     1      37.188 -19.290 -20.624  0.00  0.00    +0.000 C 
ATOM     15  C   UNL     1      36.295 -20.245 -20.138  0.00  0.00    +0.000 C 
ENDBRANCH   7  10
BRANCH   5  16
ATOM     16  C   UNL     1      33.054 -13.496 -21.634  0.00  0.00    +0.272 C 
BRANCH  16  17
ATOM     17  O   UNL     1      31.928 -12.625 -21.719  0.00  0.00    -0.467 OA
BRANCH  17  20
ATOM     18  N   UNL     1      31.804  -9.480 -19.019  0.00  0.00    -0.248 NA
ATOM     19  C   UNL     1      32.161 -10.265 -21.269  0.00  0.00    +0.030 C 
ATOM     20  C   UNL     1      31.893 -11.575 -20.849  0.00  0.00    +0.138 C 
ATOM     21  C   UNL     1      32.105  -9.234 -20.308  0.00  0.00    +0.066 C 
ATOM     22  C   UNL     1      32.480  -9.972 -22.606  0.00  0.00    +0.059 C 
ATOM     23  C   UNL     1      32.373  -7.934 -20.726  0.00  0.00    +0.109 C 
ATOM     24  C   UNL     1      31.582 -11.832 -19.521  0.00  0.00    +0.057 C 
ATOM     25  C   UNL     1      32.689  -7.642 -22.055  0.00  0.00    +0.118 C 
ATOM     26  C   UNL     1      32.743  -8.663 -22.996  0.00  0.00    +0.011 C 
ATOM     27  C   UNL     1      31.550 -10.757 -18.654  0.00  0.00    +0.102 C 
BRANCH  25  28
ATOM     28  O   UNL     1      32.942  -6.358 -22.427  0.00  0.00    -0.476 OA
ATOM     29  C   UNL     1      33.530  -6.158 -23.712  0.00  0.00    +0.252 C 
ENDBRANCH  25  28
ENDBRANCH  17  20
ENDBRANCH  16  17
ENDBRANCH   5  16
TORSDOF 5
ENDMDL
MODEL 5
REMARK VINA RESULT:     -11.2      9.863     14.178
REMARK  Name = 24864821
REMARK  5 active torsions:
REMARK  status: ('A' for Active; 'I' for Inactive)
REMARK    1  A    between atoms: C_5  and  C_16
REMARK    2  A    between atoms: C_7  and  C_10
REMARK    3  A    between atoms: C_16  and  O_17
REMARK    4  A    between atoms: O_17  and  C_20
REMARK    5  A    between atoms: C_25  and  O_28
REMARK                            x       y       z     vdW  Elec       q    Type
REMARK                         _______ _______ _______ _____ _____    ______ ____
ROOT
ATOM      1  N   UNL     1      32.311 -11.864 -21.347  0.00  0.00    -0.191 N 
ATOM      2  N   UNL     1      32.886 -12.539 -22.374  0.00  0.00    -0.163 NA
ATOM      3  N   UNL     1      31.464 -10.237 -20.148  0.00  0.00    -0.128 NA
ATOM      4  N   UNL     1      31.383 -11.401 -19.412  0.00  0.00    -0.127 NA
ATOM      5  C   UNL     1      32.021 -10.532 -21.301  0.00  0.00    +0.208 A 
ATOM      6  C   UNL     1      31.892 -12.372 -20.139  0.00  0.00    +0.186 A 
ATOM      7  C   UNL     1      33.036 -13.814 -22.146  0.00  0.00    +0.101 C 
ATOM      8  C   UNL     1      32.084 -13.749 -19.915  0.00  0.00    +0.042 C 
ATOM      9  C   UNL     1      32.644 -14.499 -20.872  0.00  0.00    +0.024 C 
ENDROOT
BRANCH   7  10
ATOM     10  C   UNL     1      33.651 -14.665 -23.198  0.00  0.00    +0.019 C 
ATOM     11  C   UNL     1      34.517 -15.698 -22.841  0.00  0.00    +0.002 C 
ATOM     12  C   UNL     1      33.360 -14.431 -24.542  0.00  0.00    +0.002 C 
ATOM     13  C   UNL     1      35.093 -16.497 -23.828  0.00  0.00    +0.000 C 
ATOM     14  C   UNL     1      33.936 -15.230 -25.529  0.00  0.00    +0.000 C 
ATOM     15  C   UNL     1      34.803 -16.264 -25.173  0.00  0.00    +0.000 C 
ENDBRANCH   7  10
BRANCH   5  16
ATOM     16  C   UNL     1      32.316  -9.588 -22.430  0.00  0.00    +0.272 C 
BRANCH  16  17
ATOM     17  O   UNL     1      33.018  -8.456 -21.919  0.00  0.00    -0.467 OA
BRANCH  17  20
ATOM     18  N   UNL     1      34.120  -5.546 -24.659  0.00  0.00    -0.248 NA
ATOM     19  C   UNL     1      32.569  -6.345 -22.998  0.00  0.00    +0.030 C 
ATOM     20  C   UNL     1      33.361  -7.487 -22.815  0.00  0.00    +0.138 C 
ATOM     21  C   UNL     1      32.991  -5.387 -23.943  0.00  0.00    +0.066 C 
ATOM     22  C   UNL     1      31.384  -6.145 -22.268  0.00  0.00    +0.059 C 
ATOM     23  C   UNL     1      32.204  -4.254 -24.125  0.00  0.00    +0.109 C 
ATOM     24  C   UNL     1      34.524  -7.654 -23.551  0.00  0.00    +0.057 C 
ATOM     25  C   UNL     1      31.027  -4.055 -23.399  0.00  0.00    +0.118 C 
ATOM     26  C   UNL     1      30.616  -5.003 -22.469  0.00  0.00    +0.011 C 
ATOM     27  C   UNL     1      34.857  -6.662 -24.453  0.00  0.00    +0.102 C 
BRANCH  25  28
ATOM     28  O   UNL     1      30.284  -2.933 -23.602  0.00  0.00    -0.476 OA
ATOM     29  C   UNL     1      30.610  -1.787 -22.816  0.00  0.00    +0.252 C 
ENDBRANCH  25  28
ENDBRANCH  17  20
ENDBRANCH  16  17
ENDBRANCH   5  16
TORSDOF 5
ENDMDL
MODEL 6
REMARK VINA RESULT:     -11.0     10.147     14.299
REMARK  Name = 24864821
REMARK  5 active torsions:
REMARK  status: ('A' for Active; 'I' for Inactive)
REMARK    1  A    between atoms: C_5  and  C_16
REMARK    2  A    between atoms: C_7  and  C_10
REMARK    3  A    between atoms: C_16  and  O_17
REMARK    4  A    between atoms: O_17  and  C_20
REMARK    5  A    between atoms: C_25  and  O_28
REMARK                            x       y       z     vdW  Elec       q    Type
REMARK                         _______ _______ _______ _____ _____    ______ ____
ROOT
ATOM      1  N   UNL     1      32.264 -11.512 -21.466  0.00  0.00    -0.191 N 
ATOM      2  N   UNL     1      32.810 -12.225 -22.483  0.00  0.00    -0.163 NA
ATOM      3  N   UNL     1      31.470  -9.838 -20.296  0.00  0.00    -0.128 NA
ATOM      4  N   UNL     1      31.375 -10.982 -19.530  0.00  0.00    -0.127 NA
ATOM      5  C   UNL     1      32.004 -10.173 -21.449  0.00  0.00    +0.208 A 
ATOM      6  C   UNL     1      31.853 -11.981 -20.240  0.00  0.00    +0.186 A 
ATOM      7  C   UNL     1      32.936 -13.496 -22.225  0.00  0.00    +0.101 C 
ATOM      8  C   UNL     1      32.018 -13.356 -19.984  0.00  0.00    +0.042 C 
ATOM      9  C   UNL     1      32.549 -14.142 -20.930  0.00  0.00    +0.024 C 
ENDROOT
BRANCH   7  10
ATOM     10  C   UNL     1      33.519 -14.386 -23.264  0.00  0.00    +0.019 C 
ATOM     11  C   UNL     1      34.382 -15.417 -22.895  0.00  0.00    +0.002 C 
ATOM     12  C   UNL     1      33.200 -14.190 -24.608  0.00  0.00    +0.002 C 
ATOM     13  C   UNL     1      34.926 -16.253 -23.870  0.00  0.00    +0.000 C 
ATOM     14  C   UNL     1      33.744 -15.025 -25.583  0.00  0.00    +0.000 C 
ATOM     15  C   UNL     1      34.608 -16.057 -25.215  0.00  0.00    +0.000 C 
ENDBRANCH   7  10
BRANCH   5  16
ATOM     16  C   UNL     1      32.302  -9.264 -22.605  0.00  0.00    +0.272 C 
BRANCH  16  17
ATOM     17  O   UNL     1      32.919  -8.075 -22.115  0.00  0.00    -0.467 OA
BRANCH  17  20
ATOM     18  N   UNL     1      31.022  -4.493 -22.987  0.00  0.00    -0.248 NA
ATOM     19  C   UNL     1      32.751  -6.095 -23.485  0.00  0.00    +0.030 C 
ATOM     20  C   UNL     1      32.310  -6.893 -22.420  0.00  0.00    +0.138 C 
ATOM     21  C   UNL     1      32.069  -4.887 -23.736  0.00  0.00    +0.066 C 
ATOM     22  C   UNL     1      33.841  -6.475 -24.287  0.00  0.00    +0.059 C 
ATOM     23  C   UNL     1      32.508  -4.094 -24.794  0.00  0.00    +0.109 C 
ATOM     24  C   UNL     1      31.231  -6.490 -21.646  0.00  0.00    +0.057 C 
ATOM     25  C   UNL     1      33.590  -4.472 -25.591  0.00  0.00    +0.118 C 
ATOM     26  C   UNL     1      34.258  -5.664 -25.338  0.00  0.00    +0.011 C 
ATOM     27  C   UNL     1      30.627  -5.291 -21.969  0.00  0.00    +0.102 C 
BRANCH  25  28
ATOM     28  O   UNL     1      33.989  -3.672 -26.618  0.00  0.00    -0.476 OA
ATOM     29  C   UNL     1      35.337  -3.815 -27.066  0.00  0.00    +0.252 C 
ENDBRANCH  25  28
ENDBRANCH  17  20
ENDBRANCH  16  17
ENDBRANCH   5  16
TORSDOF 5
ENDMDL
MODEL 7
REMARK VINA RESULT:     -10.8      2.705      5.653
REMARK  Name = 24864821
REMARK  5 active torsions:
REMARK  status: ('A' for Active; 'I' for Inactive)
REMARK    1  A    between atoms: C_5  and  C_16
REMARK    2  A    between atoms: C_7  and  C_10
REMARK    3  A    between atoms: C_16  and  O_17
REMARK    4  A    between atoms: O_17  and  C_20
REMARK    5  A    between atoms: C_25  and  O_28
REMARK                            x       y       z     vdW  Elec       q    Type
REMARK                         _______ _______ _______ _____ _____    ______ ____
ROOT
ATOM      1  N   UNL     1      34.543 -21.109 -19.268  0.00  0.00    -0.191 N 
ATOM      2  N   UNL     1      35.542 -21.494 -18.436  0.00  0.00    -0.163 NA
ATOM      3  N   UNL     1      33.469 -20.138 -20.913  0.00  0.00    -0.128 NA
ATOM      4  N   UNL     1      32.565 -20.894 -20.196  0.00  0.00    -0.127 NA
ATOM      5  C   UNL     1      34.645 -20.277 -20.345  0.00  0.00    +0.208 A 
ATOM      6  C   UNL     1      33.218 -21.474 -19.212  0.00  0.00    +0.186 A 
ATOM      7  C   UNL     1      35.157 -22.307 -17.492  0.00  0.00    +0.101 C 
ATOM      8  C   UNL     1      32.828 -22.338 -18.171  0.00  0.00    +0.042 C 
ATOM      9  C   UNL     1      33.747 -22.773 -17.299  0.00  0.00    +0.024 C 
ENDROOT
BRANCH   7  10
ATOM     10  C   UNL     1      36.163 -22.805 -16.517  0.00  0.00    +0.019 C 
ATOM     11  C   UNL     1      37.488 -22.380 -16.604  0.00  0.00    +0.002 C 
ATOM     12  C   UNL     1      35.780 -23.695 -15.514  0.00  0.00    +0.002 C 
ATOM     13  C   UNL     1      38.431 -22.846 -15.688  0.00  0.00    +0.000 C 
ATOM     14  C   UNL     1      36.722 -24.161 -14.598  0.00  0.00    +0.000 C 
ATOM     15  C   UNL     1      38.048 -23.737 -14.685  0.00  0.00    +0.000 C 
ENDBRANCH   7  10
BRANCH   5  16
ATOM     16  C   UNL     1      35.937 -19.644 -20.773  0.00  0.00    +0.272 C 
BRANCH  16  17
ATOM     17  O   UNL     1      35.800 -18.225 -20.717  0.00  0.00    -0.467 OA
BRANCH  17  20
ATOM     18  N   UNL     1      34.535 -16.382 -24.208  0.00  0.00    -0.248 NA
ATOM     19  C   UNL     1      34.735 -16.355 -21.808  0.00  0.00    +0.030 C 
ATOM     20  C   UNL     1      35.375 -17.601 -21.852  0.00  0.00    +0.138 C 
ATOM     21  C   UNL     1      34.326 -15.774 -23.026  0.00  0.00    +0.066 C 
ATOM     22  C   UNL     1      34.500 -15.691 -20.591  0.00  0.00    +0.059 C 
ATOM     23  C   UNL     1      33.689 -14.537 -22.981  0.00  0.00    +0.109 C 
ATOM     24  C   UNL     1      35.593 -18.230 -23.069  0.00  0.00    +0.057 C 
ATOM     25  C   UNL     1      33.455 -13.877 -21.772  0.00  0.00    +0.118 C 
ATOM     26  C   UNL     1      33.861 -14.455 -20.576  0.00  0.00    +0.011 C 
ATOM     27  C   UNL     1      35.157 -17.584 -24.209  0.00  0.00    +0.102 C 
BRANCH  25  28
ATOM     28  O   UNL     1      32.832 -12.667 -21.768  0.00  0.00    -0.476 OA
ATOM     29  C   UNL     1      31.890 -12.426 -20.723  0.00  0.00    +0.252 C 
ENDBRANCH  25  28
ENDBRANCH  17  20
ENDBRANCH  16  17
ENDBRANCH   5  16
TORSDOF 5
ENDMDL
MODEL 8
REMARK VINA RESULT:     -10.7      5.608      9.475
REMARK  Name = 24864821
REMARK  5 active torsions:
REMARK  status: ('A' for Active; 'I' for Inactive)
REMARK    1  A    between atoms: C_5  and  C_16
REMARK    2  A    between atoms: C_7  and  C_10
REMARK    3  A    between atoms: C_16  and  O_17
REMARK    4  A    between atoms: O_17  and  C_20
REMARK    5  A    between atoms: C_25  and  O_28
REMARK                            x       y       z     vdW  Elec       q    Type
REMARK                         _______ _______ _______ _____ _____    ______ ____
ROOT
ATOM      1  N   UNL     1      34.759 -17.201 -22.905  0.00  0.00    -0.191 N 
ATOM      2  N   UNL     1      34.723 -17.941 -21.769  0.00  0.00    -0.163 NA
ATOM      3  N   UNL     1      34.756 -15.482 -24.264  0.00  0.00    -0.128 NA
ATOM      4  N   UNL     1      34.882 -16.629 -25.020  0.00  0.00    -0.127 NA
ATOM      5  C   UNL     1      34.684 -15.842 -23.002  0.00  0.00    +0.208 A 
ATOM      6  C   UNL     1      34.883 -17.654 -24.197  0.00  0.00    +0.186 A 
ATOM      7  C   UNL     1      34.825 -19.225 -21.974  0.00  0.00    +0.101 C 
ATOM      8  C   UNL     1      34.973 -19.047 -24.389  0.00  0.00    +0.042 C 
ATOM      9  C   UNL     1      34.947 -19.860 -23.325  0.00  0.00    +0.024 C 
ENDROOT
BRANCH   7  10
ATOM     10  C   UNL     1      34.803 -20.144 -20.806  0.00  0.00    +0.019 C 
ATOM     11  C   UNL     1      35.999 -20.608 -20.260  0.00  0.00    +0.002 C 
ATOM     12  C   UNL     1      33.585 -20.540 -20.254  0.00  0.00    +0.002 C 
ATOM     13  C   UNL     1      35.978 -21.468 -19.163  0.00  0.00    +0.000 C 
ATOM     14  C   UNL     1      33.563 -21.400 -19.157  0.00  0.00    +0.000 C 
ATOM     15  C   UNL     1      34.760 -21.866 -18.611  0.00  0.00    +0.000 C 
ENDBRANCH   7  10
BRANCH   5  16
ATOM     16  C   UNL     1      34.542 -14.941 -21.811  0.00  0.00    +0.272 C 
BRANCH  16  17
ATOM     17  O   UNL     1      34.344 -13.602 -22.262  0.00  0.00    -0.467 OA
BRANCH  17  20
ATOM     18  N   UNL     1      31.195 -11.549 -20.513  0.00  0.00    -0.248 NA
ATOM     19  C   UNL     1      32.971 -11.621 -22.138  0.00  0.00    +0.030 C 
ATOM     20  C   UNL     1      33.312 -12.908 -21.701  0.00  0.00    +0.138 C 
ATOM     21  C   UNL     1      31.891 -10.969 -21.508  0.00  0.00    +0.066 C 
ATOM     22  C   UNL     1      33.676 -10.985 -23.175  0.00  0.00    +0.059 C 
ATOM     23  C   UNL     1      31.553  -9.690 -21.942  0.00  0.00    +0.109 C 
ATOM     24  C   UNL     1      32.596 -13.509 -20.676  0.00  0.00    +0.057 C 
ATOM     25  C   UNL     1      32.254  -9.058 -22.972  0.00  0.00    +0.118 C 
ATOM     26  C   UNL     1      33.317  -9.706 -23.589  0.00  0.00    +0.011 C 
ATOM     27  C   UNL     1      31.555 -12.793 -20.120  0.00  0.00    +0.102 C 
BRANCH  25  28
ATOM     28  O   UNL     1      31.893  -7.808 -23.371  0.00  0.00    -0.476 OA
ATOM     29  C   UNL     1      31.088  -7.046 -22.472  0.00  0.00    +0.252 C 
ENDBRANCH  25  28
ENDBRANCH  17  20
ENDBRANCH  16  17
ENDBRANCH   5  16
TORSDOF 5
ENDMDL
MODEL 9
REMARK VINA RESULT:     -10.7      3.826      9.460
REMARK  Name = 24864821
REMARK  5 active torsions:
REMARK  status: ('A' for Active; 'I' for Inactive)
REMARK    1  A    between atoms: C_5  and  C_16
REMARK    2  A    between atoms: C_7  and  C_10
REMARK    3  A    between atoms: C_16  and  O_17
REMARK    4  A    between atoms: O_17  and  C_20
REMARK    5  A    between atoms: C_25  and  O_28
REMARK                            x       y       z     vdW  Elec       q    Type
REMARK                         _______ _______ _______ _____ _____    ______ ____
ROOT
ATOM      1  N   UNL     1      34.506 -16.256 -22.950  0.00  0.00    -0.191 N 
ATOM      2  N   UNL     1      34.002 -15.355 -22.070  0.00  0.00    -0.163 NA
ATOM      3  N   UNL     1      35.500 -18.032 -23.763  0.00  0.00    -0.128 NA
ATOM      4  N   UNL     1      35.054 -17.265 -24.821  0.00  0.00    -0.127 NA
ATOM      5  C   UNL     1      35.164 -17.414 -22.654  0.00  0.00    +0.208 A 
ATOM      6  C   UNL     1      34.459 -16.203 -24.323  0.00  0.00    +0.186 A 
ATOM      7  C   UNL     1      33.411 -14.340 -22.636  0.00  0.00    +0.101 C 
ATOM      8  C   UNL     1      33.830 -15.086 -24.907  0.00  0.00    +0.042 C 
ATOM      9  C   UNL     1      33.301 -14.142 -24.117  0.00  0.00    +0.024 C 
ENDROOT
BRANCH   7  10
ATOM     10  C   UNL     1      32.814 -13.285 -21.777  0.00  0.00    +0.019 C 
ATOM     11  C   UNL     1      32.542 -12.024 -22.308  0.00  0.00    +0.002 C 
ATOM     12  C   UNL     1      32.524 -13.556 -20.440  0.00  0.00    +0.002 C 
ATOM     13  C   UNL     1      31.980 -11.035 -21.502  0.00  0.00    +0.000 C 
ATOM     14  C   UNL     1      31.962 -12.567 -19.634  0.00  0.00    +0.000 C 
ATOM     15  C   UNL     1      31.690 -11.305 -20.164  0.00  0.00    +0.000 C 
ENDBRANCH   7  10
BRANCH   5  16
ATOM     16  C   UNL     1      35.436 -17.867 -21.249  0.00  0.00    +0.272 C 
BRANCH  16  17
ATOM     17  O   UNL     1      35.695 -19.269 -21.255  0.00  0.00    -0.467 OA
BRANCH  17  20
ATOM     18  N   UNL     1      32.977 -21.656 -19.228  0.00  0.00    -0.248 NA
ATOM     19  C   UNL     1      35.230 -20.841 -19.484  0.00  0.00    +0.030 C 
ATOM     20  C   UNL     1      34.819 -20.062 -20.573  0.00  0.00    +0.138 C 
ATOM     21  C   UNL     1      34.263 -21.635 -18.831  0.00  0.00    +0.066 C 
ATOM     22  C   UNL     1      36.564 -20.844 -19.042  0.00  0.00    +0.059 C 
ATOM     23  C   UNL     1      34.673 -22.409 -17.749  0.00  0.00    +0.109 C 
ATOM     24  C   UNL     1      33.494 -20.082 -20.984  0.00  0.00    +0.057 C 
ATOM     25  C   UNL     1      35.999 -22.411 -17.310  0.00  0.00    +0.118 C 
ATOM     26  C   UNL     1      36.946 -21.627 -17.958  0.00  0.00    +0.011 C 
ATOM     27  C   UNL     1      32.620 -20.889 -20.283  0.00  0.00    +0.102 C 
BRANCH  25  28
ATOM     28  O   UNL     1      36.362 -23.180 -16.248  0.00  0.00    -0.476 OA
ATOM     29  C   UNL     1      37.565 -22.821 -15.568  0.00  0.00    +0.252 C 
ENDBRANCH  25  28
ENDBRANCH  17  20
ENDBRANCH  16  17
ENDBRANCH   5  16
TORSDOF 5
ENDMDL
