MODEL 1
REMARK VINA RESULT:     -11.2      0.000      0.000
REMARK  Name = 25052630
REMARK  6 active torsions:
REMARK  status: ('A' for Active; 'I' for Inactive)
REMARK    1  A    between atoms: N_2  and  C_11
REMARK    2  A    between atoms: C_4  and  C_20
REMARK    3  A    between atoms: C_20  and  C_21
REMARK    4  A    between atoms: C_21  and  N_22
REMARK    5  A    between atoms: N_22  and  C_25
REMARK    6  A    between atoms: C_25  and  C_26
REMARK                            x       y       z     vdW  Elec       q    Type
REMARK                         _______ _______ _______ _____ _____    ______ ____
ROOT
ATOM      1  S   UNL     1      37.190 -27.282 -14.017  0.00  0.00    -0.018 S 
ATOM      2  N   UNL     1      36.569 -24.622 -14.630  0.00  0.00    -0.270 N 
ATOM      3  N   UNL     1      38.741 -25.183 -14.807  0.00  0.00    -0.294 N 
ATOM      4  C   UNL     1      37.308 -23.512 -15.036  0.00  0.00    +0.043 C 
ATOM      5  C   UNL     1      37.473 -25.713 -14.476  0.00  0.00    +0.142 C 
ATOM      6  C   UNL     1      38.600 -23.861 -15.137  0.00  0.00    +0.074 C 
ATOM      7  H   UNL     1      39.589 -25.683 -14.801  0.00  0.00    +0.154 HD
ENDROOT
BRANCH   2  11
ATOM      8  F   UNL     1      30.798 -23.702 -12.216  0.00  0.00    -0.201 F 
ATOM      9  F   UNL     1      29.866 -22.563 -16.710  0.00  0.00    -0.204 F 
ATOM     10  O   UNL     1      33.384 -24.123 -12.781  0.00  0.00    -0.472 OA
ATOM     11  C   UNL     1      35.144 -24.612 -14.418  0.00  0.00    +0.127 C 
ATOM     12  C   UNL     1      34.429 -23.817 -15.507  0.00  0.00    +0.054 C 
ATOM     13  C   UNL     1      34.784 -24.018 -13.060  0.00  0.00    +0.226 C 
ATOM     14  C   UNL     1      32.994 -23.580 -15.131  0.00  0.00    +0.018 C 
ATOM     15  C   UNL     1      32.562 -23.734 -13.807  0.00  0.00    +0.162 C 
ATOM     16  C   UNL     1      32.074 -23.174 -16.107  0.00  0.00    +0.029 C 
ATOM     17  C   UNL     1      31.221 -23.522 -13.474  0.00  0.00    +0.176 C 
ATOM     18  C   UNL     1      30.738 -22.951 -15.769  0.00  0.00    +0.142 C 
ATOM     19  C   UNL     1      30.312 -23.130 -14.455  0.00  0.00    +0.062 C 
ENDBRANCH   2  11
BRANCH   4  20
ATOM     20  C   UNL     1      36.696 -22.187 -15.297  0.00  0.00    +0.019 C 
BRANCH  20  21
ATOM     21  C   UNL     1      37.179 -21.596 -16.621  0.00  0.00    -0.075 C 
BRANCH  21  22
ATOM     22  N   UNL     1      36.739 -22.421 -17.740  0.00  0.00    +0.387 N 
ATOM     23  H   UNL     1      35.778 -22.722 -17.575  0.00  0.00    -0.084 HD
ATOM     24  H   UNL     1      37.357 -23.229 -17.812  0.00  0.00    -0.084 HD
BRANCH  22  25
ATOM     25  C   UNL     1      36.798 -21.675 -18.989  0.00  0.00    -0.054 C 
BRANCH  25  26
ATOM     26  C   UNL     1      35.432 -21.245 -19.451  0.00  0.00    -0.044 C 
ATOM     27  C   UNL     1      34.292 -21.840 -18.907  0.00  0.00    -0.006 C 
ATOM     28  C   UNL     1      35.305 -20.251 -20.421  0.00  0.00    -0.006 C 
ATOM     29  C   UNL     1      33.026 -21.440 -19.335  0.00  0.00    -0.000 C 
ATOM     30  C   UNL     1      34.037 -19.852 -20.848  0.00  0.00    -0.000 C 
ATOM     31  C   UNL     1      32.899 -20.447 -20.305  0.00  0.00    -0.000 C 
ENDBRANCH  25  26
ENDBRANCH  22  25
ENDBRANCH  21  22
ENDBRANCH  20  21
ENDBRANCH   4  20
TORSDOF 6
ENDMDL
MODEL 2
REMARK VINA RESULT:     -10.8      8.561     12.037
REMARK  Name = 25052630
REMARK  6 active torsions:
REMARK  status: ('A' for Active; 'I' for Inactive)
REMARK    1  A    between atoms: N_2  and  C_11
REMARK    2  A    between atoms: C_4  and  C_20
REMARK    3  A    between atoms: C_20  and  C_21
REMARK    4  A    between atoms: C_21  and  N_22
REMARK    5  A    between atoms: N_22  and  C_25
REMARK    6  A    between atoms: C_25  and  C_26
REMARK                            x       y       z     vdW  Elec       q    Type
REMARK                         _______ _______ _______ _____ _____    ______ ____
ROOT
ATOM      1  S   UNL     1      33.079 -13.969 -26.262  0.00  0.00    -0.018 S 
ATOM      2  N   UNL     1      34.149 -14.579 -23.747  0.00  0.00    -0.270 N 
ATOM      3  N   UNL     1      34.276 -16.217 -25.286  0.00  0.00    -0.294 N 
ATOM      4  C   UNL     1      34.768 -15.698 -23.192  0.00  0.00    +0.043 C 
ATOM      5  C   UNL     1      33.823 -14.891 -25.100  0.00  0.00    +0.142 C 
ATOM      6  C   UNL     1      34.837 -16.666 -24.119  0.00  0.00    +0.074 C 
ATOM      7  H   UNL     1      34.200 -16.735 -26.119  0.00  0.00    +0.154 HD
ENDROOT
BRANCH   2  11
ATOM      8  F   UNL     1      32.835  -8.571 -22.282  0.00  0.00    -0.201 F 
ATOM      9  F   UNL     1      30.188 -10.691 -18.986  0.00  0.00    -0.204 F 
ATOM     10  O   UNL     1      33.593 -10.933 -23.298  0.00  0.00    -0.472 OA
ATOM     11  C   UNL     1      33.907 -13.351 -23.035  0.00  0.00    +0.127 C 
ATOM     12  C   UNL     1      32.681 -13.468 -22.133  0.00  0.00    +0.054 C 
ATOM     13  C   UNL     1      33.702 -12.181 -23.991  0.00  0.00    +0.226 C 
ATOM     14  C   UNL     1      32.278 -12.117 -21.614  0.00  0.00    +0.018 C 
ATOM     15  C   UNL     1      32.741 -10.944 -22.224  0.00  0.00    +0.162 C 
ATOM     16  C   UNL     1      31.405 -12.021 -20.522  0.00  0.00    +0.029 C 
ATOM     17  C   UNL     1      32.367  -9.694 -21.722  0.00  0.00    +0.176 C 
ATOM     18  C   UNL     1      31.023 -10.772 -20.031  0.00  0.00    +0.142 C 
ATOM     19  C   UNL     1      31.507  -9.610 -20.628  0.00  0.00    +0.062 C 
ENDBRANCH   2  11
BRANCH   4  20
ATOM     20  C   UNL     1      35.249 -15.739 -21.790  0.00  0.00    +0.019 C 
BRANCH  20  21
ATOM     21  C   UNL     1      34.707 -16.960 -21.046  0.00  0.00    -0.075 C 
BRANCH  21  22
ATOM     22  N   UNL     1      35.744 -17.977 -20.908  0.00  0.00    +0.387 N 
ATOM     23  H   UNL     1      35.917 -18.144 -19.917  0.00  0.00    -0.084 HD
ATOM     24  H   UNL     1      36.591 -17.643 -21.366  0.00  0.00    -0.084 HD
BRANCH  22  25
ATOM     25  C   UNL     1      35.334 -19.223 -21.539  0.00  0.00    -0.054 C 
BRANCH  25  26
ATOM     26  C   UNL     1      34.919 -20.256 -20.524  0.00  0.00    -0.044 C 
ATOM     27  C   UNL     1      33.566 -20.456 -20.247  0.00  0.00    -0.006 C 
ATOM     28  C   UNL     1      35.886 -21.013 -19.864  0.00  0.00    -0.006 C 
ATOM     29  C   UNL     1      33.182 -21.413 -19.308  0.00  0.00    -0.000 C 
ATOM     30  C   UNL     1      35.501 -21.970 -18.924  0.00  0.00    -0.000 C 
ATOM     31  C   UNL     1      34.149 -22.169 -18.647  0.00  0.00    -0.000 C 
ENDBRANCH  25  26
ENDBRANCH  22  25
ENDBRANCH  21  22
ENDBRANCH  20  21
ENDBRANCH   4  20
TORSDOF 6
ENDMDL
MODEL 3
REMARK VINA RESULT:     -10.0     10.977     14.624
REMARK  Name = 25052630
REMARK  6 active torsions:
REMARK  status: ('A' for Active; 'I' for Inactive)
REMARK    1  A    between atoms: N_2  and  C_11
REMARK    2  A    between atoms: C_4  and  C_20
REMARK    3  A    between atoms: C_20  and  C_21
REMARK    4  A    between atoms: C_21  and  N_22
REMARK    5  A    between atoms: N_22  and  C_25
REMARK    6  A    between atoms: C_25  and  C_26
REMARK                            x       y       z     vdW  Elec       q    Type
REMARK                         _______ _______ _______ _____ _____    ______ ____
ROOT
ATOM      1  S   UNL     1      31.331 -11.170 -19.393  0.00  0.00    -0.018 S 
ATOM      2  N   UNL     1      32.388 -11.850 -21.895  0.00  0.00    -0.270 N 
ATOM      3  N   UNL     1      32.275 -13.524 -20.395  0.00  0.00    -0.294 N 
ATOM      4  C   UNL     1      32.882 -13.022 -22.463  0.00  0.00    +0.043 C 
ATOM      5  C   UNL     1      31.989 -12.149 -20.559  0.00  0.00    +0.142 C 
ATOM      6  C   UNL     1      32.809 -14.011 -21.558  0.00  0.00    +0.074 C 
ATOM      7  H   UNL     1      32.117 -14.047 -19.576  0.00  0.00    +0.154 HD
ENDROOT
BRANCH   2  11
ATOM      8  F   UNL     1      31.052  -5.882 -23.500  0.00  0.00    -0.201 F 
ATOM      9  F   UNL     1      35.673  -5.859 -24.504  0.00  0.00    -0.204 F 
ATOM     10  O   UNL     1      31.179  -8.413 -22.627  0.00  0.00    -0.472 OA
ATOM     11  C   UNL     1      32.316 -10.586 -22.581  0.00  0.00    +0.127 C 
ATOM     12  C   UNL     1      33.691  -9.931 -22.678  0.00  0.00    +0.054 C 
ATOM     13  C   UNL     1      31.361  -9.623 -21.883  0.00  0.00    +0.226 C 
ATOM     14  C   UNL     1      33.565  -8.507 -23.141  0.00  0.00    +0.018 C 
ATOM     15  C   UNL     1      32.337  -7.836 -23.079  0.00  0.00    +0.162 C 
ATOM     16  C   UNL     1      34.693  -7.825 -23.618  0.00  0.00    +0.029 C 
ATOM     17  C   UNL     1      32.232  -6.515 -23.525  0.00  0.00    +0.176 C 
ATOM     18  C   UNL     1      34.588  -6.502 -24.050  0.00  0.00    +0.142 C 
ATOM     19  C   UNL     1      33.359  -5.850 -24.008  0.00  0.00    +0.062 C 
ENDBRANCH   2  11
BRANCH   4  20
ATOM     20  C   UNL     1      33.392 -13.092 -23.854  0.00  0.00    +0.019 C 
BRANCH  20  21
ATOM     21  C   UNL     1      33.473 -14.535 -24.351  0.00  0.00    -0.075 C 
BRANCH  21  22
ATOM     22  N   UNL     1      34.831 -15.048 -24.213  0.00  0.00    +0.387 N 
ATOM     23  H   UNL     1      35.121 -14.967 -23.238  0.00  0.00    -0.084 HD
ATOM     24  H   UNL     1      35.449 -14.502 -24.813  0.00  0.00    -0.084 HD
BRANCH  22  25
ATOM     25  C   UNL     1      34.902 -16.444 -24.618  0.00  0.00    -0.054 C 
BRANCH  25  26
ATOM     26  C   UNL     1      34.977 -17.369 -23.432  0.00  0.00    -0.044 C 
ATOM     27  C   UNL     1      34.819 -18.745 -23.609  0.00  0.00    -0.006 C 
ATOM     28  C   UNL     1      35.208 -16.852 -22.158  0.00  0.00    -0.006 C 
ATOM     29  C   UNL     1      34.889 -19.601 -22.511  0.00  0.00    -0.000 C 
ATOM     30  C   UNL     1      35.278 -17.710 -21.059  0.00  0.00    -0.000 C 
ATOM     31  C   UNL     1      35.119 -19.084 -21.236  0.00  0.00    -0.000 C 
ENDBRANCH  25  26
ENDBRANCH  22  25
ENDBRANCH  21  22
ENDBRANCH  20  21
ENDBRANCH   4  20
TORSDOF 6
ENDMDL
MODEL 4
REMARK VINA RESULT:      -9.7      1.956      2.844
REMARK  Name = 25052630
REMARK  6 active torsions:
REMARK  status: ('A' for Active; 'I' for Inactive)
REMARK    1  A    between atoms: N_2  and  C_11
REMARK    2  A    between atoms: C_4  and  C_20
REMARK    3  A    between atoms: C_20  and  C_21
REMARK    4  A    between atoms: C_21  and  N_22
REMARK    5  A    between atoms: N_22  and  C_25
REMARK    6  A    between atoms: C_25  and  C_26
REMARK                            x       y       z     vdW  Elec       q    Type
REMARK                         _______ _______ _______ _____ _____    ______ ____
ROOT
ATOM      1  S   UNL     1      37.202 -23.803 -13.601  0.00  0.00    -0.018 S 
ATOM      2  N   UNL     1      35.772 -23.067 -15.893  0.00  0.00    -0.270 N 
ATOM      3  N   UNL     1      37.895 -22.327 -15.788  0.00  0.00    -0.294 N 
ATOM      4  C   UNL     1      36.067 -22.322 -17.034  0.00  0.00    +0.043 C 
ATOM      5  C   UNL     1      36.938 -23.085 -15.073  0.00  0.00    +0.142 C 
ATOM      6  C   UNL     1      37.335 -21.888 -16.957  0.00  0.00    +0.074 C 
ATOM      7  H   UNL     1      38.816 -22.145 -15.492  0.00  0.00    +0.154 HD
ENDROOT
BRANCH   2  11
ATOM      8  F   UNL     1      30.679 -25.536 -13.075  0.00  0.00    -0.201 F 
ATOM      9  F   UNL     1      28.477 -22.999 -16.402  0.00  0.00    -0.204 F 
ATOM     10  O   UNL     1      33.078 -24.662 -13.891  0.00  0.00    -0.472 OA
ATOM     11  C   UNL     1      34.498 -23.687 -15.638  0.00  0.00    +0.127 C 
ATOM     12  C   UNL     1      33.351 -22.831 -16.170  0.00  0.00    +0.054 C 
ATOM     13  C   UNL     1      34.280 -23.928 -14.148  0.00  0.00    +0.226 C 
ATOM     14  C   UNL     1      32.033 -23.342 -15.661  0.00  0.00    +0.018 C 
ATOM     15  C   UNL     1      31.972 -24.206 -14.560  0.00  0.00    +0.162 C 
ATOM     16  C   UNL     1      30.841 -22.931 -16.274  0.00  0.00    +0.029 C 
ATOM     17  C   UNL     1      30.739 -24.682 -14.106  0.00  0.00    +0.176 C 
ATOM     18  C   UNL     1      29.611 -23.398 -15.810  0.00  0.00    +0.142 C 
ATOM     19  C   UNL     1      29.560 -24.276 -14.730  0.00  0.00    +0.062 C 
ENDBRANCH   2  11
BRANCH   4  20
ATOM     20  C   UNL     1      35.084 -22.089 -18.120  0.00  0.00    +0.019 C 
BRANCH  20  21
ATOM     21  C   UNL     1      35.772 -21.940 -19.477  0.00  0.00    -0.075 C 
BRANCH  21  22
ATOM     22  N   UNL     1      35.774 -20.544 -19.899  0.00  0.00    +0.387 N 
ATOM     23  H   UNL     1      36.581 -20.379 -20.501  0.00  0.00    -0.084 HD
ATOM     24  H   UNL     1      35.822 -19.953 -19.070  0.00  0.00    -0.084 HD
BRANCH  22  25
ATOM     25  C   UNL     1      34.558 -20.222 -20.632  0.00  0.00    -0.054 C 
BRANCH  25  26
ATOM     26  C   UNL     1      34.775 -19.102 -21.614  0.00  0.00    -0.044 C 
ATOM     27  C   UNL     1      34.739 -19.360 -22.985  0.00  0.00    -0.006 C 
ATOM     28  C   UNL     1      35.008 -17.807 -21.154  0.00  0.00    -0.006 C 
ATOM     29  C   UNL     1      34.939 -18.323 -23.895  0.00  0.00    -0.000 C 
ATOM     30  C   UNL     1      35.208 -16.769 -22.066  0.00  0.00    -0.000 C 
ATOM     31  C   UNL     1      35.174 -17.027 -23.436  0.00  0.00    -0.000 C 
ENDBRANCH  25  26
ENDBRANCH  22  25
ENDBRANCH  21  22
ENDBRANCH  20  21
ENDBRANCH   4  20
TORSDOF 6
ENDMDL
MODEL 5
REMARK VINA RESULT:      -9.7      5.594      9.553
REMARK  Name = 25052630
REMARK  6 active torsions:
REMARK  status: ('A' for Active; 'I' for Inactive)
REMARK    1  A    between atoms: N_2  and  C_11
REMARK    2  A    between atoms: C_4  and  C_20
REMARK    3  A    between atoms: C_20  and  C_21
REMARK    4  A    between atoms: C_21  and  N_22
REMARK    5  A    between atoms: N_22  and  C_25
REMARK    6  A    between atoms: C_25  and  C_26
REMARK                            x       y       z     vdW  Elec       q    Type
REMARK                         _______ _______ _______ _____ _____    ______ ____
ROOT
ATOM      1  S   UNL     1      38.107 -18.301 -21.487  0.00  0.00    -0.018 S 
ATOM      2  N   UNL     1      35.463 -19.090 -21.011  0.00  0.00    -0.270 N 
ATOM      3  N   UNL     1      37.052 -20.487 -20.244  0.00  0.00    -0.294 N 
ATOM      4  C   UNL     1      34.865 -20.184 -20.388  0.00  0.00    +0.043 C 
ATOM      5  C   UNL     1      36.876 -19.264 -20.930  0.00  0.00    +0.142 C 
ATOM      6  C   UNL     1      35.823 -21.008 -19.936  0.00  0.00    +0.074 C 
ATOM      7  H   UNL     1      37.918 -20.900 -20.024  0.00  0.00    +0.154 HD
ENDROOT
BRANCH   2  11
ATOM      8  F   UNL     1      33.128 -13.382 -22.405  0.00  0.00    -0.201 F 
ATOM      9  F   UNL     1      34.039 -14.859 -26.803  0.00  0.00    -0.204 F 
ATOM     10  O   UNL     1      34.120 -15.642 -21.361  0.00  0.00    -0.472 OA
ATOM     11  C   UNL     1      34.735 -18.004 -21.614  0.00  0.00    +0.127 C 
ATOM     12  C   UNL     1      35.155 -17.796 -23.067  0.00  0.00    +0.054 C 
ATOM     13  C   UNL     1      34.942 -16.699 -20.852  0.00  0.00    +0.226 C 
ATOM     14  C   UNL     1      34.601 -16.504 -23.596  0.00  0.00    +0.018 C 
ATOM     15  C   UNL     1      34.132 -15.511 -22.725  0.00  0.00    +0.162 C 
ATOM     16  C   UNL     1      34.573 -16.270 -24.977  0.00  0.00    +0.029 C 
ATOM     17  C   UNL     1      33.608 -14.319 -23.233  0.00  0.00    +0.176 C 
ATOM     18  C   UNL     1      34.061 -15.073 -25.481  0.00  0.00    +0.142 C 
ATOM     19  C   UNL     1      33.575 -14.101 -24.610  0.00  0.00    +0.062 C 
ENDBRANCH   2  11
BRANCH   4  20
ATOM     20  C   UNL     1      33.395 -20.345 -20.279  0.00  0.00    +0.019 C 
BRANCH  20  21
ATOM     21  C   UNL     1      33.017 -21.745 -19.796  0.00  0.00    -0.075 C 
BRANCH  21  22
ATOM     22  N   UNL     1      32.636 -21.715 -18.389  0.00  0.00    +0.387 N 
ATOM     23  H   UNL     1      31.621 -21.785 -18.316  0.00  0.00    -0.084 HD
ATOM     24  H   UNL     1      32.962 -20.839 -17.981  0.00  0.00    -0.084 HD
BRANCH  22  25
ATOM     25  C   UNL     1      33.244 -22.821 -17.663  0.00  0.00    -0.054 C 
BRANCH  25  26
ATOM     26  C   UNL     1      32.588 -23.043 -16.326  0.00  0.00    -0.044 C 
ATOM     27  C   UNL     1      31.209 -22.877 -16.190  0.00  0.00    -0.006 C 
ATOM     28  C   UNL     1      33.358 -23.417 -15.226  0.00  0.00    -0.006 C 
ATOM     29  C   UNL     1      30.602 -23.084 -14.952  0.00  0.00    -0.000 C 
ATOM     30  C   UNL     1      32.749 -23.624 -13.987  0.00  0.00    -0.000 C 
ATOM     31  C   UNL     1      31.371 -23.457 -13.850  0.00  0.00    -0.000 C 
ENDBRANCH  25  26
ENDBRANCH  22  25
ENDBRANCH  21  22
ENDBRANCH  20  21
ENDBRANCH   4  20
TORSDOF 6
ENDMDL
MODEL 6
REMARK VINA RESULT:      -9.6      3.314      5.327
REMARK  Name = 25052630
REMARK  6 active torsions:
REMARK  status: ('A' for Active; 'I' for Inactive)
REMARK    1  A    between atoms: N_2  and  C_11
REMARK    2  A    between atoms: C_4  and  C_20
REMARK    3  A    between atoms: C_20  and  C_21
REMARK    4  A    between atoms: C_21  and  N_22
REMARK    5  A    between atoms: N_22  and  C_25
REMARK    6  A    between atoms: C_25  and  C_26
REMARK                            x       y       z     vdW  Elec       q    Type
REMARK                         _______ _______ _______ _____ _____    ______ ____
ROOT
ATOM      1  S   UNL     1      31.518 -25.035 -13.110  0.00  0.00    -0.018 S 
ATOM      2  N   UNL     1      33.100 -23.779 -15.049  0.00  0.00    -0.270 N 
ATOM      3  N   UNL     1      30.918 -23.992 -15.557  0.00  0.00    -0.294 N 
ATOM      4  C   UNL     1      32.855 -23.230 -16.306  0.00  0.00    +0.043 C 
ATOM      5  C   UNL     1      31.863 -24.278 -14.545  0.00  0.00    +0.142 C 
ATOM      6  C   UNL     1      31.552 -23.364 -16.596  0.00  0.00    +0.074 C 
ATOM      7  H   UNL     1      29.959 -24.210 -15.522  0.00  0.00    +0.154 HD
ENDROOT
BRANCH   2  11
ATOM      8  F   UNL     1      37.788 -24.298 -10.838  0.00  0.00    -0.201 F 
ATOM      9  F   UNL     1      39.750 -26.748 -14.375  0.00  0.00    -0.204 F 
ATOM     10  O   UNL     1      35.546 -23.907 -12.254  0.00  0.00    -0.472 OA
ATOM     11  C   UNL     1      34.394 -23.812 -14.418  0.00  0.00    +0.127 C 
ATOM     12  C   UNL     1      35.260 -24.930 -14.991  0.00  0.00    +0.054 C 
ATOM     13  C   UNL     1      34.277 -24.006 -12.910  0.00  0.00    +0.226 C 
ATOM     14  C   UNL     1      36.487 -25.132 -14.147  0.00  0.00    +0.018 C 
ATOM     15  C   UNL     1      36.554 -24.625 -12.842  0.00  0.00    +0.162 C 
ATOM     16  C   UNL     1      37.572 -25.858 -14.655  0.00  0.00    +0.029 C 
ATOM     17  C   UNL     1      37.707 -24.810 -12.073  0.00  0.00    +0.176 C 
ATOM     18  C   UNL     1      38.717 -26.052 -13.880  0.00  0.00    +0.142 C 
ATOM     19  C   UNL     1      38.786 -25.525 -12.593  0.00  0.00    +0.062 C 
ENDBRANCH   2  11
BRANCH   4  20
ATOM     20  C   UNL     1      33.918 -22.612 -17.136  0.00  0.00    +0.019 C 
BRANCH  20  21
ATOM     21  C   UNL     1      33.566 -22.656 -18.623  0.00  0.00    -0.075 C 
BRANCH  21  22
ATOM     22  N   UNL     1      33.906 -21.392 -19.267  0.00  0.00    +0.387 N 
ATOM     23  H   UNL     1      33.636 -20.622 -18.655  0.00  0.00    -0.084 HD
ATOM     24  H   UNL     1      33.406 -21.334 -20.154  0.00  0.00    -0.084 HD
BRANCH  22  25
ATOM     25  C   UNL     1      35.335 -21.313 -19.531  0.00  0.00    -0.054 C 
BRANCH  25  26
ATOM     26  C   UNL     1      35.659 -20.254 -20.552  0.00  0.00    -0.044 C 
ATOM     27  C   UNL     1      36.909 -19.633 -20.540  0.00  0.00    -0.006 C 
ATOM     28  C   UNL     1      34.712 -19.896 -21.509  0.00  0.00    -0.006 C 
ATOM     29  C   UNL     1      37.209 -18.653 -21.485  0.00  0.00    -0.000 C 
ATOM     30  C   UNL     1      35.013 -18.914 -22.456  0.00  0.00    -0.000 C 
ATOM     31  C   UNL     1      36.262 -18.294 -22.443  0.00  0.00    -0.000 C 
ENDBRANCH  25  26
ENDBRANCH  22  25
ENDBRANCH  21  22
ENDBRANCH  20  21
ENDBRANCH   4  20
TORSDOF 6
ENDMDL
MODEL 7
REMARK VINA RESULT:      -9.6      1.780      2.427
REMARK  Name = 25052630
REMARK  6 active torsions:
REMARK  status: ('A' for Active; 'I' for Inactive)
REMARK    1  A    between atoms: N_2  and  C_11
REMARK    2  A    between atoms: C_4  and  C_20
REMARK    3  A    between atoms: C_20  and  C_21
REMARK    4  A    between atoms: C_21  and  N_22
REMARK    5  A    between atoms: N_22  and  C_25
REMARK    6  A    between atoms: C_25  and  C_26
REMARK                            x       y       z     vdW  Elec       q    Type
REMARK                         _______ _______ _______ _____ _____    ______ ____
ROOT
ATOM      1  S   UNL     1      35.632 -24.599 -12.048  0.00  0.00    -0.018 S 
ATOM      2  N   UNL     1      35.162 -23.644 -14.637  0.00  0.00    -0.270 N 
ATOM      3  N   UNL     1      37.188 -23.177 -13.778  0.00  0.00    -0.294 N 
ATOM      4  C   UNL     1      35.909 -22.919 -15.564  0.00  0.00    +0.043 C 
ATOM      5  C   UNL     1      35.968 -23.823 -13.475  0.00  0.00    +0.142 C 
ATOM      6  C   UNL     1      37.114 -22.648 -15.039  0.00  0.00    +0.074 C 
ATOM      7  H   UNL     1      37.967 -23.116 -13.178  0.00  0.00    +0.154 HD
ENDROOT
BRANCH   2  11
ATOM      8  F   UNL     1      29.306 -25.900 -13.864  0.00  0.00    -0.201 F 
ATOM      9  F   UNL     1      28.305 -22.353 -16.827  0.00  0.00    -0.204 F 
ATOM     10  O   UNL     1      31.902 -25.234 -13.827  0.00  0.00    -0.472 OA
ATOM     11  C   UNL     1      33.817 -24.106 -14.865  0.00  0.00    +0.127 C 
ATOM     12  C   UNL     1      32.933 -22.986 -15.409  0.00  0.00    +0.054 C 
ATOM     13  C   UNL     1      33.188 -24.651 -13.587  0.00  0.00    +0.226 C 
ATOM     14  C   UNL     1      31.488 -23.395 -15.381  0.00  0.00    +0.018 C 
ATOM     15  C   UNL     1      31.059 -24.473 -14.594  0.00  0.00    +0.162 C 
ATOM     16  C   UNL     1      30.544 -22.677 -16.128  0.00  0.00    +0.029 C 
ATOM     17  C   UNL     1      29.713 -24.849 -14.588  0.00  0.00    +0.176 C 
ATOM     18  C   UNL     1      29.199 -23.047 -16.110  0.00  0.00    +0.142 C 
ATOM     19  C   UNL     1      28.785 -24.134 -15.344  0.00  0.00    +0.062 C 
ENDBRANCH   2  11
BRANCH   4  20
ATOM     20  C   UNL     1      35.389 -22.543 -16.901  0.00  0.00    +0.019 C 
BRANCH  20  21
ATOM     21  C   UNL     1      36.484 -21.939 -17.780  0.00  0.00    -0.075 C 
BRANCH  21  22
ATOM     22  N   UNL     1      36.143 -22.078 -19.191  0.00  0.00    +0.387 N 
ATOM     23  H   UNL     1      35.850 -23.039 -19.370  0.00  0.00    -0.084 HD
ATOM     24  H   UNL     1      36.963 -21.846 -19.749  0.00  0.00    -0.084 HD
BRANCH  22  25
ATOM     25  C   UNL     1      35.061 -21.174 -19.555  0.00  0.00    -0.054 C 
BRANCH  25  26
ATOM     26  C   UNL     1      35.487 -20.183 -20.605  0.00  0.00    -0.044 C 
ATOM     27  C   UNL     1      34.601 -19.819 -21.620  0.00  0.00    -0.006 C 
ATOM     28  C   UNL     1      36.765 -19.628 -20.562  0.00  0.00    -0.006 C 
ATOM     29  C   UNL     1      34.996 -18.901 -22.593  0.00  0.00    -0.000 C 
ATOM     30  C   UNL     1      37.159 -18.709 -21.536  0.00  0.00    -0.000 C 
ATOM     31  C   UNL     1      36.275 -18.346 -22.550  0.00  0.00    -0.000 C 
ENDBRANCH  25  26
ENDBRANCH  22  25
ENDBRANCH  21  22
ENDBRANCH  20  21
ENDBRANCH   4  20
TORSDOF 6
ENDMDL
MODEL 8
REMARK VINA RESULT:      -9.5      1.781      2.941
REMARK  Name = 25052630
REMARK  6 active torsions:
REMARK  status: ('A' for Active; 'I' for Inactive)
REMARK    1  A    between atoms: N_2  and  C_11
REMARK    2  A    between atoms: C_4  and  C_20
REMARK    3  A    between atoms: C_20  and  C_21
REMARK    4  A    between atoms: C_21  and  N_22
REMARK    5  A    between atoms: N_22  and  C_25
REMARK    6  A    between atoms: C_25  and  C_26
REMARK                            x       y       z     vdW  Elec       q    Type
REMARK                         _______ _______ _______ _____ _____    ______ ____
ROOT
ATOM      1  S   UNL     1      36.787 -25.279 -13.878  0.00  0.00    -0.018 S 
ATOM      2  N   UNL     1      36.448 -23.103 -15.607  0.00  0.00    -0.270 N 
ATOM      3  N   UNL     1      38.554 -23.867 -15.401  0.00  0.00    -0.294 N 
ATOM      4  C   UNL     1      37.302 -22.345 -16.406  0.00  0.00    +0.043 C 
ATOM      5  C   UNL     1      37.234 -24.093 -14.948  0.00  0.00    +0.142 C 
ATOM      6  C   UNL     1      38.554 -22.812 -16.274  0.00  0.00    +0.074 C 
ATOM      7  H   UNL     1      39.347 -24.385 -15.132  0.00  0.00    +0.154 HD
ENDROOT
BRANCH   2  11
ATOM      8  F   UNL     1      30.214 -23.078 -16.663  0.00  0.00    -0.201 F 
ATOM      9  F   UNL     1      30.136 -24.034 -12.033  0.00  0.00    -0.204 F 
ATOM     10  O   UNL     1      32.894 -23.082 -16.694  0.00  0.00    -0.472 OA
ATOM     11  C   UNL     1      35.029 -22.882 -15.502  0.00  0.00    +0.127 C 
ATOM     12  C   UNL     1      34.457 -23.545 -14.252  0.00  0.00    +0.054 C 
ATOM     13  C   UNL     1      34.287 -23.414 -16.724  0.00  0.00    +0.226 C 
ATOM     14  C   UNL     1      32.955 -23.546 -14.296  0.00  0.00    +0.018 C 
ATOM     15  C   UNL     1      32.270 -23.328 -15.499  0.00  0.00    +0.162 C 
ATOM     16  C   UNL     1      32.223 -23.793 -13.127  0.00  0.00    +0.029 C 
ATOM     17  C   UNL     1      30.872 -23.320 -15.521  0.00  0.00    +0.176 C 
ATOM     18  C   UNL     1      30.827 -23.796 -13.156  0.00  0.00    +0.142 C 
ATOM     19  C   UNL     1      30.153 -23.556 -14.350  0.00  0.00    +0.062 C 
ENDBRANCH   2  11
BRANCH   4  20
ATOM     20  C   UNL     1      36.831 -21.216 -17.245  0.00  0.00    +0.019 C 
BRANCH  20  21
ATOM     21  C   UNL     1      36.434 -21.684 -18.645  0.00  0.00    -0.075 C 
BRANCH  21  22
ATOM     22  N   UNL     1      36.411 -20.560 -19.573  0.00  0.00    +0.387 N 
ATOM     23  H   UNL     1      37.142 -20.689 -20.272  0.00  0.00    -0.084 HD
ATOM     24  H   UNL     1      36.569 -19.700 -19.048  0.00  0.00    -0.084 HD
BRANCH  22  25
ATOM     25  C   UNL     1      35.122 -20.466 -20.243  0.00  0.00    -0.054 C 
BRANCH  25  26
ATOM     26  C   UNL     1      35.120 -19.406 -21.312  0.00  0.00    -0.044 C 
ATOM     27  C   UNL     1      35.326 -18.069 -20.969  0.00  0.00    -0.006 C 
ATOM     28  C   UNL     1      34.916 -19.761 -22.645  0.00  0.00    -0.006 C 
ATOM     29  C   UNL     1      35.326 -17.088 -21.960  0.00  0.00    -0.000 C 
ATOM     30  C   UNL     1      34.916 -18.778 -23.636  0.00  0.00    -0.000 C 
ATOM     31  C   UNL     1      35.121 -17.442 -23.293  0.00  0.00    -0.000 C 
ENDBRANCH  25  26
ENDBRANCH  22  25
ENDBRANCH  21  22
ENDBRANCH  20  21
ENDBRANCH   4  20
TORSDOF 6
ENDMDL
MODEL 9
REMARK VINA RESULT:      -9.3      3.478      5.420
REMARK  Name = 25052630
REMARK  6 active torsions:
REMARK  status: ('A' for Active; 'I' for Inactive)
REMARK    1  A    between atoms: N_2  and  C_11
REMARK    2  A    between atoms: C_4  and  C_20
REMARK    3  A    between atoms: C_20  and  C_21
REMARK    4  A    between atoms: C_21  and  N_22
REMARK    5  A    between atoms: N_22  and  C_25
REMARK    6  A    between atoms: C_25  and  C_26
REMARK                            x       y       z     vdW  Elec       q    Type
REMARK                         _______ _______ _______ _____ _____    ______ ____
ROOT
ATOM      1  S   UNL     1      30.850 -24.476 -12.804  0.00  0.00    -0.018 S 
ATOM      2  N   UNL     1      32.749 -23.949 -14.794  0.00  0.00    -0.270 N 
ATOM      3  N   UNL     1      30.683 -23.146 -15.180  0.00  0.00    -0.294 N 
ATOM      4  C   UNL     1      32.726 -23.283 -16.017  0.00  0.00    +0.043 C 
ATOM      5  C   UNL     1      31.440 -23.874 -14.234  0.00  0.00    +0.142 C 
ATOM      6  C   UNL     1      31.489 -22.809 -16.234  0.00  0.00    +0.074 C 
ATOM      7  H   UNL     1      29.728 -22.919 -15.094  0.00  0.00    +0.154 HD
ENDROOT
BRANCH   2  11
ATOM      8  F   UNL     1      38.194 -27.085 -14.090  0.00  0.00    -0.201 F 
ATOM      9  F   UNL     1      39.045 -23.523 -11.098  0.00  0.00    -0.204 F 
ATOM     10  O   UNL     1      35.814 -26.051 -14.759  0.00  0.00    -0.472 OA
ATOM     11  C   UNL     1      33.917 -24.585 -14.240  0.00  0.00    +0.127 C 
ATOM     12  C   UNL     1      34.820 -23.571 -13.543  0.00  0.00    +0.054 C 
ATOM     13  C   UNL     1      34.725 -25.305 -15.315  0.00  0.00    +0.226 C 
ATOM     14  C   UNL     1      36.150 -24.188 -13.216  0.00  0.00    +0.018 C 
ATOM     15  C   UNL     1      36.570 -25.369 -13.842  0.00  0.00    +0.162 C 
ATOM     16  C   UNL     1      37.001 -23.564 -12.293  0.00  0.00    +0.029 C 
ATOM     17  C   UNL     1      37.805 -25.937 -13.519  0.00  0.00    +0.176 C 
ATOM     18  C   UNL     1      38.239 -24.127 -11.982  0.00  0.00    +0.142 C 
ATOM     19  C   UNL     1      38.639 -25.315 -12.590  0.00  0.00    +0.062 C 
ENDBRANCH   2  11
BRANCH   4  20
ATOM     20  C   UNL     1      33.919 -23.156 -16.889  0.00  0.00    +0.019 C 
BRANCH  20  21
ATOM     21  C   UNL     1      33.583 -22.450 -18.202  0.00  0.00    -0.075 C 
BRANCH  21  22
ATOM     22  N   UNL     1      34.626 -22.689 -19.193  0.00  0.00    +0.387 N 
ATOM     23  H   UNL     1      34.259 -22.481 -20.121  0.00  0.00    -0.084 HD
ATOM     24  H   UNL     1      34.915 -23.665 -19.134  0.00  0.00    -0.084 HD
BRANCH  22  25
ATOM     25  C   UNL     1      35.785 -21.844 -18.939  0.00  0.00    -0.054 C 
BRANCH  25  26
ATOM     26  C   UNL     1      35.868 -20.699 -19.912  0.00  0.00    -0.044 C 
ATOM     27  C   UNL     1      37.075 -20.019 -20.087  0.00  0.00    -0.006 C 
ATOM     28  C   UNL     1      34.742 -20.319 -20.640  0.00  0.00    -0.006 C 
ATOM     29  C   UNL     1      37.152 -18.958 -20.989  0.00  0.00    -0.000 C 
ATOM     30  C   UNL     1      34.820 -19.257 -21.543  0.00  0.00    -0.000 C 
ATOM     31  C   UNL     1      36.025 -18.577 -21.717  0.00  0.00    -0.000 C 
ENDBRANCH  25  26
ENDBRANCH  22  25
ENDBRANCH  21  22
ENDBRANCH  20  21
ENDBRANCH   4  20
TORSDOF 6
ENDMDL
