MODEL 1
REMARK VINA RESULT:     -12.0      0.000      0.000
REMARK  Name = 448890
REMARK  6 active torsions:
REMARK  status: ('A' for Active; 'I' for Inactive)
REMARK    1  A    between atoms: C_1  and  C_2
REMARK    2  A    between atoms: C_1  and  C_17
REMARK    3  A    between atoms: C_2  and  C_3
REMARK    4  A    between atoms: C_3  and  N_4
REMARK    5  A    between atoms: C_8  and  C_11
REMARK    6  A    between atoms: C_17  and  N_21
REMARK                            x       y       z     vdW  Elec       q    Type
REMARK                         _______ _______ _______ _____ _____    ______ ____
ROOT
ATOM      1  C   UNL     1      33.212 -14.260 -24.547  0.00  0.00    +0.022 C 
ENDROOT
BRANCH   1   2
ATOM      2  C   UNL     1      33.849 -15.501 -25.182  0.00  0.00    -0.021 C 
BRANCH   2   3
ATOM      3  C   UNL     1      35.081 -15.949 -24.398  0.00  0.00    -0.077 C 
BRANCH   3   4
ATOM      4  N   UNL     1      34.721 -16.994 -23.442  0.00  0.00    +0.390 N 
ATOM      5  C   UNL     1      35.173 -18.310 -23.902  0.00  0.00    -0.072 C 
ATOM      6  C   UNL     1      35.269 -16.693 -22.110  0.00  0.00    -0.051 C 
ATOM      7  C   UNL     1      34.637 -19.403 -22.965  0.00  0.00    +0.003 C 
ATOM      8  C   UNL     1      34.858 -19.087 -21.503  0.00  0.00    -0.031 C 
ATOM      9  C   UNL     1      35.151 -17.827 -21.128  0.00  0.00    -0.053 C 
ATOM     10  H   UNL     1      33.703 -17.018 -23.373  0.00  0.00    -0.079 HD
BRANCH   8  11
ATOM     11  C   UNL     1      34.736 -20.189 -20.519  0.00  0.00    -0.004 C 
ATOM     12  C   UNL     1      35.880 -20.820 -20.026  0.00  0.00    -0.000 C 
ATOM     13  C   UNL     1      33.475 -20.600 -20.079  0.00  0.00    -0.000 C 
ATOM     14  C   UNL     1      35.765 -21.856 -19.100  0.00  0.00    -0.000 C 
ATOM     15  C   UNL     1      33.360 -21.637 -19.153  0.00  0.00    -0.000 C 
ATOM     16  C   UNL     1      34.505 -22.265 -18.663  0.00  0.00    -0.000 C 
ENDBRANCH   8  11
ENDBRANCH   3   4
ENDBRANCH   2   3
ENDBRANCH   1   2
BRANCH   1  17
ATOM     17  C   UNL     1      34.149 -13.554 -23.572  0.00  0.00    +0.110 C 
BRANCH  17  21
ATOM     18  F   UNL     1      31.230  -9.255 -20.300  0.00  0.00    -0.204 F 
ATOM     19  O   UNL     1      34.764 -11.268 -25.095  0.00  0.00    -0.246 OA
ATOM     20  O   UNL     1      32.452  -8.426 -22.356  0.00  0.00    -0.267 OA
ATOM     21  N   UNL     1      33.698 -12.204 -23.246  0.00  0.00    -0.281 N 
ATOM     22  N   UNL     1      33.601  -9.885 -23.707  0.00  0.00    -0.274 N 
ATOM     23  C   UNL     1      32.890 -11.999 -22.085  0.00  0.00    +0.071 A 
ATOM     24  C   UNL     1      34.070 -11.142 -24.083  0.00  0.00    +0.330 A 
ATOM     25  C   UNL     1      32.449 -10.711 -21.756  0.00  0.00    +0.099 A 
ATOM     26  C   UNL     1      32.515 -13.059 -21.242  0.00  0.00    +0.018 C 
ATOM     27  C   UNL     1      32.818  -9.569 -22.610  0.00  0.00    +0.265 A 
ATOM     28  C   UNL     1      31.657 -10.484 -20.622  0.00  0.00    +0.146 C 
ATOM     29  C   UNL     1      31.725 -12.835 -20.111  0.00  0.00    +0.004 C 
ATOM     30  C   UNL     1      31.296 -11.549 -19.801  0.00  0.00    +0.030 C 
ATOM     31  H   UNL     1      33.858  -9.133 -24.289  0.00  0.00    +0.173 HD
ENDBRANCH  17  21
ENDBRANCH   1  17
TORSDOF 6
ENDMDL
MODEL 2
REMARK VINA RESULT:     -11.9      8.014     12.789
REMARK  Name = 448890
REMARK  6 active torsions:
REMARK  status: ('A' for Active; 'I' for Inactive)
REMARK    1  A    between atoms: C_1  and  C_2
REMARK    2  A    between atoms: C_1  and  C_17
REMARK    3  A    between atoms: C_2  and  C_3
REMARK    4  A    between atoms: C_3  and  N_4
REMARK    5  A    between atoms: C_8  and  C_11
REMARK    6  A    between atoms: C_17  and  N_21
REMARK                            x       y       z     vdW  Elec       q    Type
REMARK                         _______ _______ _______ _____ _____    ______ ____
ROOT
ATOM      1  C   UNL     1      33.306 -23.532 -15.574  0.00  0.00    +0.022 C 
ENDROOT
BRANCH   1   2
ATOM      2  C   UNL     1      33.013 -22.879 -16.929  0.00  0.00    -0.021 C 
BRANCH   2   3
ATOM      3  C   UNL     1      33.883 -23.484 -18.031  0.00  0.00    -0.077 C 
BRANCH   3   4
ATOM      4  N   UNL     1      34.048 -22.531 -19.126  0.00  0.00    +0.390 N 
ATOM      5  C   UNL     1      33.074 -21.440 -19.029  0.00  0.00    -0.072 C 
ATOM      6  C   UNL     1      35.420 -22.001 -19.153  0.00  0.00    -0.051 C 
ATOM      7  C   UNL     1      33.161 -20.549 -20.278  0.00  0.00    +0.003 C 
ATOM      8  C   UNL     1      34.580 -20.158 -20.625  0.00  0.00    -0.031 C 
ATOM      9  C   UNL     1      35.612 -20.841 -20.093  0.00  0.00    -0.053 C 
ATOM     10  H   UNL     1      33.878 -23.027 -20.002  0.00  0.00    -0.079 HD
BRANCH   8  11
ATOM     11  C   UNL     1      34.789 -19.025 -21.558  0.00  0.00    -0.004 C 
ATOM     12  C   UNL     1      34.967 -17.732 -21.061  0.00  0.00    -0.000 C 
ATOM     13  C   UNL     1      34.810 -19.247 -22.937  0.00  0.00    -0.000 C 
ATOM     14  C   UNL     1      35.163 -16.666 -21.939  0.00  0.00    -0.000 C 
ATOM     15  C   UNL     1      35.007 -18.180 -23.814  0.00  0.00    -0.000 C 
ATOM     16  C   UNL     1      35.183 -16.889 -23.316  0.00  0.00    -0.000 C 
ENDBRANCH   8  11
ENDBRANCH   3   4
ENDBRANCH   2   3
ENDBRANCH   1   2
BRANCH   1  17
ATOM     17  C   UNL     1      34.412 -22.815 -14.805  0.00  0.00    +0.110 C 
BRANCH  17  21
ATOM     18  F   UNL     1      39.220 -26.004 -12.703  0.00  0.00    -0.204 F 
ATOM     19  O   UNL     1      33.262 -24.003 -12.527  0.00  0.00    -0.246 OA
ATOM     20  O   UNL     1      37.095 -26.200 -11.342  0.00  0.00    -0.267 OA
ATOM     21  N   UNL     1      35.125 -23.707 -13.895  0.00  0.00    -0.281 N 
ATOM     22  N   UNL     1      35.191 -25.081 -11.970  0.00  0.00    -0.274 N 
ATOM     23  C   UNL     1      36.497 -24.017 -14.153  0.00  0.00    +0.071 A 
ATOM     24  C   UNL     1      34.444 -24.238 -12.791  0.00  0.00    +0.330 A 
ATOM     25  C   UNL     1      37.197 -24.870 -13.292  0.00  0.00    +0.099 A 
ATOM     26  C   UNL     1      37.185 -23.486 -15.258  0.00  0.00    +0.018 C 
ATOM     27  C   UNL     1      36.516 -25.449 -12.120  0.00  0.00    +0.265 A 
ATOM     28  C   UNL     1      38.542 -25.188 -13.522  0.00  0.00    +0.146 C 
ATOM     29  C   UNL     1      38.526 -23.802 -15.490  0.00  0.00    +0.004 C 
ATOM     30  C   UNL     1      39.205 -24.652 -14.623  0.00  0.00    +0.030 C 
ATOM     31  H   UNL     1      34.720 -25.459 -11.192  0.00  0.00    +0.173 HD
ENDBRANCH  17  21
ENDBRANCH   1  17
TORSDOF 6
ENDMDL
MODEL 3
REMARK VINA RESULT:     -11.8      3.424     10.075
REMARK  Name = 448890
REMARK  6 active torsions:
REMARK  status: ('A' for Active; 'I' for Inactive)
REMARK    1  A    between atoms: C_1  and  C_2
REMARK    2  A    between atoms: C_1  and  C_17
REMARK    3  A    between atoms: C_2  and  C_3
REMARK    4  A    between atoms: C_3  and  N_4
REMARK    5  A    between atoms: C_8  and  C_11
REMARK    6  A    between atoms: C_17  and  N_21
REMARK                            x       y       z     vdW  Elec       q    Type
REMARK                         _______ _______ _______ _____ _____    ______ ____
ROOT
ATOM      1  C   UNL     1      32.762 -13.784 -20.313  0.00  0.00    +0.022 C 
ENDROOT
BRANCH   1   2
ATOM      2  C   UNL     1      31.810 -12.646 -20.695  0.00  0.00    -0.021 C 
BRANCH   2   3
ATOM      3  C   UNL     1      31.771 -11.572 -19.608  0.00  0.00    -0.077 C 
BRANCH   3   4
ATOM      4  N   UNL     1      31.503 -10.263 -20.199  0.00  0.00    +0.390 N 
ATOM      5  C   UNL     1      32.402  -9.242 -19.652  0.00  0.00    -0.072 C 
ATOM      6  C   UNL     1      31.615 -10.320 -21.665  0.00  0.00    -0.051 C 
ATOM      7  C   UNL     1      31.989  -7.854 -20.164  0.00  0.00    +0.003 C 
ATOM      8  C   UNL     1      31.761  -7.820 -21.658  0.00  0.00    -0.031 C 
ATOM      9  C   UNL     1      31.592  -8.972 -22.335  0.00  0.00    -0.053 C 
ATOM     10  H   UNL     1      30.547 -10.000 -19.959  0.00  0.00    -0.079 HD
BRANCH   8  11
ATOM     11  C   UNL     1      31.724  -6.501 -22.335  0.00  0.00    -0.004 C 
ATOM     12  C   UNL     1      30.815  -5.526 -21.921  0.00  0.00    -0.000 C 
ATOM     13  C   UNL     1      32.601  -6.230 -23.388  0.00  0.00    -0.000 C 
ATOM     14  C   UNL     1      30.781  -4.285 -22.557  0.00  0.00    -0.000 C 
ATOM     15  C   UNL     1      32.567  -4.989 -24.024  0.00  0.00    -0.000 C 
ATOM     16  C   UNL     1      31.657  -4.016 -23.610  0.00  0.00    -0.000 C 
ENDBRANCH   8  11
ENDBRANCH   3   4
ENDBRANCH   2   3
ENDBRANCH   1   2
BRANCH   1  17
ATOM     17  C   UNL     1      34.137 -13.642 -20.960  0.00  0.00    +0.110 C 
BRANCH  17  21
ATOM     18  F   UNL     1      35.070 -18.454 -24.659  0.00  0.00    -0.204 F 
ATOM     19  O   UNL     1      33.681 -12.439 -23.464  0.00  0.00    -0.246 OA
ATOM     20  O   UNL     1      34.465 -16.284 -25.814  0.00  0.00    -0.267 OA
ATOM     21  N   UNL     1      34.225 -14.344 -22.237  0.00  0.00    -0.281 N 
ATOM     22  N   UNL     1      34.079 -14.375 -24.598  0.00  0.00    -0.274 N 
ATOM     23  C   UNL     1      34.564 -15.733 -22.248  0.00  0.00    +0.071 A 
ATOM     24  C   UNL     1      33.975 -13.637 -23.421  0.00  0.00    +0.330 A 
ATOM     25  C   UNL     1      34.653 -16.423 -23.463  0.00  0.00    +0.099 A 
ATOM     26  C   UNL     1      34.815 -16.447 -21.064  0.00  0.00    +0.018 C 
ATOM     27  C   UNL     1      34.398 -15.715 -24.729  0.00  0.00    +0.265 A 
ATOM     28  C   UNL     1      34.983 -17.785 -23.500  0.00  0.00    +0.146 C 
ATOM     29  C   UNL     1      35.144 -17.805 -21.099  0.00  0.00    +0.004 C 
ATOM     30  C   UNL     1      35.228 -18.474 -22.316  0.00  0.00    +0.030 C 
ATOM     31  H   UNL     1      33.905 -13.886 -25.435  0.00  0.00    +0.173 HD
ENDBRANCH  17  21
ENDBRANCH   1  17
TORSDOF 6
ENDMDL
MODEL 4
REMARK VINA RESULT:     -11.6      1.738      2.676
REMARK  Name = 448890
REMARK  6 active torsions:
REMARK  status: ('A' for Active; 'I' for Inactive)
REMARK    1  A    between atoms: C_1  and  C_2
REMARK    2  A    between atoms: C_1  and  C_17
REMARK    3  A    between atoms: C_2  and  C_3
REMARK    4  A    between atoms: C_3  and  N_4
REMARK    5  A    between atoms: C_8  and  C_11
REMARK    6  A    between atoms: C_17  and  N_21
REMARK                            x       y       z     vdW  Elec       q    Type
REMARK                         _______ _______ _______ _____ _____    ______ ____
ROOT
ATOM      1  C   UNL     1      34.181 -13.546 -23.298  0.00  0.00    +0.022 C 
ENDROOT
BRANCH   1   2
ATOM      2  C   UNL     1      33.991 -14.962 -23.853  0.00  0.00    -0.021 C 
BRANCH   2   3
ATOM      3  C   UNL     1      35.337 -15.649 -24.079  0.00  0.00    -0.077 C 
BRANCH   3   4
ATOM      4  N   UNL     1      35.486 -16.782 -23.168  0.00  0.00    +0.390 N 
ATOM      5  C   UNL     1      34.886 -16.493 -21.862  0.00  0.00    -0.072 C 
ATOM      6  C   UNL     1      34.899 -17.999 -23.749  0.00  0.00    -0.051 C 
ATOM      7  C   UNL     1      35.203 -17.630 -20.878  0.00  0.00    +0.003 C 
ATOM      8  C   UNL     1      34.934 -19.001 -21.455  0.00  0.00    -0.031 C 
ATOM      9  C   UNL     1      34.794 -19.151 -22.787  0.00  0.00    -0.053 C 
ATOM     10  H   UNL     1      36.484 -16.942 -23.026  0.00  0.00    -0.079 HD
BRANCH   8  11
ATOM     11  C   UNL     1      34.837 -20.150 -20.523  0.00  0.00    -0.004 C 
ATOM     12  C   UNL     1      35.995 -20.784 -20.069  0.00  0.00    -0.000 C 
ATOM     13  C   UNL     1      33.587 -20.601 -20.094  0.00  0.00    -0.000 C 
ATOM     14  C   UNL     1      35.904 -21.865 -19.192  0.00  0.00    -0.000 C 
ATOM     15  C   UNL     1      33.496 -21.682 -19.217  0.00  0.00    -0.000 C 
ATOM     16  C   UNL     1      34.654 -22.314 -18.766  0.00  0.00    -0.000 C 
ENDBRANCH   8  11
ENDBRANCH   3   4
ENDBRANCH   2   3
ENDBRANCH   1   2
BRANCH   1  17
ATOM     17  C   UNL     1      32.905 -12.713 -23.368  0.00  0.00    +0.110 C 
BRANCH  17  21
ATOM     18  F   UNL     1      31.620  -8.328 -19.265  0.00  0.00    -0.204 F 
ATOM     19  O   UNL     1      32.297 -14.297 -21.122  0.00  0.00    -0.246 OA
ATOM     20  O   UNL     1      31.434 -10.707 -18.422  0.00  0.00    -0.267 OA
ATOM     21  N   UNL     1      32.517 -12.177 -22.066  0.00  0.00    -0.281 N 
ATOM     22  N   UNL     1      31.876 -12.483 -19.809  0.00  0.00    -0.274 N 
ATOM     23  C   UNL     1      32.434 -10.761 -21.890  0.00  0.00    +0.071 A 
ATOM     24  C   UNL     1      32.238 -13.068 -21.021  0.00  0.00    +0.330 A 
ATOM     25  C   UNL     1      32.063 -10.230 -20.649  0.00  0.00    +0.099 A 
ATOM     26  C   UNL     1      32.712  -9.863 -22.935  0.00  0.00    +0.018 C 
ATOM     27  C   UNL     1      31.762 -11.133 -19.524  0.00  0.00    +0.265 A 
ATOM     28  C   UNL     1      31.973  -8.845 -20.451  0.00  0.00    +0.146 C 
ATOM     29  C   UNL     1      32.623  -8.482 -22.740  0.00  0.00    +0.004 C 
ATOM     30  C   UNL     1      32.254  -7.973 -21.499  0.00  0.00    +0.030 C 
ATOM     31  H   UNL     1      31.678 -13.101 -19.069  0.00  0.00    +0.173 HD
ENDBRANCH  17  21
ENDBRANCH   1  17
TORSDOF 6
ENDMDL
MODEL 5
REMARK VINA RESULT:     -11.6      7.394     12.403
REMARK  Name = 448890
REMARK  6 active torsions:
REMARK  status: ('A' for Active; 'I' for Inactive)
REMARK    1  A    between atoms: C_1  and  C_2
REMARK    2  A    between atoms: C_1  and  C_17
REMARK    3  A    between atoms: C_2  and  C_3
REMARK    4  A    between atoms: C_3  and  N_4
REMARK    5  A    between atoms: C_8  and  C_11
REMARK    6  A    between atoms: C_17  and  N_21
REMARK                            x       y       z     vdW  Elec       q    Type
REMARK                         _______ _______ _______ _____ _____    ______ ____
ROOT
ATOM      1  C   UNL     1      34.042 -23.525 -15.552  0.00  0.00    +0.022 C 
ENDROOT
BRANCH   1   2
ATOM      2  C   UNL     1      33.435 -22.788 -16.750  0.00  0.00    -0.021 C 
BRANCH   2   3
ATOM      3  C   UNL     1      33.742 -23.518 -18.057  0.00  0.00    -0.077 C 
BRANCH   3   4
ATOM      4  N   UNL     1      33.919 -22.557 -19.144  0.00  0.00    +0.390 N 
ATOM      5  C   UNL     1      32.999 -21.424 -19.003  0.00  0.00    -0.072 C 
ATOM      6  C   UNL     1      35.312 -22.089 -19.204  0.00  0.00    -0.051 C 
ATOM      7  C   UNL     1      33.091 -20.520 -20.242  0.00  0.00    +0.003 C 
ATOM      8  C   UNL     1      34.515 -20.188 -20.626  0.00  0.00    -0.031 C 
ATOM      9  C   UNL     1      35.529 -20.925 -20.133  0.00  0.00    -0.053 C 
ATOM     10  H   UNL     1      33.702 -23.031 -20.021  0.00  0.00    -0.079 HD
BRANCH   8  11
ATOM     11  C   UNL     1      34.748 -19.051 -21.548  0.00  0.00    -0.004 C 
ATOM     12  C   UNL     1      34.988 -17.773 -21.040  0.00  0.00    -0.000 C 
ATOM     13  C   UNL     1      34.730 -19.255 -22.930  0.00  0.00    -0.000 C 
ATOM     14  C   UNL     1      35.208 -16.704 -21.908  0.00  0.00    -0.000 C 
ATOM     15  C   UNL     1      34.950 -18.186 -23.798  0.00  0.00    -0.000 C 
ATOM     16  C   UNL     1      35.189 -16.910 -23.288  0.00  0.00    -0.000 C 
ENDBRANCH   8  11
ENDBRANCH   3   4
ENDBRANCH   2   3
ENDBRANCH   1   2
BRANCH   1  17
ATOM     17  C   UNL     1      35.040 -22.667 -14.779  0.00  0.00    +0.110 C 
BRANCH  17  21
ATOM     18  F   UNL     1      39.753 -26.118 -12.886  0.00  0.00    -0.204 F 
ATOM     19  O   UNL     1      36.956 -22.004 -16.731  0.00  0.00    -0.246 OA
ATOM     20  O   UNL     1      40.176 -24.727 -14.958  0.00  0.00    -0.267 OA
ATOM     21  N   UNL     1      36.393 -23.214 -14.821  0.00  0.00    -0.281 N 
ATOM     22  N   UNL     1      38.533 -23.371 -15.817  0.00  0.00    -0.274 N 
ATOM     23  C   UNL     1      36.800 -24.148 -13.818  0.00  0.00    +0.071 A 
ATOM     24  C   UNL     1      37.260 -22.807 -15.845  0.00  0.00    +0.330 A 
ATOM     25  C   UNL     1      38.094 -24.683 -13.842  0.00  0.00    +0.099 A 
ATOM     26  C   UNL     1      35.936 -24.560 -12.790  0.00  0.00    +0.018 C 
ATOM     27  C   UNL     1      39.035 -24.280 -14.902  0.00  0.00    +0.265 A 
ATOM     28  C   UNL     1      38.516 -25.602 -12.871  0.00  0.00    +0.146 C 
ATOM     29  C   UNL     1      36.355 -25.475 -11.820  0.00  0.00    +0.004 C 
ATOM     30  C   UNL     1      37.644 -25.995 -11.860  0.00  0.00    +0.030 C 
ATOM     31  H   UNL     1      39.149 -23.091 -16.533  0.00  0.00    +0.173 HD
ENDBRANCH  17  21
ENDBRANCH   1  17
TORSDOF 6
ENDMDL
MODEL 6
REMARK VINA RESULT:     -11.4      5.571     10.475
REMARK  Name = 448890
REMARK  6 active torsions:
REMARK  status: ('A' for Active; 'I' for Inactive)
REMARK    1  A    between atoms: C_1  and  C_2
REMARK    2  A    between atoms: C_1  and  C_17
REMARK    3  A    between atoms: C_2  and  C_3
REMARK    4  A    between atoms: C_3  and  N_4
REMARK    5  A    between atoms: C_8  and  C_11
REMARK    6  A    between atoms: C_17  and  N_21
REMARK                            x       y       z     vdW  Elec       q    Type
REMARK                         _______ _______ _______ _____ _____    ______ ____
ROOT
ATOM      1  C   UNL     1      33.956 -20.552 -19.780  0.00  0.00    +0.022 C 
ENDROOT
BRANCH   1   2
ATOM      2  C   UNL     1      34.506 -20.195 -21.165  0.00  0.00    -0.021 C 
BRANCH   2   3
ATOM      3  C   UNL     1      35.773 -19.349 -21.052  0.00  0.00    -0.077 C 
BRANCH   3   4
ATOM      4  N   UNL     1      35.647 -18.136 -21.858  0.00  0.00    +0.390 N 
ATOM      5  C   UNL     1      34.894 -18.396 -23.089  0.00  0.00    -0.072 C 
ATOM      6  C   UNL     1      35.015 -17.059 -21.082  0.00  0.00    -0.051 C 
ATOM      7  C   UNL     1      34.921 -17.152 -23.989  0.00  0.00    +0.003 C 
ATOM      8  C   UNL     1      34.581 -15.879 -23.247  0.00  0.00    -0.031 C 
ATOM      9  C   UNL     1      34.629 -15.857 -21.901  0.00  0.00    -0.053 C 
ATOM     10  H   UNL     1      36.585 -17.835 -22.121  0.00  0.00    -0.079 HD
BRANCH   8  11
ATOM     11  C   UNL     1      34.209 -14.682 -24.038  0.00  0.00    -0.004 C 
ATOM     12  C   UNL     1      34.321 -13.408 -23.477  0.00  0.00    -0.000 C 
ATOM     13  C   UNL     1      33.745 -14.823 -25.348  0.00  0.00    -0.000 C 
ATOM     14  C   UNL     1      33.971 -12.282 -24.221  0.00  0.00    -0.000 C 
ATOM     15  C   UNL     1      33.394 -13.697 -26.092  0.00  0.00    -0.000 C 
ATOM     16  C   UNL     1      33.507 -12.425 -25.529  0.00  0.00    -0.000 C 
ENDBRANCH   8  11
ENDBRANCH   3   4
ENDBRANCH   2   3
ENDBRANCH   1   2
BRANCH   1  17
ATOM     17  C   UNL     1      34.077 -22.040 -19.467  0.00  0.00    +0.110 C 
BRANCH  17  21
ATOM     18  F   UNL     1      34.463 -23.662 -13.556  0.00  0.00    -0.204 F 
ATOM     19  O   UNL     1      36.836 -21.685 -19.033  0.00  0.00    -0.246 OA
ATOM     20  O   UNL     1      36.640 -22.972 -14.648  0.00  0.00    -0.267 OA
ATOM     21  N   UNL     1      34.748 -22.288 -18.193  0.00  0.00    -0.281 N 
ATOM     22  N   UNL     1      36.697 -22.332 -16.853  0.00  0.00    -0.274 N 
ATOM     23  C   UNL     1      33.979 -22.740 -17.076  0.00  0.00    +0.071 A 
ATOM     24  C   UNL     1      36.130 -22.074 -18.099  0.00  0.00    +0.330 A 
ATOM     25  C   UNL     1      34.604 -22.983 -15.847  0.00  0.00    +0.099 A 
ATOM     26  C   UNL     1      32.593 -22.956 -17.164  0.00  0.00    +0.018 C 
ATOM     27  C   UNL     1      36.055 -22.770 -15.707  0.00  0.00    +0.265 A 
ATOM     28  C   UNL     1      33.873 -23.427 -14.737  0.00  0.00    +0.146 C 
ATOM     29  C   UNL     1      31.861 -23.399 -16.059  0.00  0.00    +0.004 C 
ATOM     30  C   UNL     1      32.500 -23.634 -14.846  0.00  0.00    +0.030 C 
ATOM     31  H   UNL     1      37.668 -22.185 -16.778  0.00  0.00    +0.173 HD
ENDBRANCH  17  21
ENDBRANCH   1  17
TORSDOF 6
ENDMDL
MODEL 7
REMARK VINA RESULT:     -11.4      4.185      7.085
REMARK  Name = 448890
REMARK  6 active torsions:
REMARK  status: ('A' for Active; 'I' for Inactive)
REMARK    1  A    between atoms: C_1  and  C_2
REMARK    2  A    between atoms: C_1  and  C_17
REMARK    3  A    between atoms: C_2  and  C_3
REMARK    4  A    between atoms: C_3  and  N_4
REMARK    5  A    between atoms: C_8  and  C_11
REMARK    6  A    between atoms: C_17  and  N_21
REMARK                            x       y       z     vdW  Elec       q    Type
REMARK                         _______ _______ _______ _____ _____    ______ ____
ROOT
ATOM      1  C   UNL     1      33.870 -19.930 -20.683  0.00  0.00    +0.022 C 
ENDROOT
BRANCH   1   2
ATOM      2  C   UNL     1      34.109 -21.065 -19.682  0.00  0.00    -0.021 C 
BRANCH   2   3
ATOM      3  C   UNL     1      35.594 -21.417 -19.593  0.00  0.00    -0.077 C 
BRANCH   3   4
ATOM      4  N   UNL     1      35.858 -22.197 -18.385  0.00  0.00    +0.390 N 
ATOM      5  C   UNL     1      36.847 -21.531 -17.532  0.00  0.00    -0.072 C 
ATOM      6  C   UNL     1      34.613 -22.442 -17.641  0.00  0.00    -0.051 C 
ATOM      7  C   UNL     1      37.227 -22.448 -16.360  0.00  0.00    +0.003 C 
ATOM      8  C   UNL     1      36.024 -23.041 -15.661  0.00  0.00    -0.031 C 
ATOM      9  C   UNL     1      34.823 -23.027 -16.270  0.00  0.00    -0.053 C 
ATOM     10  H   UNL     1      36.245 -23.096 -18.671  0.00  0.00    -0.079 HD
BRANCH   8  11
ATOM     11  C   UNL     1      36.213 -23.631 -14.314  0.00  0.00    -0.004 C 
ATOM     12  C   UNL     1      35.105 -23.947 -13.526  0.00  0.00    -0.000 C 
ATOM     13  C   UNL     1      37.501 -23.874 -13.830  0.00  0.00    -0.000 C 
ATOM     14  C   UNL     1      35.283 -24.503 -12.259  0.00  0.00    -0.000 C 
ATOM     15  C   UNL     1      37.678 -24.429 -12.563  0.00  0.00    -0.000 C 
ATOM     16  C   UNL     1      36.570 -24.744 -11.777  0.00  0.00    -0.000 C 
ENDBRANCH   8  11
ENDBRANCH   3   4
ENDBRANCH   2   3
ENDBRANCH   1   2
BRANCH   1  17
ATOM     17  C   UNL     1      35.150 -19.175 -21.030  0.00  0.00    +0.110 C 
BRANCH  17  21
ATOM     18  F   UNL     1      34.288 -13.981 -24.191  0.00  0.00    -0.204 F 
ATOM     19  O   UNL     1      35.266 -20.170 -23.661  0.00  0.00    -0.246 OA
ATOM     20  O   UNL     1      34.596 -16.073 -25.582  0.00  0.00    -0.267 OA
ATOM     21  N   UNL     1      35.003 -18.351 -22.227  0.00  0.00    -0.281 N 
ATOM     22  N   UNL     1      34.930 -18.112 -24.579  0.00  0.00    -0.274 N 
ATOM     23  C   UNL     1      34.784 -16.946 -22.085  0.00  0.00    +0.071 A 
ATOM     24  C   UNL     1      35.080 -18.962 -23.486  0.00  0.00    +0.330 A 
ATOM     25  C   UNL     1      34.641 -16.140 -23.221  0.00  0.00    +0.099 A 
ATOM     26  C   UNL     1      34.707 -16.328 -20.825  0.00  0.00    +0.018 C 
ATOM     27  C   UNL     1      34.715 -16.744 -24.562  0.00  0.00    +0.265 A 
ATOM     28  C   UNL     1      34.427 -14.760 -23.108  0.00  0.00    +0.146 C 
ATOM     29  C   UNL     1      34.493 -14.952 -20.710  0.00  0.00    +0.004 C 
ATOM     30  C   UNL     1      34.353 -14.168 -21.850  0.00  0.00    +0.030 C 
ATOM     31  H   UNL     1      34.983 -18.532 -25.468  0.00  0.00    +0.173 HD
ENDBRANCH  17  21
ENDBRANCH   1  17
TORSDOF 6
ENDMDL
MODEL 8
REMARK VINA RESULT:     -11.4      3.693      6.579
REMARK  Name = 448890
REMARK  6 active torsions:
REMARK  status: ('A' for Active; 'I' for Inactive)
REMARK    1  A    between atoms: C_1  and  C_2
REMARK    2  A    between atoms: C_1  and  C_17
REMARK    3  A    between atoms: C_2  and  C_3
REMARK    4  A    between atoms: C_3  and  N_4
REMARK    5  A    between atoms: C_8  and  C_11
REMARK    6  A    between atoms: C_17  and  N_21
REMARK                            x       y       z     vdW  Elec       q    Type
REMARK                         _______ _______ _______ _____ _____    ______ ____
ROOT
ATOM      1  C   UNL     1      36.440 -19.343 -20.807  0.00  0.00    +0.022 C 
ENDROOT
BRANCH   1   2
ATOM      2  C   UNL     1      36.542 -20.379 -19.682  0.00  0.00    -0.021 C 
BRANCH   2   3
ATOM      3  C   UNL     1      36.022 -21.741 -20.140  0.00  0.00    -0.077 C 
BRANCH   3   4
ATOM      4  N   UNL     1      35.296 -22.397 -19.055  0.00  0.00    +0.390 N 
ATOM      5  C   UNL     1      35.863 -22.044 -17.750  0.00  0.00    -0.072 C 
ATOM      6  C   UNL     1      33.865 -22.060 -19.107  0.00  0.00    -0.051 C 
ATOM      7  C   UNL     1      35.190 -22.874 -16.647  0.00  0.00    +0.003 C 
ATOM      8  C   UNL     1      33.681 -22.877 -16.747  0.00  0.00    -0.031 C 
ATOM      9  C   UNL     1      33.087 -22.495 -17.895  0.00  0.00    -0.053 C 
ATOM     10  H   UNL     1      35.393 -23.406 -19.177  0.00  0.00    -0.079 HD
BRANCH   8  11
ATOM     11  C   UNL     1      32.898 -23.312 -15.567  0.00  0.00    -0.004 C 
ATOM     12  C   UNL     1      33.540 -23.912 -14.482  0.00  0.00    -0.000 C 
ATOM     13  C   UNL     1      31.514 -23.123 -15.535  0.00  0.00    -0.000 C 
ATOM     14  C   UNL     1      32.802 -24.321 -13.370  0.00  0.00    -0.000 C 
ATOM     15  C   UNL     1      30.777 -23.533 -14.424  0.00  0.00    -0.000 C 
ATOM     16  C   UNL     1      31.420 -24.132 -13.342  0.00  0.00    -0.000 C 
ENDBRANCH   8  11
ENDBRANCH   3   4
ENDBRANCH   2   3
ENDBRANCH   1   2
BRANCH   1  17
ATOM     17  C   UNL     1      34.998 -18.954 -21.117  0.00  0.00    +0.110 C 
BRANCH  17  21
ATOM     18  F   UNL     1      34.328 -13.764 -24.330  0.00  0.00    -0.204 F 
ATOM     19  O   UNL     1      35.115 -19.974 -23.738  0.00  0.00    -0.246 OA
ATOM     20  O   UNL     1      34.589 -15.876 -25.701  0.00  0.00    -0.267 OA
ATOM     21  N   UNL     1      34.889 -18.137 -22.323  0.00  0.00    -0.281 N 
ATOM     22  N   UNL     1      34.851 -17.915 -24.677  0.00  0.00    -0.274 N 
ATOM     23  C   UNL     1      34.711 -16.724 -22.195  0.00  0.00    +0.071 A 
ATOM     24  C   UNL     1      34.963 -18.760 -23.576  0.00  0.00    +0.330 A 
ATOM     25  C   UNL     1      34.605 -15.924 -23.339  0.00  0.00    +0.099 A 
ATOM     26  C   UNL     1      34.637 -16.093 -20.941  0.00  0.00    +0.018 C 
ATOM     27  C   UNL     1      34.677 -16.542 -24.674  0.00  0.00    +0.265 A 
ATOM     28  C   UNL     1      34.431 -14.537 -23.240  0.00  0.00    +0.146 C 
ATOM     29  C   UNL     1      34.463 -14.711 -20.839  0.00  0.00    +0.004 C 
ATOM     30  C   UNL     1      34.359 -13.933 -21.988  0.00  0.00    +0.030 C 
ATOM     31  H   UNL     1      34.901 -18.344 -25.562  0.00  0.00    +0.173 HD
ENDBRANCH  17  21
ENDBRANCH   1  17
TORSDOF 6
ENDMDL
MODEL 9
REMARK VINA RESULT:     -11.2      3.969      9.765
REMARK  Name = 448890
REMARK  6 active torsions:
REMARK  status: ('A' for Active; 'I' for Inactive)
REMARK    1  A    between atoms: C_1  and  C_2
REMARK    2  A    between atoms: C_1  and  C_17
REMARK    3  A    between atoms: C_2  and  C_3
REMARK    4  A    between atoms: C_3  and  N_4
REMARK    5  A    between atoms: C_8  and  C_11
REMARK    6  A    between atoms: C_17  and  N_21
REMARK                            x       y       z     vdW  Elec       q    Type
REMARK                         _______ _______ _______ _____ _____    ______ ____
ROOT
ATOM      1  C   UNL     1      32.908 -14.245 -20.154  0.00  0.00    +0.022 C 
ENDROOT
BRANCH   1   2
ATOM      2  C   UNL     1      31.961 -13.131 -20.612  0.00  0.00    -0.021 C 
BRANCH   2   3
ATOM      3  C   UNL     1      31.971 -11.962 -19.628  0.00  0.00    -0.077 C 
BRANCH   3   4
ATOM      4  N   UNL     1      32.194 -10.704 -20.339  0.00  0.00    +0.390 N 
ATOM      5  C   UNL     1      31.327 -10.603 -21.517  0.00  0.00    -0.072 C 
ATOM      6  C   UNL     1      31.987  -9.556 -19.443  0.00  0.00    -0.051 C 
ATOM      7  C   UNL     1      31.700  -9.355 -22.333  0.00  0.00    +0.003 C 
ATOM      8  C   UNL     1      31.830  -8.111 -21.483  0.00  0.00    -0.031 C 
ATOM      9  C   UNL     1      31.960  -8.226 -20.147  0.00  0.00    -0.053 C 
ATOM     10  H   UNL     1      33.162 -10.692 -20.659  0.00  0.00    -0.079 HD
BRANCH   8  11
ATOM     11  C   UNL     1      31.815  -6.792 -22.159  0.00  0.00    -0.004 C 
ATOM     12  C   UNL     1      32.698  -6.533 -23.208  0.00  0.00    -0.000 C 
ATOM     13  C   UNL     1      30.917  -5.804 -21.748  0.00  0.00    -0.000 C 
ATOM     14  C   UNL     1      32.685  -5.291 -23.845  0.00  0.00    -0.000 C 
ATOM     15  C   UNL     1      30.904  -4.562 -22.384  0.00  0.00    -0.000 C 
ATOM     16  C   UNL     1      31.787  -4.306 -23.432  0.00  0.00    -0.000 C 
ENDBRANCH   8  11
ENDBRANCH   3   4
ENDBRANCH   2   3
ENDBRANCH   1   2
BRANCH   1  17
ATOM     17  C   UNL     1      34.300 -14.121 -20.765  0.00  0.00    +0.110 C 
BRANCH  17  21
ATOM     18  F   UNL     1      34.130 -14.681 -26.878  0.00  0.00    -0.204 F 
ATOM     19  O   UNL     1      34.970 -16.842 -21.034  0.00  0.00    -0.246 OA
ATOM     20  O   UNL     1      34.724 -16.784 -25.601  0.00  0.00    -0.267 OA
ATOM     21  N   UNL     1      34.410 -14.818 -22.044  0.00  0.00    -0.281 N 
ATOM     22  N   UNL     1      34.837 -16.772 -23.307  0.00  0.00    -0.274 N 
ATOM     23  C   UNL     1      34.167 -14.098 -23.255  0.00  0.00    +0.071 A 
ATOM     24  C   UNL     1      34.752 -16.177 -22.050  0.00  0.00    +0.330 A 
ATOM     25  C   UNL     1      34.268 -14.749 -24.490  0.00  0.00    +0.099 A 
ATOM     26  C   UNL     1      33.825 -12.734 -23.255  0.00  0.00    +0.018 C 
ATOM     27  C   UNL     1      34.625 -16.177 -24.539  0.00  0.00    +0.265 A 
ATOM     28  C   UNL     1      34.035 -14.065 -25.691  0.00  0.00    +0.146 C 
ATOM     29  C   UNL     1      33.592 -12.051 -24.451  0.00  0.00    +0.004 C 
ATOM     30  C   UNL     1      33.697 -12.715 -25.668  0.00  0.00    +0.030 C 
ATOM     31  H   UNL     1      35.077 -17.727 -23.321  0.00  0.00    +0.173 HD
ENDBRANCH  17  21
ENDBRANCH   1  17
TORSDOF 6
ENDMDL
