MODEL 1
REMARK VINA RESULT:     -11.2      0.000      0.000
REMARK  Name = 54689025
REMARK  9 active torsions:
REMARK  status: ('A' for Active; 'I' for Inactive)
REMARK    1  A    between atoms: C_1  and  C_21
REMARK    2  A    between atoms: C_4  and  N_8
REMARK    3  A    between atoms: C_9  and  C_11
REMARK    4  A    between atoms: C_11  and  N_13
REMARK    5  A    between atoms: C_14  and  O_16
REMARK    6  A    between atoms: O_16  and  C_17
REMARK    7  A    between atoms: C_21  and  C_24
REMARK    8  A    between atoms: C_21  and  C_35
REMARK    9  A    between atoms: C_25  and  O_33
REMARK                            x       y       z     vdW  Elec       q    Type
REMARK                         _______ _______ _______ _____ _____    ______ ____
ROOT
ATOM      1  C   UNL     1      35.043 -16.851 -21.985  0.00  0.00    -0.017 C 
ATOM      2  C   UNL     1      35.041 -15.756 -22.848  0.00  0.00    +0.011 C 
ATOM      3  C   UNL     1      34.618 -16.699 -20.664  0.00  0.00    -0.004 C 
ATOM      4  C   UNL     1      34.613 -14.509 -22.392  0.00  0.00    +0.050 C 
ATOM      5  C   UNL     1      34.192 -15.452 -20.208  0.00  0.00    +0.001 C 
ATOM      6  C   UNL     1      34.189 -14.357 -21.072  0.00  0.00    +0.015 C 
ENDROOT
BRANCH   4   8
ATOM      7  O   UNL     1      33.003 -13.987 -24.874  0.00  0.00    -0.273 OA
ATOM      8  N   UNL     1      34.612 -13.412 -23.256  0.00  0.00    -0.283 N 
ATOM      9  C   UNL     1      33.836 -13.216 -24.409  0.00  0.00    +0.246 C 
ATOM     10  H   UNL     1      35.233 -12.683 -23.025  0.00  0.00    +0.155 HD
BRANCH   9  11
ATOM     11  C   UNL     1      34.150 -11.878 -25.053  0.00  0.00    +0.179 C 
BRANCH  11  13
ATOM     12  O   UNL     1      35.719  -9.437 -25.199  0.00  0.00    -0.226 OA
ATOM     13  N   UNL     1      34.290 -10.861 -24.051  0.00  0.00    -0.262 N 
ATOM     14  C   UNL     1      35.062  -9.722 -24.203  0.00  0.00    +0.402 C 
ATOM     15  H   UNL     1      33.806 -10.981 -23.202  0.00  0.00    +0.153 HD
BRANCH  14  16
ATOM     16  O   UNL     1      34.989  -8.953 -23.076  0.00  0.00    -0.442 OA
BRANCH  16  17
ATOM     17  C   UNL     1      34.024  -7.896 -23.104  0.00  0.00    +0.138 C 
ATOM     18  C   UNL     1      34.521  -6.807 -24.055  0.00  0.00    +0.044 C 
ATOM     19  C   UNL     1      33.897  -7.351 -21.682  0.00  0.00    +0.044 C 
ATOM     20  C   UNL     1      32.690  -8.468 -23.581  0.00  0.00    +0.044 C 
ENDBRANCH  16  17
ENDBRANCH  14  16
ENDBRANCH  11  13
ENDBRANCH   9  11
ENDBRANCH   4   8
BRANCH   1  21
ATOM     21  C   UNL     1      35.507 -18.208 -22.481  0.00  0.00    +0.054 C 
BRANCH  21  24
ATOM     22  O   UNL     1      37.022 -20.329 -19.736  0.00  0.00    -0.421 OA
ATOM     23  O   UNL     1      37.887 -18.802 -21.183  0.00  0.00    -0.245 OA
ATOM     24  C   UNL     1      35.547 -19.207 -21.357  0.00  0.00    +0.091 A 
ATOM     25  C   UNL     1      34.490 -19.890 -20.876  0.00  0.00    +0.139 A 
ATOM     26  C   UNL     1      36.904 -19.413 -20.773  0.00  0.00    +0.345 A 
ATOM     27  C   UNL     1      34.649 -20.849 -19.782  0.00  0.00    +0.068 A 
ATOM     28  C   UNL     1      35.916 -21.041 -19.241  0.00  0.00    +0.152 A 
ATOM     29  C   UNL     1      33.588 -21.591 -19.242  0.00  0.00    +0.006 C 
ATOM     30  C   UNL     1      36.153 -21.937 -18.197  0.00  0.00    +0.038 C 
ATOM     31  C   UNL     1      33.808 -22.493 -18.195  0.00  0.00    +0.000 C 
ATOM     32  C   UNL     1      35.090 -22.666 -17.674  0.00  0.00    +0.003 C 
BRANCH  25  33
ATOM     33  O   UNL     1      33.199 -19.764 -21.344  0.00  0.00    -0.506 OA
ATOM     34  H   UNL     1      32.616 -20.496 -21.313  0.00  0.00    +0.292 HD
ENDBRANCH  25  33
ENDBRANCH  21  24
BRANCH  21  35
ATOM     35  C   UNL     1      34.663 -18.763 -23.647  0.00  0.00    +0.009 C 
ATOM     36  C   UNL     1      35.228 -20.055 -24.228  0.00  0.00    +0.001 C 
ENDBRANCH  21  35
ENDBRANCH   1  21
TORSDOF 9
ENDMDL
MODEL 2
REMARK VINA RESULT:     -11.0      4.601     11.593
REMARK  Name = 54689025
REMARK  9 active torsions:
REMARK  status: ('A' for Active; 'I' for Inactive)
REMARK    1  A    between atoms: C_1  and  C_21
REMARK    2  A    between atoms: C_4  and  N_8
REMARK    3  A    between atoms: C_9  and  C_11
REMARK    4  A    between atoms: C_11  and  N_13
REMARK    5  A    between atoms: C_14  and  O_16
REMARK    6  A    between atoms: O_16  and  C_17
REMARK    7  A    between atoms: C_21  and  C_24
REMARK    8  A    between atoms: C_21  and  C_35
REMARK    9  A    between atoms: C_25  and  O_33
REMARK                            x       y       z     vdW  Elec       q    Type
REMARK                         _______ _______ _______ _____ _____    ______ ____
ROOT
ATOM      1  C   UNL     1      34.852 -20.325 -20.563  0.00  0.00    -0.017 C 
ATOM      2  C   UNL     1      35.190 -21.226 -19.554  0.00  0.00    +0.011 C 
ATOM      3  C   UNL     1      33.518 -19.975 -20.768  0.00  0.00    -0.004 C 
ATOM      4  C   UNL     1      34.193 -21.777 -18.748  0.00  0.00    +0.050 C 
ATOM      5  C   UNL     1      32.521 -20.526 -19.964  0.00  0.00    +0.001 C 
ATOM      6  C   UNL     1      32.858 -21.427 -18.954  0.00  0.00    +0.015 C 
ENDROOT
BRANCH   4   8
ATOM      7  O   UNL     1      36.349 -21.646 -16.660  0.00  0.00    -0.273 OA
ATOM      8  N   UNL     1      34.530 -22.679 -17.738  0.00  0.00    -0.283 N 
ATOM      9  C   UNL     1      35.553 -22.571 -16.783  0.00  0.00    +0.246 C 
ATOM     10  H   UNL     1      33.979 -23.494 -17.689  0.00  0.00    +0.155 HD
BRANCH   9  11
ATOM     11  C   UNL     1      35.569 -23.781 -15.867  0.00  0.00    +0.179 C 
BRANCH  11  13
ATOM     12  O   UNL     1      36.942 -23.214 -13.370  0.00  0.00    -0.226 OA
ATOM     13  N   UNL     1      36.916 -24.119 -15.508  0.00  0.00    -0.262 N 
ATOM     14  C   UNL     1      37.497 -23.809 -14.290  0.00  0.00    +0.402 C 
ATOM     15  H   UNL     1      37.463 -24.600 -16.170  0.00  0.00    +0.153 HD
BRANCH  14  16
ATOM     16  O   UNL     1      38.785 -24.263 -14.255  0.00  0.00    -0.442 OA
BRANCH  16  17
ATOM     17  C   UNL     1      38.973 -25.561 -13.679  0.00  0.00    +0.138 C 
ATOM     18  C   UNL     1      38.623 -25.490 -12.194  0.00  0.00    +0.044 C 
ATOM     19  C   UNL     1      40.441 -25.939 -13.868  0.00  0.00    +0.044 C 
ATOM     20  C   UNL     1      38.065 -26.551 -14.406  0.00  0.00    +0.044 C 
ENDBRANCH  16  17
ENDBRANCH  14  16
ENDBRANCH  11  13
ENDBRANCH   9  11
ENDBRANCH   4   8
BRANCH   1  21
ATOM     21  C   UNL     1      35.938 -19.725 -21.439  0.00  0.00    +0.054 C 
BRANCH  21  24
ATOM     22  O   UNL     1      34.694 -17.701 -24.387  0.00  0.00    -0.421 OA
ATOM     23  O   UNL     1      35.345 -19.868 -24.146  0.00  0.00    -0.245 OA
ATOM     24  C   UNL     1      35.424 -18.522 -22.183  0.00  0.00    +0.091 A 
ATOM     25  C   UNL     1      35.204 -17.305 -21.651  0.00  0.00    +0.139 A 
ATOM     26  C   UNL     1      35.161 -18.769 -23.631  0.00  0.00    +0.345 A 
ATOM     27  C   UNL     1      34.711 -16.200 -22.476  0.00  0.00    +0.068 A 
ATOM     28  C   UNL     1      34.470 -16.433 -23.826  0.00  0.00    +0.152 A 
ATOM     29  C   UNL     1      34.467 -14.912 -21.980  0.00  0.00    +0.006 C 
ATOM     30  C   UNL     1      34.000 -15.434 -24.682  0.00  0.00    +0.038 C 
ATOM     31  C   UNL     1      33.995 -13.900 -22.824  0.00  0.00    +0.000 C 
ATOM     32  C   UNL     1      33.764 -14.162 -24.173  0.00  0.00    +0.003 C 
BRANCH  25  33
ATOM     33  O   UNL     1      35.410 -16.982 -20.326  0.00  0.00    -0.506 OA
ATOM     34  H   UNL     1      34.864 -16.345 -19.909  0.00  0.00    +0.292 HD
ENDBRANCH  25  33
ENDBRANCH  21  24
BRANCH  21  35
ATOM     35  C   UNL     1      37.222 -19.355 -20.668  0.00  0.00    +0.009 C 
ATOM     36  C   UNL     1      38.231 -18.596 -21.523  0.00  0.00    +0.001 C 
ENDBRANCH  21  35
ENDBRANCH   1  21
TORSDOF 9
ENDMDL
MODEL 3
REMARK VINA RESULT:     -10.5      4.172     11.085
REMARK  Name = 54689025
REMARK  9 active torsions:
REMARK  status: ('A' for Active; 'I' for Inactive)
REMARK    1  A    between atoms: C_1  and  C_21
REMARK    2  A    between atoms: C_4  and  N_8
REMARK    3  A    between atoms: C_9  and  C_11
REMARK    4  A    between atoms: C_11  and  N_13
REMARK    5  A    between atoms: C_14  and  O_16
REMARK    6  A    between atoms: O_16  and  C_17
REMARK    7  A    between atoms: C_21  and  C_24
REMARK    8  A    between atoms: C_21  and  C_35
REMARK    9  A    between atoms: C_25  and  O_33
REMARK                            x       y       z     vdW  Elec       q    Type
REMARK                         _______ _______ _______ _____ _____    ______ ____
ROOT
ATOM      1  C   UNL     1      35.106 -19.820 -21.247  0.00  0.00    -0.017 C 
ATOM      2  C   UNL     1      35.854 -20.513 -20.296  0.00  0.00    +0.011 C 
ATOM      3  C   UNL     1      33.712 -19.864 -21.205  0.00  0.00    -0.004 C 
ATOM      4  C   UNL     1      35.210 -21.250 -19.302  0.00  0.00    +0.050 C 
ATOM      5  C   UNL     1      33.067 -20.602 -20.212  0.00  0.00    +0.001 C 
ATOM      6  C   UNL     1      33.816 -21.294 -19.261  0.00  0.00    +0.015 C 
ENDROOT
BRANCH   4   8
ATOM      7  O   UNL     1      37.481 -20.332 -17.563  0.00  0.00    -0.273 OA
ATOM      8  N   UNL     1      35.958 -21.944 -18.351  0.00  0.00    -0.283 N 
ATOM      9  C   UNL     1      37.016 -21.467 -17.560  0.00  0.00    +0.246 C 
ATOM     10  H   UNL     1      35.712 -22.888 -18.216  0.00  0.00    +0.155 HD
BRANCH   9  11
ATOM     11  C   UNL     1      37.551 -22.559 -16.652  0.00  0.00    +0.179 C 
BRANCH  11  13
ATOM     12  O   UNL     1      38.274 -23.663 -14.064  0.00  0.00    -0.226 OA
ATOM     13  N   UNL     1      36.720 -22.695 -15.491  0.00  0.00    -0.262 N 
ATOM     14  C   UNL     1      37.146 -23.236 -14.290  0.00  0.00    +0.402 C 
ATOM     15  H   UNL     1      35.788 -22.384 -15.552  0.00  0.00    +0.153 HD
BRANCH  14  16
ATOM     16  O   UNL     1      36.124 -23.226 -13.382  0.00  0.00    -0.442 OA
BRANCH  16  17
ATOM     17  C   UNL     1      35.513 -24.493 -13.118  0.00  0.00    +0.138 C 
ATOM     18  C   UNL     1      34.010 -24.281 -12.939  0.00  0.00    +0.044 C 
ATOM     19  C   UNL     1      36.134 -25.045 -11.836  0.00  0.00    +0.044 C 
ATOM     20  C   UNL     1      35.795 -25.424 -14.296  0.00  0.00    +0.044 C 
ENDBRANCH  16  17
ENDBRANCH  14  16
ENDBRANCH  11  13
ENDBRANCH   9  11
ENDBRANCH   4   8
BRANCH   1  21
ATOM     21  C   UNL     1      35.808 -19.018 -22.327  0.00  0.00    +0.054 C 
BRANCH  21  24
ATOM     22  O   UNL     1      34.191 -16.129 -24.164  0.00  0.00    -0.421 OA
ATOM     23  O   UNL     1      34.996 -18.147 -24.835  0.00  0.00    -0.245 OA
ATOM     24  C   UNL     1      35.157 -17.673 -22.507  0.00  0.00    +0.091 A 
ATOM     25  C   UNL     1      34.906 -16.786 -21.525  0.00  0.00    +0.139 A 
ATOM     26  C   UNL     1      34.787 -17.358 -23.918  0.00  0.00    +0.345 A 
ATOM     27  C   UNL     1      34.274 -15.498 -21.819  0.00  0.00    +0.068 A 
ATOM     28  C   UNL     1      33.934 -15.206 -23.135  0.00  0.00    +0.152 A 
ATOM     29  C   UNL     1      33.992 -14.534 -20.841  0.00  0.00    +0.006 C 
ATOM     30  C   UNL     1      33.331 -14.001 -23.500  0.00  0.00    +0.038 C 
ATOM     31  C   UNL     1      33.386 -13.321 -21.189  0.00  0.00    +0.000 C 
ATOM     32  C   UNL     1      33.058 -13.055 -22.517  0.00  0.00    +0.003 C 
BRANCH  25  33
ATOM     33  O   UNL     1      35.202 -16.988 -20.194  0.00  0.00    -0.506 OA
ATOM     34  H   UNL     1      35.663 -16.330 -19.711  0.00  0.00    +0.292 HD
ENDBRANCH  25  33
ENDBRANCH  21  24
BRANCH  21  35
ATOM     35  C   UNL     1      37.321 -18.840 -22.083  0.00  0.00    +0.009 C 
ATOM     36  C   UNL     1      37.673 -18.710 -20.605  0.00  0.00    +0.001 C 
ENDBRANCH  21  35
ENDBRANCH   1  21
TORSDOF 9
ENDMDL
MODEL 4
REMARK VINA RESULT:      -9.7      4.255     11.111
REMARK  Name = 54689025
REMARK  9 active torsions:
REMARK  status: ('A' for Active; 'I' for Inactive)
REMARK    1  A    between atoms: C_1  and  C_21
REMARK    2  A    between atoms: C_4  and  N_8
REMARK    3  A    between atoms: C_9  and  C_11
REMARK    4  A    between atoms: C_11  and  N_13
REMARK    5  A    between atoms: C_14  and  O_16
REMARK    6  A    between atoms: O_16  and  C_17
REMARK    7  A    between atoms: C_21  and  C_24
REMARK    8  A    between atoms: C_21  and  C_35
REMARK    9  A    between atoms: C_25  and  O_33
REMARK                            x       y       z     vdW  Elec       q    Type
REMARK                         _______ _______ _______ _____ _____    ______ ____
ROOT
ATOM      1  C   UNL     1      35.173 -19.810 -21.321  0.00  0.00    -0.017 C 
ATOM      2  C   UNL     1      35.881 -20.538 -20.365  0.00  0.00    +0.011 C 
ATOM      3  C   UNL     1      33.778 -19.782 -21.285  0.00  0.00    -0.004 C 
ATOM      4  C   UNL     1      35.195 -21.237 -19.372  0.00  0.00    +0.050 C 
ATOM      5  C   UNL     1      33.093 -20.483 -20.293  0.00  0.00    +0.001 C 
ATOM      6  C   UNL     1      33.801 -21.210 -19.336  0.00  0.00    +0.015 C 
ENDROOT
BRANCH   4   8
ATOM      7  O   UNL     1      37.400 -20.389 -17.516  0.00  0.00    -0.273 OA
ATOM      8  N   UNL     1      35.903 -21.967 -18.416  0.00  0.00    -0.283 N 
ATOM      9  C   UNL     1      36.931 -21.521 -17.569  0.00  0.00    +0.246 C 
ATOM     10  H   UNL     1      35.648 -22.913 -18.322  0.00  0.00    +0.155 HD
BRANCH   9  11
ATOM     11  C   UNL     1      37.425 -22.646 -16.677  0.00  0.00    +0.179 C 
BRANCH  11  13
ATOM     12  O   UNL     1      38.237 -23.589 -14.052  0.00  0.00    -0.226 OA
ATOM     13  N   UNL     1      36.629 -22.727 -15.488  0.00  0.00    -0.262 N 
ATOM     14  C   UNL     1      37.097 -23.192 -14.270  0.00  0.00    +0.402 C 
ATOM     15  H   UNL     1      35.690 -22.434 -15.540  0.00  0.00    +0.153 HD
BRANCH  14  16
ATOM     16  O   UNL     1      36.100 -23.144 -13.336  0.00  0.00    -0.442 OA
BRANCH  16  17
ATOM     17  C   UNL     1      35.405 -24.375 -13.103  0.00  0.00    +0.138 C 
ATOM     18  C   UNL     1      36.059 -25.470 -13.945  0.00  0.00    +0.044 C 
ATOM     19  C   UNL     1      33.951 -24.168 -13.525  0.00  0.00    +0.044 C 
ATOM     20  C   UNL     1      35.491 -24.707 -11.614  0.00  0.00    +0.044 C 
ENDBRANCH  16  17
ENDBRANCH  14  16
ENDBRANCH  11  13
ENDBRANCH   9  11
ENDBRANCH   4   8
BRANCH   1  21
ATOM     21  C   UNL     1      35.919 -19.048 -22.401  0.00  0.00    +0.054 C 
BRANCH  21  24
ATOM     22  O   UNL     1      34.496 -15.633 -21.596  0.00  0.00    -0.421 OA
ATOM     23  O   UNL     1      35.455 -17.261 -20.329  0.00  0.00    -0.245 OA
ATOM     24  C   UNL     1      35.275 -17.712 -22.660  0.00  0.00    +0.091 A 
ATOM     25  C   UNL     1      34.873 -17.256 -23.861  0.00  0.00    +0.139 A 
ATOM     26  C   UNL     1      35.094 -16.877 -21.437  0.00  0.00    +0.345 A 
ATOM     27  C   UNL     1      34.247 -15.939 -23.994  0.00  0.00    +0.068 A 
ATOM     28  C   UNL     1      34.076 -15.163 -22.852  0.00  0.00    +0.152 A 
ATOM     29  C   UNL     1      33.805 -15.411 -25.216  0.00  0.00    +0.006 C 
ATOM     30  C   UNL     1      33.487 -13.898 -22.892  0.00  0.00    +0.038 C 
ATOM     31  C   UNL     1      33.213 -14.144 -25.273  0.00  0.00    +0.000 C 
ATOM     32  C   UNL     1      33.054 -13.390 -24.112  0.00  0.00    +0.003 C 
BRANCH  25  33
ATOM     33  O   UNL     1      35.004 -17.949 -25.046  0.00  0.00    -0.506 OA
ATOM     34  H   UNL     1      35.308 -18.835 -25.039  0.00  0.00    +0.292 HD
ENDBRANCH  25  33
ENDBRANCH  21  24
BRANCH  21  35
ATOM     35  C   UNL     1      37.420 -18.857 -22.100  0.00  0.00    +0.009 C 
ATOM     36  C   UNL     1      37.725 -18.806 -20.606  0.00  0.00    +0.001 C 
ENDBRANCH  21  35
ENDBRANCH   1  21
TORSDOF 9
ENDMDL
MODEL 5
REMARK VINA RESULT:      -8.8      5.423     10.020
REMARK  Name = 54689025
REMARK  9 active torsions:
REMARK  status: ('A' for Active; 'I' for Inactive)
REMARK    1  A    between atoms: C_1  and  C_21
REMARK    2  A    between atoms: C_4  and  N_8
REMARK    3  A    between atoms: C_9  and  C_11
REMARK    4  A    between atoms: C_11  and  N_13
REMARK    5  A    between atoms: C_14  and  O_16
REMARK    6  A    between atoms: O_16  and  C_17
REMARK    7  A    between atoms: C_21  and  C_24
REMARK    8  A    between atoms: C_21  and  C_35
REMARK    9  A    between atoms: C_25  and  O_33
REMARK                            x       y       z     vdW  Elec       q    Type
REMARK                         _______ _______ _______ _____ _____    ______ ____
ROOT
ATOM      1  C   UNL     1      33.012 -24.112 -15.327  0.00  0.00    -0.017 C 
ATOM      2  C   UNL     1      33.964 -23.768 -16.286  0.00  0.00    +0.011 C 
ATOM      3  C   UNL     1      31.734 -23.556 -15.382  0.00  0.00    -0.004 C 
ATOM      4  C   UNL     1      33.639 -22.868 -17.301  0.00  0.00    +0.050 C 
ATOM      5  C   UNL     1      31.409 -22.655 -16.396  0.00  0.00    +0.001 C 
ATOM      6  C   UNL     1      32.361 -22.312 -17.356  0.00  0.00    +0.015 C 
ENDROOT
BRANCH   4   8
ATOM      7  O   UNL     1      36.372 -21.661 -16.985  0.00  0.00    -0.273 OA
ATOM      8  N   UNL     1      34.591 -22.523 -18.261  0.00  0.00    -0.283 N 
ATOM      9  C   UNL     1      35.861 -21.957 -18.061  0.00  0.00    +0.246 C 
ATOM     10  H   UNL     1      34.342 -22.700 -19.197  0.00  0.00    +0.155 HD
BRANCH   9  11
ATOM     11  C   UNL     1      36.575 -21.743 -19.383  0.00  0.00    +0.179 C 
BRANCH  11  13
ATOM     12  O   UNL     1      34.138 -20.695 -20.568  0.00  0.00    -0.226 OA
ATOM     13  N   UNL     1      36.335 -20.416 -19.871  0.00  0.00    -0.262 N 
ATOM     14  C   UNL     1      35.137 -19.997 -20.425  0.00  0.00    +0.402 C 
ATOM     15  H   UNL     1      37.068 -19.762 -19.808  0.00  0.00    +0.153 HD
BRANCH  14  16
ATOM     16  O   UNL     1      35.225 -18.683 -20.792  0.00  0.00    -0.442 OA
BRANCH  16  17
ATOM     17  C   UNL     1      35.700 -18.438 -22.120  0.00  0.00    +0.138 C 
ATOM     18  C   UNL     1      37.218 -18.614 -22.134  0.00  0.00    +0.044 C 
ATOM     19  C   UNL     1      35.322 -17.003 -22.485  0.00  0.00    +0.044 C 
ATOM     20  C   UNL     1      35.027 -19.428 -23.068  0.00  0.00    +0.044 C 
ENDBRANCH  16  17
ENDBRANCH  14  16
ENDBRANCH  11  13
ENDBRANCH   9  11
ENDBRANCH   4   8
BRANCH   1  21
ATOM     21  C   UNL     1      33.366 -25.092 -14.223  0.00  0.00    +0.054 C 
BRANCH  21  24
ATOM     22  O   UNL     1      36.461 -23.976 -12.350  0.00  0.00    -0.421 OA
ATOM     23  O   UNL     1      34.246 -23.516 -12.115  0.00  0.00    -0.245 OA
ATOM     24  C   UNL     1      34.829 -25.007 -13.877  0.00  0.00    +0.091 A 
ATOM     25  C   UNL     1      35.824 -25.651 -14.516  0.00  0.00    +0.139 A 
ATOM     26  C   UNL     1      35.130 -24.113 -12.722  0.00  0.00    +0.345 A 
ATOM     27  C   UNL     1      37.217 -25.485 -14.098  0.00  0.00    +0.068 A 
ATOM     28  C   UNL     1      37.496 -24.648 -13.022  0.00  0.00    +0.152 A 
ATOM     29  C   UNL     1      38.296 -26.125 -14.725  0.00  0.00    +0.006 C 
ATOM     30  C   UNL     1      38.796 -24.434 -12.561  0.00  0.00    +0.038 C 
ATOM     31  C   UNL     1      39.605 -25.923 -14.275  0.00  0.00    +0.000 C 
ATOM     32  C   UNL     1      39.854 -25.077 -13.195  0.00  0.00    +0.003 C 
BRANCH  25  33
ATOM     33  O   UNL     1      35.646 -26.502 -15.587  0.00  0.00    -0.506 OA
ATOM     34  H   UNL     1      35.100 -27.258 -15.498  0.00  0.00    +0.292 HD
ENDBRANCH  25  33
ENDBRANCH  21  24
BRANCH  21  35
ATOM     35  C   UNL     1      32.515 -24.923 -12.948  0.00  0.00    +0.009 C 
ATOM     36  C   UNL     1      31.047 -25.276 -13.163  0.00  0.00    +0.001 C 
ENDBRANCH  21  35
ENDBRANCH   1  21
TORSDOF 9
ENDMDL
MODEL 6
REMARK VINA RESULT:      -8.7      3.114      5.503
REMARK  Name = 54689025
REMARK  9 active torsions:
REMARK  status: ('A' for Active; 'I' for Inactive)
REMARK    1  A    between atoms: C_1  and  C_21
REMARK    2  A    between atoms: C_4  and  N_8
REMARK    3  A    between atoms: C_9  and  C_11
REMARK    4  A    between atoms: C_11  and  N_13
REMARK    5  A    between atoms: C_14  and  O_16
REMARK    6  A    between atoms: O_16  and  C_17
REMARK    7  A    between atoms: C_21  and  C_24
REMARK    8  A    between atoms: C_21  and  C_35
REMARK    9  A    between atoms: C_25  and  O_33
REMARK                            x       y       z     vdW  Elec       q    Type
REMARK                         _______ _______ _______ _____ _____    ______ ____
ROOT
ATOM      1  C   UNL     1      33.038 -12.325 -22.232  0.00  0.00    -0.017 C 
ATOM      2  C   UNL     1      32.853 -10.945 -22.156  0.00  0.00    +0.011 C 
ATOM      3  C   UNL     1      32.233 -13.179 -21.479  0.00  0.00    -0.004 C 
ATOM      4  C   UNL     1      31.863 -10.418 -21.327  0.00  0.00    +0.050 C 
ATOM      5  C   UNL     1      31.243 -12.652 -20.649  0.00  0.00    +0.001 C 
ATOM      6  C   UNL     1      31.058 -11.272 -20.573  0.00  0.00    +0.015 C 
ENDROOT
BRANCH   4   8
ATOM      7  O   UNL     1      32.716  -8.455 -19.219  0.00  0.00    -0.273 OA
ATOM      8  N   UNL     1      31.679  -9.037 -21.249  0.00  0.00    -0.283 N 
ATOM      9  C   UNL     1      32.098  -8.160 -20.237  0.00  0.00    +0.246 C 
ATOM     10  H   UNL     1      31.193  -8.625 -22.001  0.00  0.00    +0.155 HD
BRANCH   9  11
ATOM     11  C   UNL     1      31.690  -6.732 -20.551  0.00  0.00    +0.179 C 
BRANCH  11  13
ATOM     12  O   UNL     1      30.863  -5.040 -22.763  0.00  0.00    -0.226 OA
ATOM     13  N   UNL     1      32.506  -6.198 -21.602  0.00  0.00    -0.262 N 
ATOM     14  C   UNL     1      32.029  -5.395 -22.624  0.00  0.00    +0.402 C 
ATOM     15  H   UNL     1      33.466  -6.417 -21.596  0.00  0.00    +0.153 HD
BRANCH  14  16
ATOM     16  O   UNL     1      33.051  -5.050 -23.465  0.00  0.00    -0.442 OA
BRANCH  16  17
ATOM     17  C   UNL     1      33.409  -6.030 -24.445  0.00  0.00    +0.138 C 
ATOM     18  C   UNL     1      34.818  -6.535 -24.137  0.00  0.00    +0.044 C 
ATOM     19  C   UNL     1      33.370  -5.347 -25.812  0.00  0.00    +0.044 C 
ATOM     20  C   UNL     1      32.395  -7.171 -24.385  0.00  0.00    +0.044 C 
ENDBRANCH  16  17
ENDBRANCH  14  16
ENDBRANCH  11  13
ENDBRANCH   9  11
ENDBRANCH   4   8
BRANCH   1  21
ATOM     21  C   UNL     1      34.115 -12.898 -23.135  0.00  0.00    +0.054 C 
BRANCH  21  24
ATOM     22  O   UNL     1      34.999 -15.884 -20.983  0.00  0.00    -0.421 OA
ATOM     23  O   UNL     1      34.761 -13.664 -20.547  0.00  0.00    -0.245 OA
ATOM     24  C   UNL     1      34.388 -14.339 -22.800  0.00  0.00    +0.091 A 
ATOM     25  C   UNL     1      34.350 -15.367 -23.669  0.00  0.00    +0.139 A 
ATOM     26  C   UNL     1      34.725 -14.578 -21.366  0.00  0.00    +0.345 A 
ATOM     27  C   UNL     1      34.645 -16.733 -23.232  0.00  0.00    +0.068 A 
ATOM     28  C   UNL     1      34.962 -16.952 -21.895  0.00  0.00    +0.152 A 
ATOM     29  C   UNL     1      34.625 -17.842 -24.090  0.00  0.00    +0.006 C 
ATOM     30  C   UNL     1      35.256 -18.223 -21.397  0.00  0.00    +0.038 C 
ATOM     31  C   UNL     1      34.917 -19.123 -23.606  0.00  0.00    +0.000 C 
ATOM     32  C   UNL     1      35.233 -19.312 -22.262  0.00  0.00    +0.003 C 
BRANCH  25  33
ATOM     33  O   UNL     1      34.043 -15.249 -25.008  0.00  0.00    -0.506 OA
ATOM     34  H   UNL     1      33.230 -14.863 -25.270  0.00  0.00    +0.292 HD
ENDBRANCH  25  33
ENDBRANCH  21  24
BRANCH  21  35
ATOM     35  C   UNL     1      33.801 -12.760 -24.639  0.00  0.00    +0.009 C 
ATOM     36  C   UNL     1      34.484 -11.556 -25.281  0.00  0.00    +0.001 C 
ENDBRANCH  21  35
ENDBRANCH   1  21
TORSDOF 9
ENDMDL
MODEL 7
REMARK VINA RESULT:      -8.7      3.550      6.725
REMARK  Name = 54689025
REMARK  9 active torsions:
REMARK  status: ('A' for Active; 'I' for Inactive)
REMARK    1  A    between atoms: C_1  and  C_21
REMARK    2  A    between atoms: C_4  and  N_8
REMARK    3  A    between atoms: C_9  and  C_11
REMARK    4  A    between atoms: C_11  and  N_13
REMARK    5  A    between atoms: C_14  and  O_16
REMARK    6  A    between atoms: O_16  and  C_17
REMARK    7  A    between atoms: C_21  and  C_24
REMARK    8  A    between atoms: C_21  and  C_35
REMARK    9  A    between atoms: C_25  and  O_33
REMARK                            x       y       z     vdW  Elec       q    Type
REMARK                         _______ _______ _______ _____ _____    ______ ____
ROOT
ATOM      1  C   UNL     1      33.125 -11.286 -22.964  0.00  0.00    -0.017 C 
ATOM      2  C   UNL     1      32.744 -10.013 -22.543  0.00  0.00    +0.011 C 
ATOM      3  C   UNL     1      34.247 -11.446 -23.777  0.00  0.00    -0.004 C 
ATOM      4  C   UNL     1      33.486  -8.898 -22.933  0.00  0.00    +0.050 C 
ATOM      5  C   UNL     1      34.988 -10.331 -24.169  0.00  0.00    +0.001 C 
ATOM      6  C   UNL     1      34.608  -9.057 -23.746  0.00  0.00    +0.015 C 
ENDROOT
BRANCH   4   8
ATOM      7  O   UNL     1      33.123  -7.789 -20.164  0.00  0.00    -0.273 OA
ATOM      8  N   UNL     1      33.105  -7.623 -22.512  0.00  0.00    -0.283 N 
ATOM      9  C   UNL     1      32.948  -7.153 -21.198  0.00  0.00    +0.246 C 
ATOM     10  H   UNL     1      32.924  -6.971 -23.227  0.00  0.00    +0.155 HD
BRANCH   9  11
ATOM     11  C   UNL     1      32.521  -5.696 -21.191  0.00  0.00    +0.179 C 
BRANCH  11  13
ATOM     12  O   UNL     1      30.165  -4.170 -21.940  0.00  0.00    -0.226 OA
ATOM     13  N   UNL     1      32.121  -5.286 -22.505  0.00  0.00    -0.262 N 
ATOM     14  C   UNL     1      30.976  -4.556 -22.776  0.00  0.00    +0.402 C 
ATOM     15  H   UNL     1      32.697  -5.539 -23.263  0.00  0.00    +0.153 HD
BRANCH  14  16
ATOM     16  O   UNL     1      30.875  -4.323 -24.119  0.00  0.00    -0.442 OA
BRANCH  16  17
ATOM     17  C   UNL     1      31.377  -3.061 -24.573  0.00  0.00    +0.138 C 
ATOM     18  C   UNL     1      31.737  -2.214 -23.353  0.00  0.00    +0.044 C 
ATOM     19  C   UNL     1      30.269  -2.391 -25.384  0.00  0.00    +0.044 C 
ATOM     20  C   UNL     1      32.606  -3.312 -25.445  0.00  0.00    +0.044 C 
ENDBRANCH  16  17
ENDBRANCH  14  16
ENDBRANCH  11  13
ENDBRANCH   9  11
ENDBRANCH   4   8
BRANCH   1  21
ATOM     21  C   UNL     1      32.318 -12.500 -22.539  0.00  0.00    +0.054 C 
BRANCH  21  24
ATOM     22  O   UNL     1      33.846 -15.373 -24.473  0.00  0.00    -0.421 OA
ATOM     23  O   UNL     1      32.615 -13.561 -25.086  0.00  0.00    -0.245 OA
ATOM     24  C   UNL     1      33.095 -13.769 -22.763  0.00  0.00    +0.091 A 
ATOM     25  C   UNL     1      33.704 -14.495 -21.806  0.00  0.00    +0.139 A 
ATOM     26  C   UNL     1      33.153 -14.203 -24.189  0.00  0.00    +0.345 A 
ATOM     27  C   UNL     1      34.426 -15.724 -22.139  0.00  0.00    +0.068 A 
ATOM     28  C   UNL     1      34.476 -16.128 -23.469  0.00  0.00    +0.152 A 
ATOM     29  C   UNL     1      35.076 -16.523 -21.188  0.00  0.00    +0.006 C 
ATOM     30  C   UNL     1      35.143 -17.287 -23.871  0.00  0.00    +0.038 C 
ATOM     31  C   UNL     1      35.750 -17.687 -21.574  0.00  0.00    +0.000 C 
ATOM     32  C   UNL     1      35.781 -18.068 -22.914  0.00  0.00    +0.003 C 
BRANCH  25  33
ATOM     33  O   UNL     1      33.713 -14.172 -20.465  0.00  0.00    -0.506 OA
ATOM     34  H   UNL     1      34.382 -13.614 -20.122  0.00  0.00    +0.292 HD
ENDBRANCH  25  33
ENDBRANCH  21  24
BRANCH  21  35
ATOM     35  C   UNL     1      31.827 -12.436 -21.077  0.00  0.00    +0.009 C 
ATOM     36  C   UNL     1      30.649 -11.487 -20.886  0.00  0.00    +0.001 C 
ENDBRANCH  21  35
ENDBRANCH   1  21
TORSDOF 9
ENDMDL
MODEL 8
REMARK VINA RESULT:      -8.7      4.386     10.783
REMARK  Name = 54689025
REMARK  9 active torsions:
REMARK  status: ('A' for Active; 'I' for Inactive)
REMARK    1  A    between atoms: C_1  and  C_21
REMARK    2  A    between atoms: C_4  and  N_8
REMARK    3  A    between atoms: C_9  and  C_11
REMARK    4  A    between atoms: C_11  and  N_13
REMARK    5  A    between atoms: C_14  and  O_16
REMARK    6  A    between atoms: O_16  and  C_17
REMARK    7  A    between atoms: C_21  and  C_24
REMARK    8  A    between atoms: C_21  and  C_35
REMARK    9  A    between atoms: C_25  and  O_33
REMARK                            x       y       z     vdW  Elec       q    Type
REMARK                         _______ _______ _______ _____ _____    ______ ____
ROOT
ATOM      1  C   UNL     1      35.033 -19.891 -21.079  0.00  0.00    -0.017 C 
ATOM      2  C   UNL     1      35.550 -20.734 -20.096  0.00  0.00    +0.011 C 
ATOM      3  C   UNL     1      33.653 -19.740 -21.214  0.00  0.00    -0.004 C 
ATOM      4  C   UNL     1      34.687 -21.425 -19.246  0.00  0.00    +0.050 C 
ATOM      5  C   UNL     1      32.790 -20.433 -20.365  0.00  0.00    +0.001 C 
ATOM      6  C   UNL     1      33.307 -21.275 -19.381  0.00  0.00    +0.015 C 
ENDROOT
BRANCH   4   8
ATOM      7  O   UNL     1      36.759 -20.913 -17.132  0.00  0.00    -0.273 OA
ATOM      8  N   UNL     1      35.203 -22.270 -18.262  0.00  0.00    -0.283 N 
ATOM      9  C   UNL     1      36.177 -21.981 -17.293  0.00  0.00    +0.246 C 
ATOM     10  H   UNL     1      34.837 -23.184 -18.245  0.00  0.00    +0.155 HD
BRANCH   9  11
ATOM     11  C   UNL     1      36.446 -23.190 -16.416  0.00  0.00    +0.179 C 
BRANCH  11  13
ATOM     12  O   UNL     1      35.027 -23.092 -13.882  0.00  0.00    -0.226 OA
ATOM     13  N   UNL     1      35.215 -23.841 -16.072  0.00  0.00    -0.262 N 
ATOM     14  C   UNL     1      34.603 -23.741 -14.833  0.00  0.00    +0.402 C 
ATOM     15  H   UNL     1      34.778 -24.394 -16.759  0.00  0.00    +0.153 HD
BRANCH  14  16
ATOM     16  O   UNL     1      33.450 -24.474 -14.820  0.00  0.00    -0.442 OA
BRANCH  16  17
ATOM     17  C   UNL     1      32.234 -23.725 -14.925  0.00  0.00    +0.138 C 
ATOM     18  C   UNL     1      31.060 -24.702 -14.937  0.00  0.00    +0.044 C 
ATOM     19  C   UNL     1      32.292 -22.938 -16.233  0.00  0.00    +0.044 C 
ATOM     20  C   UNL     1      32.142 -22.777 -13.730  0.00  0.00    +0.044 C 
ENDBRANCH  16  17
ENDBRANCH  14  16
ENDBRANCH  11  13
ENDBRANCH   9  11
ENDBRANCH   4   8
BRANCH   1  21
ATOM     21  C   UNL     1      35.973 -19.137 -22.003  0.00  0.00    +0.054 C 
BRANCH  21  24
ATOM     22  O   UNL     1      34.554 -15.636 -21.761  0.00  0.00    -0.421 OA
ATOM     23  O   UNL     1      35.466 -17.057 -20.237  0.00  0.00    -0.245 OA
ATOM     24  C   UNL     1      35.346 -17.854 -22.478  0.00  0.00    +0.091 A 
ATOM     25  C   UNL     1      34.980 -17.582 -23.745  0.00  0.00    +0.139 A 
ATOM     26  C   UNL     1      35.138 -16.843 -21.401  0.00  0.00    +0.345 A 
ATOM     27  C   UNL     1      34.367 -16.298 -24.092  0.00  0.00    +0.068 A 
ATOM     28  C   UNL     1      34.171 -15.359 -23.085  0.00  0.00    +0.152 A 
ATOM     29  C   UNL     1      33.963 -15.959 -25.391  0.00  0.00    +0.006 C 
ATOM     30  C   UNL     1      33.593 -14.113 -23.330  0.00  0.00    +0.038 C 
ATOM     31  C   UNL     1      33.382 -14.713 -25.654  0.00  0.00    +0.000 C 
ATOM     32  C   UNL     1      33.197 -13.793 -24.625  0.00  0.00    +0.003 C 
BRANCH  25  33
ATOM     33  O   UNL     1      35.139 -18.446 -24.808  0.00  0.00    -0.506 OA
ATOM     34  H   UNL     1      35.820 -18.299 -25.434  0.00  0.00    +0.292 HD
ENDBRANCH  25  33
ENDBRANCH  21  24
BRANCH  21  35
ATOM     35  C   UNL     1      37.355 -18.848 -21.381  0.00  0.00    +0.009 C 
ATOM     36  C   UNL     1      37.543 -19.510 -20.020  0.00  0.00    +0.001 C 
ENDBRANCH  21  35
ENDBRANCH   1  21
TORSDOF 9
ENDMDL
