MODEL 1
REMARK VINA RESULT:     -11.2      0.000      0.000
REMARK  Name = 4823
REMARK  3 active torsions:
REMARK  status: ('A' for Active; 'I' for Inactive)
REMARK    1  A    between atoms: C_3  and  C_16
REMARK    2  A    between atoms: C_9  and  C_21
REMARK    3  A    between atoms: C_26  and  O_27
REMARK                            x       y       z     vdW  Elec       q    Type
REMARK                         _______ _______ _______ _____ _____    ______ ____
ROOT
ATOM      1  N   UNL     1      35.874 -20.475 -19.721  0.00  0.00    -0.315 N 
ATOM      2  N   UNL     1      33.702 -20.774 -20.087  0.00  0.00    -0.315 N 
ATOM      3  C   UNL     1      35.379 -22.869 -16.928  0.00  0.00    +0.016 C 
ATOM      4  C   UNL     1      35.461 -21.363 -18.762  0.00  0.00    +0.059 C 
ATOM      5  C   UNL     1      36.137 -22.013 -17.729  0.00  0.00    +0.017 C 
ATOM      6  C   UNL     1      34.101 -21.534 -19.012  0.00  0.00    +0.059 C 
ATOM      7  C   UNL     1      34.017 -23.064 -17.149  0.00  0.00    +0.003 C 
ATOM      8  C   UNL     1      33.358 -22.400 -18.192  0.00  0.00    +0.016 C 
ATOM      9  C   UNL     1      34.789 -20.153 -20.487  0.00  0.00    +0.168 C 
ATOM     10  H   UNL     1      36.789 -20.130 -19.836  0.00  0.00    +0.149 HD
ATOM     11  H   UNL     1      32.799 -20.710 -20.472  0.00  0.00    +0.149 HD
ENDROOT
BRANCH   3  16
ATOM     12  O   UNL     1      38.102 -25.763 -13.102  0.00  0.00    -0.273 OA
ATOM     13  N   UNL     1      37.277 -23.290 -15.504  0.00  0.00    -0.184 NA
ATOM     14  N   UNL     1      37.905 -23.972 -14.520  0.00  0.00    -0.206 N 
ATOM     15  C   UNL     1      35.275 -24.648 -15.016  0.00  0.00    +0.051 C 
ATOM     16  C   UNL     1      36.050 -23.598 -15.801  0.00  0.00    +0.076 C 
ATOM     17  C   UNL     1      36.241 -25.745 -14.600  0.00  0.00    +0.093 C 
ATOM     18  C   UNL     1      34.595 -24.006 -13.805  0.00  0.00    +0.007 C 
ATOM     19  C   UNL     1      37.483 -25.165 -13.982  0.00  0.00    +0.241 C 
ATOM     20  H   UNL     1      38.733 -23.581 -14.157  0.00  0.00    +0.177 HD
ENDBRANCH   3  16
BRANCH   9  21
ATOM     21  C   UNL     1      34.881 -19.232 -21.595  0.00  0.00    +0.015 C 
ATOM     22  C   UNL     1      35.163 -17.887 -21.362  0.00  0.00    +0.002 C 
ATOM     23  C   UNL     1      34.687 -19.689 -22.899  0.00  0.00    +0.002 C 
ATOM     24  C   UNL     1      35.253 -16.998 -22.433  0.00  0.00    +0.037 C 
ATOM     25  C   UNL     1      34.777 -18.801 -23.969  0.00  0.00    +0.037 C 
ATOM     26  C   UNL     1      35.060 -17.454 -23.736  0.00  0.00    +0.139 C 
BRANCH  26  27
ATOM     27  O   UNL     1      35.148 -16.587 -24.781  0.00  0.00    -0.471 OA
ATOM     28  C   UNL     1      34.186 -15.533 -24.833  0.00  0.00    +0.252 C 
ENDBRANCH  26  27
ENDBRANCH   9  21
TORSDOF 3
ENDMDL
MODEL 2
REMARK VINA RESULT:     -10.8      1.103      1.374
REMARK  Name = 4823
REMARK  3 active torsions:
REMARK  status: ('A' for Active; 'I' for Inactive)
REMARK    1  A    between atoms: C_3  and  C_16
REMARK    2  A    between atoms: C_9  and  C_21
REMARK    3  A    between atoms: C_26  and  O_27
REMARK                            x       y       z     vdW  Elec       q    Type
REMARK                         _______ _______ _______ _____ _____    ______ ____
ROOT
ATOM      1  N   UNL     1      35.695 -20.627 -19.491  0.00  0.00    -0.315 N 
ATOM      2  N   UNL     1      33.544 -20.922 -19.961  0.00  0.00    -0.315 N 
ATOM      3  C   UNL     1      35.056 -22.995 -16.706  0.00  0.00    +0.016 C 
ATOM      4  C   UNL     1      35.232 -21.505 -18.547  0.00  0.00    +0.059 C 
ATOM      5  C   UNL     1      35.855 -22.148 -17.477  0.00  0.00    +0.017 C 
ATOM      6  C   UNL     1      33.886 -21.674 -18.862  0.00  0.00    +0.059 C 
ATOM      7  C   UNL     1      33.705 -23.187 -16.992  0.00  0.00    +0.003 C 
ATOM      8  C   UNL     1      33.101 -22.531 -18.072  0.00  0.00    +0.016 C 
ATOM      9  C   UNL     1      34.651 -20.308 -20.313  0.00  0.00    +0.168 C 
ATOM     10  H   UNL     1      36.617 -20.286 -19.564  0.00  0.00    +0.149 HD
ATOM     11  H   UNL     1      32.660 -20.858 -20.392  0.00  0.00    +0.149 HD
ENDROOT
BRANCH   3  16
ATOM     12  O   UNL     1      36.914 -25.571 -12.196  0.00  0.00    -0.273 OA
ATOM     13  N   UNL     1      35.220 -24.898 -15.237  0.00  0.00    -0.184 NA
ATOM     14  N   UNL     1      35.735 -25.537 -14.162  0.00  0.00    -0.206 N 
ATOM     15  C   UNL     1      36.812 -23.070 -14.772  0.00  0.00    +0.051 C 
ATOM     16  C   UNL     1      35.668 -23.717 -15.541  0.00  0.00    +0.076 C 
ATOM     17  C   UNL     1      36.691 -23.469 -13.310  0.00  0.00    +0.093 C 
ATOM     18  C   UNL     1      38.155 -23.497 -15.365  0.00  0.00    +0.007 C 
ATOM     19  C   UNL     1      36.487 -24.952 -13.171  0.00  0.00    +0.241 C 
ATOM     20  H   UNL     1      35.557 -26.502 -14.083  0.00  0.00    +0.177 HD
ENDBRANCH   3  16
BRANCH   9  21
ATOM     21  C   UNL     1      34.801 -19.397 -21.423  0.00  0.00    +0.015 C 
ATOM     22  C   UNL     1      35.120 -18.061 -21.189  0.00  0.00    +0.002 C 
ATOM     23  C   UNL     1      34.625 -19.856 -22.729  0.00  0.00    +0.002 C 
ATOM     24  C   UNL     1      35.266 -17.181 -22.262  0.00  0.00    +0.037 C 
ATOM     25  C   UNL     1      34.771 -18.976 -23.801  0.00  0.00    +0.037 C 
ATOM     26  C   UNL     1      35.091 -17.639 -23.568  0.00  0.00    +0.139 C 
BRANCH  26  27
ATOM     27  O   UNL     1      35.233 -16.781 -24.614  0.00  0.00    -0.471 OA
ATOM     28  C   UNL     1      34.315 -15.691 -24.690  0.00  0.00    +0.252 C 
ENDBRANCH  26  27
ENDBRANCH   9  21
TORSDOF 3
ENDMDL
MODEL 3
REMARK VINA RESULT:     -10.6      2.458      3.223
REMARK  Name = 4823
REMARK  3 active torsions:
REMARK  status: ('A' for Active; 'I' for Inactive)
REMARK    1  A    between atoms: C_3  and  C_16
REMARK    2  A    between atoms: C_9  and  C_21
REMARK    3  A    between atoms: C_26  and  O_27
REMARK                            x       y       z     vdW  Elec       q    Type
REMARK                         _______ _______ _______ _____ _____    ______ ____
ROOT
ATOM      1  N   UNL     1      33.779 -20.156 -20.528  0.00  0.00    -0.315 N 
ATOM      2  N   UNL     1      35.999 -20.232 -20.532  0.00  0.00    -0.315 N 
ATOM      3  C   UNL     1      34.051 -22.413 -17.594  0.00  0.00    +0.016 C 
ATOM      4  C   UNL     1      34.118 -20.971 -19.480  0.00  0.00    +0.059 C 
ATOM      5  C   UNL     1      33.352 -21.663 -18.541  0.00  0.00    +0.017 C 
ATOM      6  C   UNL     1      35.510 -21.002 -19.502  0.00  0.00    +0.059 C 
ATOM      7  C   UNL     1      35.444 -22.467 -17.587  0.00  0.00    +0.003 C 
ATOM      8  C   UNL     1      36.193 -21.764 -18.539  0.00  0.00    +0.016 C 
ATOM      9  C   UNL     1      34.936 -19.740 -21.125  0.00  0.00    +0.168 C 
ATOM     10  H   UNL     1      32.864 -19.914 -20.802  0.00  0.00    +0.149 HD
ATOM     11  H   UNL     1      36.943 -20.082 -20.771  0.00  0.00    +0.149 HD
ENDROOT
BRANCH   3  16
ATOM     12  O   UNL     1      30.949 -24.861 -13.746  0.00  0.00    -0.273 OA
ATOM     13  N   UNL     1      32.102 -23.624 -16.862  0.00  0.00    -0.184 NA
ATOM     14  N   UNL     1      31.383 -24.276 -15.920  0.00  0.00    -0.206 N 
ATOM     15  C   UNL     1      33.913 -23.442 -15.196  0.00  0.00    +0.051 C 
ATOM     16  C   UNL     1      33.283 -23.178 -16.557  0.00  0.00    +0.076 C 
ATOM     17  C   UNL     1      32.814 -23.421 -14.147  0.00  0.00    +0.093 C 
ATOM     18  C   UNL     1      34.656 -24.780 -15.209  0.00  0.00    +0.007 C 
ATOM     19  C   UNL     1      31.647 -24.271 -14.570  0.00  0.00    +0.241 C 
ATOM     20  H   UNL     1      30.607 -24.799 -16.226  0.00  0.00    +0.177 HD
ENDBRANCH   3  16
BRANCH   9  21
ATOM     21  C   UNL     1      34.932 -18.861 -22.270  0.00  0.00    +0.015 C 
ATOM     22  C   UNL     1      34.664 -19.372 -23.539  0.00  0.00    +0.002 C 
ATOM     23  C   UNL     1      35.199 -17.502 -22.107  0.00  0.00    +0.002 C 
ATOM     24  C   UNL     1      34.660 -18.523 -24.646  0.00  0.00    +0.037 C 
ATOM     25  C   UNL     1      35.195 -16.653 -23.213  0.00  0.00    +0.037 C 
ATOM     26  C   UNL     1      34.926 -17.164 -24.483  0.00  0.00    +0.139 C 
BRANCH  26  27
ATOM     27  O   UNL     1      34.922 -16.335 -25.563  0.00  0.00    -0.471 OA
ATOM     28  C   UNL     1      33.885 -15.357 -25.629  0.00  0.00    +0.252 C 
ENDBRANCH  26  27
ENDBRANCH   9  21
TORSDOF 3
ENDMDL
MODEL 4
REMARK VINA RESULT:     -10.4      7.655     14.008
REMARK  Name = 4823
REMARK  3 active torsions:
REMARK  status: ('A' for Active; 'I' for Inactive)
REMARK    1  A    between atoms: C_3  and  C_16
REMARK    2  A    between atoms: C_9  and  C_21
REMARK    3  A    between atoms: C_26  and  O_27
REMARK                            x       y       z     vdW  Elec       q    Type
REMARK                         _______ _______ _______ _____ _____    ______ ____
ROOT
ATOM      1  N   UNL     1      34.077 -12.327 -23.260  0.00  0.00    -0.315 N 
ATOM      2  N   UNL     1      32.531 -13.048 -21.836  0.00  0.00    -0.315 N 
ATOM      3  C   UNL     1      32.529  -8.998 -22.717  0.00  0.00    +0.016 C 
ATOM      4  C   UNL     1      33.355 -11.216 -22.911  0.00  0.00    +0.059 C 
ATOM      5  C   UNL     1      33.454  -9.875 -23.285  0.00  0.00    +0.017 C 
ATOM      6  C   UNL     1      32.396 -11.691 -22.020  0.00  0.00    +0.059 C 
ATOM      7  C   UNL     1      31.556  -9.440 -21.822  0.00  0.00    +0.003 C 
ATOM      8  C   UNL     1      31.475 -10.790 -21.461  0.00  0.00    +0.016 C 
ATOM      9  C   UNL     1      33.547 -13.396 -22.593  0.00  0.00    +0.168 C 
ATOM     10  H   UNL     1      34.840 -12.351 -23.882  0.00  0.00    +0.149 HD
ATOM     11  H   UNL     1      31.985 -13.631 -21.260  0.00  0.00    +0.149 HD
ENDROOT
BRANCH   3  16
ATOM     12  O   UNL     1      32.326  -3.703 -24.248  0.00  0.00    -0.273 OA
ATOM     13  N   UNL     1      31.797  -6.717 -22.459  0.00  0.00    -0.184 NA
ATOM     14  N   UNL     1      31.809  -5.411 -22.809  0.00  0.00    -0.206 N 
ATOM     15  C   UNL     1      33.580  -7.066 -24.129  0.00  0.00    +0.051 C 
ATOM     16  C   UNL     1      32.585  -7.543 -23.079  0.00  0.00    +0.076 C 
ATOM     17  C   UNL     1      32.951  -5.916 -24.897  0.00  0.00    +0.093 C 
ATOM     18  C   UNL     1      34.892  -6.649 -23.462  0.00  0.00    +0.007 C 
ATOM     19  C   UNL     1      32.361  -4.899 -23.960  0.00  0.00    +0.241 C 
ATOM     20  H   UNL     1      31.387  -4.773 -22.189  0.00  0.00    +0.177 HD
ENDBRANCH   3  16
BRANCH   9  21
ATOM     21  C   UNL     1      34.080 -14.729 -22.738  0.00  0.00    +0.015 C 
ATOM     22  C   UNL     1      34.446 -15.460 -21.608  0.00  0.00    +0.002 C 
ATOM     23  C   UNL     1      34.232 -15.285 -24.009  0.00  0.00    +0.002 C 
ATOM     24  C   UNL     1      34.962 -16.749 -21.749  0.00  0.00    +0.037 C 
ATOM     25  C   UNL     1      34.747 -16.573 -24.149  0.00  0.00    +0.037 C 
ATOM     26  C   UNL     1      35.112 -17.305 -23.019  0.00  0.00    +0.139 C 
BRANCH  26  27
ATOM     27  O   UNL     1      35.615 -18.562 -23.155  0.00  0.00    -0.471 OA
ATOM     28  C   UNL     1      34.967 -19.605 -22.427  0.00  0.00    +0.252 C 
ENDBRANCH  26  27
ENDBRANCH   9  21
TORSDOF 3
ENDMDL
MODEL 5
REMARK VINA RESULT:     -10.4      1.436      1.931
REMARK  Name = 4823
REMARK  3 active torsions:
REMARK  status: ('A' for Active; 'I' for Inactive)
REMARK    1  A    between atoms: C_3  and  C_16
REMARK    2  A    between atoms: C_9  and  C_21
REMARK    3  A    between atoms: C_26  and  O_27
REMARK                            x       y       z     vdW  Elec       q    Type
REMARK                         _______ _______ _______ _____ _____    ______ ____
ROOT
ATOM      1  N   UNL     1      36.262 -21.181 -18.509  0.00  0.00    -0.315 N 
ATOM      2  N   UNL     1      34.190 -21.742 -19.085  0.00  0.00    -0.315 N 
ATOM      3  C   UNL     1      35.697 -23.437 -15.615  0.00  0.00    +0.016 C 
ATOM      4  C   UNL     1      35.834 -22.048 -17.537  0.00  0.00    +0.059 C 
ATOM      5  C   UNL     1      36.450 -22.553 -16.392  0.00  0.00    +0.017 C 
ATOM      6  C   UNL     1      34.538 -22.385 -17.919  0.00  0.00    +0.059 C 
ATOM      7  C   UNL     1      34.397 -23.795 -15.968  0.00  0.00    +0.003 C 
ATOM      8  C   UNL     1      33.799 -23.275 -17.123  0.00  0.00    +0.016 C 
ATOM      9  C   UNL     1      35.245 -21.030 -19.410  0.00  0.00    +0.168 C 
ATOM     10  H   UNL     1      37.144 -20.745 -18.549  0.00  0.00    +0.149 HD
ATOM     11  H   UNL     1      33.335 -21.803 -19.570  0.00  0.00    +0.149 HD
ENDROOT
BRANCH   3  16
ATOM     12  O   UNL     1      38.111 -25.146 -10.959  0.00  0.00    -0.273 OA
ATOM     13  N   UNL     1      35.819 -23.661 -13.220  0.00  0.00    -0.184 NA
ATOM     14  N   UNL     1      36.388 -24.143 -12.091  0.00  0.00    -0.206 N 
ATOM     15  C   UNL     1      37.444 -25.019 -14.487  0.00  0.00    +0.051 C 
ATOM     16  C   UNL     1      36.305 -24.015 -14.371  0.00  0.00    +0.076 C 
ATOM     17  C   UNL     1      38.384 -24.814 -13.310  0.00  0.00    +0.093 C 
ATOM     18  C   UNL     1      36.889 -26.445 -14.524  0.00  0.00    +0.007 C 
ATOM     19  C   UNL     1      37.622 -24.745 -12.015  0.00  0.00    +0.241 C 
ATOM     20  H   UNL     1      35.877 -24.054 -11.254  0.00  0.00    +0.177 HD
ENDBRANCH   3  16
BRANCH   9  21
ATOM     21  C   UNL     1      35.370 -20.176 -20.567  0.00  0.00    +0.015 C 
ATOM     22  C   UNL     1      36.521 -19.410 -20.746  0.00  0.00    +0.002 C 
ATOM     23  C   UNL     1      34.339 -20.117 -21.504  0.00  0.00    +0.002 C 
ATOM     24  C   UNL     1      36.642 -18.585 -21.865  0.00  0.00    +0.037 C 
ATOM     25  C   UNL     1      34.459 -19.292 -22.622  0.00  0.00    +0.037 C 
ATOM     26  C   UNL     1      35.612 -18.526 -22.803  0.00  0.00    +0.139 C 
BRANCH  26  27
ATOM     27  O   UNL     1      35.729 -17.722 -23.893  0.00  0.00    -0.471 OA
ATOM     28  C   UNL     1      34.928 -16.541 -23.920  0.00  0.00    +0.252 C 
ENDBRANCH  26  27
ENDBRANCH   9  21
TORSDOF 3
ENDMDL
MODEL 6
REMARK VINA RESULT:      -9.9      7.152     13.138
REMARK  Name = 4823
REMARK  3 active torsions:
REMARK  status: ('A' for Active; 'I' for Inactive)
REMARK    1  A    between atoms: C_3  and  C_16
REMARK    2  A    between atoms: C_9  and  C_21
REMARK    3  A    between atoms: C_26  and  O_27
REMARK                            x       y       z     vdW  Elec       q    Type
REMARK                         _______ _______ _______ _____ _____    ______ ____
ROOT
ATOM      1  N   UNL     1      33.440 -13.432 -21.991  0.00  0.00    -0.315 N 
ATOM      2  N   UNL     1      34.717 -13.396 -23.809  0.00  0.00    -0.315 N 
ATOM      3  C   UNL     1      32.851  -9.848 -22.754  0.00  0.00    +0.016 C 
ATOM      4  C   UNL     1      33.369 -12.147 -22.461  0.00  0.00    +0.059 C 
ATOM      5  C   UNL     1      32.690 -11.016 -22.006  0.00  0.00    +0.017 C 
ATOM      6  C   UNL     1      34.174 -12.150 -23.598  0.00  0.00    +0.059 C 
ATOM      7  C   UNL     1      33.649  -9.815 -23.897  0.00  0.00    +0.003 C 
ATOM      8  C   UNL     1      34.321 -10.963 -24.335  0.00  0.00    +0.016 C 
ATOM      9  C   UNL     1      34.256 -14.139 -22.828  0.00  0.00    +0.168 C 
ATOM     10  H   UNL     1      32.985 -13.783 -21.190  0.00  0.00    +0.149 HD
ATOM     11  H   UNL     1      35.319 -13.671 -24.538  0.00  0.00    +0.149 HD
ENDROOT
BRANCH   3  16
ATOM     12  O   UNL     1      30.420  -5.052 -21.525  0.00  0.00    -0.273 OA
ATOM     13  N   UNL     1      31.090  -8.218 -22.972  0.00  0.00    -0.184 NA
ATOM     14  N   UNL     1      30.474  -7.069 -22.612  0.00  0.00    -0.206 N 
ATOM     15  C   UNL     1      32.657  -7.831 -21.104  0.00  0.00    +0.051 C 
ATOM     16  C   UNL     1      32.146  -8.598 -22.316  0.00  0.00    +0.076 C 
ATOM     17  C   UNL     1      32.419  -6.348 -21.342  0.00  0.00    +0.093 C 
ATOM     18  C   UNL     1      31.955  -8.319 -19.836  0.00  0.00    +0.007 C 
ATOM     19  C   UNL     1      31.011  -6.094 -21.805  0.00  0.00    +0.241 C 
ATOM     20  H   UNL     1      29.564  -6.918 -22.958  0.00  0.00    +0.177 HD
ENDBRANCH   3  16
BRANCH   9  21
ATOM     21  C   UNL     1      34.544 -15.537 -22.615  0.00  0.00    +0.015 C 
ATOM     22  C   UNL     1      34.666 -16.033 -21.318  0.00  0.00    +0.002 C 
ATOM     23  C   UNL     1      34.703 -16.391 -23.707  0.00  0.00    +0.002 C 
ATOM     24  C   UNL     1      34.944 -17.385 -21.112  0.00  0.00    +0.037 C 
ATOM     25  C   UNL     1      34.982 -17.742 -23.501  0.00  0.00    +0.037 C 
ATOM     26  C   UNL     1      35.102 -18.239 -22.203  0.00  0.00    +0.139 C 
BRANCH  26  27
ATOM     27  O   UNL     1      35.373 -19.557 -22.002  0.00  0.00    -0.471 OA
ATOM     28  C   UNL     1      34.935 -20.131 -20.770  0.00  0.00    +0.252 C 
ENDBRANCH  26  27
ENDBRANCH   9  21
TORSDOF 3
ENDMDL
MODEL 7
REMARK VINA RESULT:      -9.9      5.579     11.302
REMARK  Name = 4823
REMARK  3 active torsions:
REMARK  status: ('A' for Active; 'I' for Inactive)
REMARK    1  A    between atoms: C_3  and  C_16
REMARK    2  A    between atoms: C_9  and  C_21
REMARK    3  A    between atoms: C_26  and  O_27
REMARK                            x       y       z     vdW  Elec       q    Type
REMARK                         _______ _______ _______ _____ _____    ______ ____
ROOT
ATOM      1  N   UNL     1      34.328 -15.863 -20.836  0.00  0.00    -0.315 N 
ATOM      2  N   UNL     1      34.859 -16.447 -22.914  0.00  0.00    -0.315 N 
ATOM      3  C   UNL     1      33.243 -12.667 -22.381  0.00  0.00    +0.016 C 
ATOM      4  C   UNL     1      33.998 -14.784 -21.615  0.00  0.00    +0.059 C 
ATOM      5  C   UNL     1      33.448 -13.539 -21.310  0.00  0.00    +0.017 C 
ATOM      6  C   UNL     1      34.338 -15.173 -22.908  0.00  0.00    +0.059 C 
ATOM      7  C   UNL     1      33.573 -13.023 -23.687  0.00  0.00    +0.003 C 
ATOM      8  C   UNL     1      34.124 -14.279 -23.970  0.00  0.00    +0.016 C 
ATOM      9  C   UNL     1      34.838 -16.830 -21.657  0.00  0.00    +0.168 C 
ATOM     10  H   UNL     1      34.218 -15.929 -19.860  0.00  0.00    +0.149 HD
ATOM     11  H   UNL     1      35.177 -16.960 -23.692  0.00  0.00    +0.149 HD
ENDROOT
BRANCH   3  16
ATOM     12  O   UNL     1      31.503  -7.532 -21.365  0.00  0.00    -0.273 OA
ATOM     13  N   UNL     1      32.775 -10.394 -23.027  0.00  0.00    -0.184 NA
ATOM     14  N   UNL     1      32.285  -9.157 -22.780  0.00  0.00    -0.206 N 
ATOM     15  C   UNL     1      31.902 -11.060 -20.817  0.00  0.00    +0.051 C 
ATOM     16  C   UNL     1      32.653 -11.313 -22.117  0.00  0.00    +0.076 C 
ATOM     17  C   UNL     1      32.146  -9.620 -20.396  0.00  0.00    +0.093 C 
ATOM     18  C   UNL     1      30.411 -11.348 -21.004  0.00  0.00    +0.007 C 
ATOM     19  C   UNL     1      31.922  -8.676 -21.544  0.00  0.00    +0.241 C 
ATOM     20  H   UNL     1      32.180  -8.552 -23.549  0.00  0.00    +0.177 HD
ENDBRANCH   3  16
BRANCH   9  21
ATOM     21  C   UNL     1      35.284 -18.105 -21.151  0.00  0.00    +0.015 C 
ATOM     22  C   UNL     1      36.645 -18.342 -20.961  0.00  0.00    +0.002 C 
ATOM     23  C   UNL     1      34.355 -19.102 -20.853  0.00  0.00    +0.002 C 
ATOM     24  C   UNL     1      37.077 -19.575 -20.471  0.00  0.00    +0.037 C 
ATOM     25  C   UNL     1      34.786 -20.334 -20.363  0.00  0.00    +0.037 C 
ATOM     26  C   UNL     1      36.148 -20.570 -20.172  0.00  0.00    +0.139 C 
BRANCH  26  27
ATOM     27  O   UNL     1      36.569 -21.773 -19.695  0.00  0.00    -0.471 OA
ATOM     28  C   UNL     1      36.580 -21.942 -18.278  0.00  0.00    +0.252 C 
ENDBRANCH  26  27
ENDBRANCH   9  21
TORSDOF 3
ENDMDL
MODEL 8
REMARK VINA RESULT:      -9.8      6.718      7.412
REMARK  Name = 4823
REMARK  3 active torsions:
REMARK  status: ('A' for Active; 'I' for Inactive)
REMARK    1  A    between atoms: C_3  and  C_16
REMARK    2  A    between atoms: C_9  and  C_21
REMARK    3  A    between atoms: C_26  and  O_27
REMARK                            x       y       z     vdW  Elec       q    Type
REMARK                         _______ _______ _______ _____ _____    ______ ____
ROOT
ATOM      1  N   UNL     1      32.418 -23.601 -15.401  0.00  0.00    -0.315 N 
ATOM      2  N   UNL     1      31.589 -23.773 -13.347  0.00  0.00    -0.315 N 
ATOM      3  C   UNL     1      35.666 -24.383 -13.782  0.00  0.00    +0.016 C 
ATOM      4  C   UNL     1      33.489 -23.899 -14.599  0.00  0.00    +0.059 C 
ATOM      5  C   UNL     1      34.844 -24.082 -14.871  0.00  0.00    +0.017 C 
ATOM      6  C   UNL     1      32.945 -24.002 -13.321  0.00  0.00    +0.059 C 
ATOM      7  C   UNL     1      35.155 -24.494 -12.490  0.00  0.00    +0.003 C 
ATOM      8  C   UNL     1      33.790 -24.305 -12.240  0.00  0.00    +0.016 C 
ATOM      9  C   UNL     1      31.307 -23.536 -14.608  0.00  0.00    +0.168 C 
ATOM     10  H   UNL     1      32.446 -23.457 -16.375  0.00  0.00    +0.149 HD
ATOM     11  H   UNL     1      30.965 -23.785 -12.585  0.00  0.00    +0.149 HD
ENDROOT
BRANCH   3  16
ATOM     12  O   UNL     1      40.948 -25.431 -14.973  0.00  0.00    -0.273 OA
ATOM     13  N   UNL     1      37.682 -24.056 -15.060  0.00  0.00    -0.184 NA
ATOM     14  N   UNL     1      38.995 -24.276 -15.298  0.00  0.00    -0.206 N 
ATOM     15  C   UNL     1      37.946 -25.392 -13.001  0.00  0.00    +0.051 C 
ATOM     16  C   UNL     1      37.134 -24.593 -14.011  0.00  0.00    +0.076 C 
ATOM     17  C   UNL     1      39.026 -26.154 -13.752  0.00  0.00    +0.093 C 
ATOM     18  C   UNL     1      38.544 -24.458 -11.947  0.00  0.00    +0.007 C 
ATOM     19  C   UNL     1      39.760 -25.252 -14.705  0.00  0.00    +0.241 C 
ATOM     20  H   UNL     1      39.440 -23.688 -15.951  0.00  0.00    +0.177 HD
ENDBRANCH   3  16
BRANCH   9  21
ATOM     21  C   UNL     1      30.000 -23.240 -15.145  0.00  0.00    +0.015 C 
ATOM     22  C   UNL     1      29.143 -22.383 -14.458  0.00  0.00    +0.002 C 
ATOM     23  C   UNL     1      29.596 -23.814 -16.351  0.00  0.00    +0.002 C 
ATOM     24  C   UNL     1      27.879 -22.096 -14.977  0.00  0.00    +0.037 C 
ATOM     25  C   UNL     1      28.333 -23.528 -16.870  0.00  0.00    +0.037 C 
ATOM     26  C   UNL     1      27.475 -22.669 -16.183  0.00  0.00    +0.139 C 
BRANCH  26  27
ATOM     27  O   UNL     1      26.244 -22.389 -16.689  0.00  0.00    -0.471 OA
ATOM     28  C   UNL     1      26.132 -21.245 -17.535  0.00  0.00    +0.252 C 
ENDBRANCH  26  27
ENDBRANCH   9  21
TORSDOF 3
ENDMDL
MODEL 9
REMARK VINA RESULT:      -9.8      2.793      3.670
REMARK  Name = 4823
REMARK  3 active torsions:
REMARK  status: ('A' for Active; 'I' for Inactive)
REMARK    1  A    between atoms: C_3  and  C_16
REMARK    2  A    between atoms: C_9  and  C_21
REMARK    3  A    between atoms: C_26  and  O_27
REMARK                            x       y       z     vdW  Elec       q    Type
REMARK                         _______ _______ _______ _____ _____    ______ ____
ROOT
ATOM      1  N   UNL     1      33.298 -20.474 -19.939  0.00  0.00    -0.315 N 
ATOM      2  N   UNL     1      35.487 -20.846 -19.842  0.00  0.00    -0.315 N 
ATOM      3  C   UNL     1      33.126 -22.800 -17.051  0.00  0.00    +0.016 C 
ATOM      4  C   UNL     1      33.475 -21.346 -18.896  0.00  0.00    +0.059 C 
ATOM      5  C   UNL     1      32.579 -21.946 -18.011  0.00  0.00    +0.017 C 
ATOM      6  C   UNL     1      34.850 -21.562 -18.855  0.00  0.00    +0.059 C 
ATOM      7  C   UNL     1      34.497 -23.039 -16.982  0.00  0.00    +0.003 C 
ATOM      8  C   UNL     1      35.378 -22.426 -17.881  0.00  0.00    +0.016 C 
ATOM      9  C   UNL     1      34.528 -20.205 -20.471  0.00  0.00    +0.168 C 
ATOM     10  H   UNL     1      32.438 -20.107 -20.249  0.00  0.00    +0.149 HD
ATOM     11  H   UNL     1      36.452 -20.818 -20.034  0.00  0.00    +0.149 HD
ENDROOT
BRANCH   3  16
ATOM     12  O   UNL     1      29.962 -25.679 -13.570  0.00  0.00    -0.273 OA
ATOM     13  N   UNL     1      32.725 -23.963 -14.980  0.00  0.00    -0.184 NA
ATOM     14  N   UNL     1      31.918 -24.612 -14.110  0.00  0.00    -0.206 N 
ATOM     15  C   UNL     1      30.719 -23.539 -16.353  0.00  0.00    +0.051 C 
ATOM     16  C   UNL     1      32.213 -23.475 -16.070  0.00  0.00    +0.076 C 
ATOM     17  C   UNL     1      30.183 -24.850 -15.799  0.00  0.00    +0.093 C 
ATOM     18  C   UNL     1      30.011 -22.333 -15.733  0.00  0.00    +0.007 C 
ATOM     19  C   UNL     1      30.651 -25.071 -14.388  0.00  0.00    +0.241 C 
ATOM     20  H   UNL     1      32.266 -24.770 -13.203  0.00  0.00    +0.177 HD
ENDBRANCH   3  16
BRANCH   9  21
ATOM     21  C   UNL     1      34.697 -19.313 -21.594  0.00  0.00    +0.015 C 
ATOM     22  C   UNL     1      34.555 -19.795 -22.894  0.00  0.00    +0.002 C 
ATOM     23  C   UNL     1      35.003 -17.970 -21.377  0.00  0.00    +0.002 C 
ATOM     24  C   UNL     1      34.718 -18.933 -23.979  0.00  0.00    +0.037 C 
ATOM     25  C   UNL     1      35.166 -17.108 -22.461  0.00  0.00    +0.037 C 
ATOM     26  C   UNL     1      35.023 -17.590 -23.762  0.00  0.00    +0.139 C 
BRANCH  26  27
ATOM     27  O   UNL     1      35.182 -16.749 -24.820  0.00  0.00    -0.471 OA
ATOM     28  C   UNL     1      34.345 -15.594 -24.865  0.00  0.00    +0.252 C 
ENDBRANCH  26  27
ENDBRANCH   9  21
TORSDOF 3
ENDMDL
