MODEL 1
REMARK VINA RESULT:     -11.6      0.000      0.000
REMARK  Name = 11524144
REMARK  6 active torsions:
REMARK  status: ('A' for Active; 'I' for Inactive)
REMARK    1  A    between atoms: C_1  and  O_22
REMARK    2  A    between atoms: C_2  and  C_10
REMARK    3  A    between atoms: C_12  and  C_17
REMARK    4  A    between atoms: O_22  and  C_23
REMARK    5  A    between atoms: C_23  and  C_24
REMARK    6  A    between atoms: C_24  and  N_25
REMARK                            x       y       z     vdW  Elec       q    Type
REMARK                         _______ _______ _______ _____ _____    ______ ____
ROOT
ATOM      1  C   UNL     1      31.955  -9.888 -22.145  0.00  0.00    +0.138 C 
ATOM      2  C   UNL     1      33.029 -12.449 -22.266  0.00  0.00    -0.001 C 
ATOM      3  C   UNL     1      31.478 -10.875 -21.291  0.00  0.00    +0.037 C 
ATOM      4  C   UNL     1      32.965 -10.168 -23.058  0.00  0.00    +0.037 C 
ATOM      5  C   UNL     1      32.016 -12.161 -21.352  0.00  0.00    +0.003 C 
ATOM      6  C   UNL     1      33.504 -11.454 -23.119  0.00  0.00    +0.003 C 
ENDROOT
BRANCH   2  10
ATOM      7  N   UNL     1      34.363 -15.750 -23.466  0.00  0.00    -0.193 N 
ATOM      8  N   UNL     1      34.427 -15.803 -21.065  0.00  0.00    -0.231 NA
ATOM      9  N   UNL     1      34.659 -16.533 -24.538  0.00  0.00    -0.179 NA
ATOM     10  C   UNL     1      33.596 -13.805 -22.331  0.00  0.00    +0.019 C 
ATOM     11  C   UNL     1      34.647 -16.401 -22.268  0.00  0.00    +0.137 C 
ATOM     12  C   UNL     1      35.141 -17.641 -22.606  0.00  0.00    +0.121 C 
ATOM     13  C   UNL     1      33.840 -14.459 -23.477  0.00  0.00    +0.145 C 
ATOM     14  C   UNL     1      33.939 -14.599 -21.108  0.00  0.00    +0.097 C 
ATOM     15  C   UNL     1      35.125 -17.663 -24.006  0.00  0.00    +0.103 C 
BRANCH  12  17
ATOM     16  N   UNL     1      36.368 -20.571 -19.811  0.00  0.00    -0.242 NA
ATOM     17  C   UNL     1      35.557 -18.632 -21.661  0.00  0.00    -0.007 C 
ATOM     18  C   UNL     1      34.652 -19.586 -21.201  0.00  0.00    +0.017 C 
ATOM     19  C   UNL     1      36.868 -18.651 -21.193  0.00  0.00    +0.017 C 
ATOM     20  C   UNL     1      35.104 -20.524 -20.286  0.00  0.00    +0.099 C 
ATOM     21  C   UNL     1      37.220 -19.632 -20.279  0.00  0.00    +0.099 C 
ENDBRANCH  12  17
ENDBRANCH   2  10
BRANCH   1  22
ATOM     22  O   UNL     1      31.426  -8.625 -22.085  0.00  0.00    -0.478 OA
BRANCH  22  23
ATOM     23  C   UNL     1      31.926  -7.768 -21.067  0.00  0.00    +0.183 C 
BRANCH  23  24
ATOM     24  C   UNL     1      32.222  -6.406 -21.676  0.00  0.00    -0.029 C 
BRANCH  24  25
ATOM     25  N   UNL     1      32.904  -6.553 -22.961  0.00  0.00    +0.389 N 
ATOM     26  C   UNL     1      32.718  -5.349 -23.783  0.00  0.00    -0.077 C 
ATOM     27  C   UNL     1      34.331  -6.840 -22.754  0.00  0.00    -0.077 C 
ATOM     28  C   UNL     1      33.386  -5.505 -25.150  0.00  0.00    -0.023 C 
ATOM     29  C   UNL     1      35.051  -7.045 -24.088  0.00  0.00    -0.023 C 
ATOM     30  C   UNL     1      34.866  -5.845 -25.009  0.00  0.00    -0.004 C 
ATOM     31  H   UNL     1      32.494  -7.341 -23.461  0.00  0.00    -0.080 HD
ENDBRANCH  24  25
ENDBRANCH  23  24
ENDBRANCH  22  23
ENDBRANCH   1  22
TORSDOF 6
ENDMDL
MODEL 2
REMARK VINA RESULT:     -11.6      0.045      1.232
REMARK  Name = 11524144
REMARK  6 active torsions:
REMARK  status: ('A' for Active; 'I' for Inactive)
REMARK    1  A    between atoms: C_1  and  O_22
REMARK    2  A    between atoms: C_2  and  C_10
REMARK    3  A    between atoms: C_12  and  C_17
REMARK    4  A    between atoms: O_22  and  C_23
REMARK    5  A    between atoms: C_23  and  C_24
REMARK    6  A    between atoms: C_24  and  N_25
REMARK                            x       y       z     vdW  Elec       q    Type
REMARK                         _______ _______ _______ _____ _____    ______ ____
ROOT
ATOM      1  C   UNL     1      31.937  -9.898 -22.120  0.00  0.00    +0.138 C 
ATOM      2  C   UNL     1      33.014 -12.458 -22.250  0.00  0.00    -0.001 C 
ATOM      3  C   UNL     1      32.922 -10.183 -23.057  0.00  0.00    +0.037 C 
ATOM      4  C   UNL     1      31.483 -10.881 -21.246  0.00  0.00    +0.037 C 
ATOM      5  C   UNL     1      33.463 -11.467 -23.122  0.00  0.00    +0.003 C 
ATOM      6  C   UNL     1      32.025 -12.165 -21.312  0.00  0.00    +0.003 C 
ENDROOT
BRANCH   2  10
ATOM      7  N   UNL     1      34.365 -15.749 -23.459  0.00  0.00    -0.193 N 
ATOM      8  N   UNL     1      34.410 -15.815 -21.058  0.00  0.00    -0.231 NA
ATOM      9  N   UNL     1      34.671 -16.524 -24.532  0.00  0.00    -0.179 NA
ATOM     10  C   UNL     1      33.585 -13.811 -22.318  0.00  0.00    +0.019 C 
ATOM     11  C   UNL     1      34.641 -16.406 -22.262  0.00  0.00    +0.137 C 
ATOM     12  C   UNL     1      35.141 -17.642 -22.603  0.00  0.00    +0.121 C 
ATOM     13  C   UNL     1      33.839 -14.459 -23.466  0.00  0.00    +0.145 C 
ATOM     14  C   UNL     1      33.920 -14.612 -21.097  0.00  0.00    +0.097 C 
ATOM     15  C   UNL     1      35.136 -17.656 -24.004  0.00  0.00    +0.103 C 
BRANCH  12  17
ATOM     16  N   UNL     1      36.357 -20.587 -19.819  0.00  0.00    -0.242 NA
ATOM     17  C   UNL     1      35.552 -18.638 -21.661  0.00  0.00    -0.007 C 
ATOM     18  C   UNL     1      36.867 -18.671 -21.202  0.00  0.00    +0.017 C 
ATOM     19  C   UNL     1      34.642 -19.583 -21.196  0.00  0.00    +0.017 C 
ATOM     20  C   UNL     1      37.215 -19.655 -20.291  0.00  0.00    +0.099 C 
ATOM     21  C   UNL     1      35.090 -20.527 -20.285  0.00  0.00    +0.099 C 
ENDBRANCH  12  17
ENDBRANCH   2  10
BRANCH   1  22
ATOM     22  O   UNL     1      31.405  -8.637 -22.056  0.00  0.00    -0.478 OA
BRANCH  22  23
ATOM     23  C   UNL     1      31.975  -7.748 -21.104  0.00  0.00    +0.183 C 
BRANCH  23  24
ATOM     24  C   UNL     1      32.178  -6.392 -21.763  0.00  0.00    -0.029 C 
BRANCH  24  25
ATOM     25  N   UNL     1      32.874  -6.538 -23.041  0.00  0.00    +0.389 N 
ATOM     26  C   UNL     1      32.715  -5.325 -23.854  0.00  0.00    -0.077 C 
ATOM     27  C   UNL     1      34.293  -6.848 -22.820  0.00  0.00    -0.077 C 
ATOM     28  C   UNL     1      33.396  -5.479 -25.215  0.00  0.00    -0.023 C 
ATOM     29  C   UNL     1      35.026  -7.052 -24.146  0.00  0.00    -0.023 C 
ATOM     30  C   UNL     1      34.869  -5.842 -25.059  0.00  0.00    -0.004 C 
ATOM     31  H   UNL     1      32.458  -7.316 -23.552  0.00  0.00    -0.080 HD
ENDBRANCH  24  25
ENDBRANCH  23  24
ENDBRANCH  22  23
ENDBRANCH   1  22
TORSDOF 6
ENDMDL
MODEL 3
REMARK VINA RESULT:     -11.3      5.691     10.270
REMARK  Name = 11524144
REMARK  6 active torsions:
REMARK  status: ('A' for Active; 'I' for Inactive)
REMARK    1  A    between atoms: C_1  and  O_22
REMARK    2  A    between atoms: C_2  and  C_10
REMARK    3  A    between atoms: C_12  and  C_17
REMARK    4  A    between atoms: O_22  and  C_23
REMARK    5  A    between atoms: C_23  and  C_24
REMARK    6  A    between atoms: C_24  and  N_25
REMARK                            x       y       z     vdW  Elec       q    Type
REMARK                         _______ _______ _______ _____ _____    ______ ____
ROOT
ATOM      1  C   UNL     1      34.695 -20.090 -21.268  0.00  0.00    +0.138 C 
ATOM      2  C   UNL     1      34.748 -21.484 -18.863  0.00  0.00    -0.001 C 
ATOM      3  C   UNL     1      35.915 -20.464 -20.716  0.00  0.00    +0.037 C 
ATOM      4  C   UNL     1      33.501 -20.406 -20.629  0.00  0.00    +0.037 C 
ATOM      5  C   UNL     1      35.942 -21.163 -19.510  0.00  0.00    +0.003 C 
ATOM      6  C   UNL     1      33.529 -21.105 -19.422  0.00  0.00    +0.003 C 
ENDROOT
BRANCH   2  10
ATOM      7  N   UNL     1      33.799 -23.492 -15.833  0.00  0.00    -0.193 N 
ATOM      8  N   UNL     1      36.132 -22.963 -15.617  0.00  0.00    -0.231 NA
ATOM      9  N   UNL     1      32.808 -24.144 -15.169  0.00  0.00    -0.179 NA
ATOM     10  C   UNL     1      34.777 -22.220 -17.591  0.00  0.00    +0.019 C 
ATOM     11  C   UNL     1      35.003 -23.550 -15.135  0.00  0.00    +0.137 C 
ATOM     12  C   UNL     1      34.754 -24.270 -13.989  0.00  0.00    +0.121 C 
ATOM     13  C   UNL     1      33.706 -22.825 -17.052  0.00  0.00    +0.145 C 
ATOM     14  C   UNL     1      36.014 -22.349 -16.756  0.00  0.00    +0.097 C 
ATOM     15  C   UNL     1      33.396 -24.606 -14.064  0.00  0.00    +0.103 C 
BRANCH  12  17
ATOM     16  N   UNL     1      37.650 -25.133 -11.027  0.00  0.00    -0.242 NA
ATOM     17  C   UNL     1      35.733 -24.563 -12.987  0.00  0.00    -0.007 C 
ATOM     18  C   UNL     1      35.731 -23.870 -11.779  0.00  0.00    +0.017 C 
ATOM     19  C   UNL     1      36.697 -25.542 -13.212  0.00  0.00    +0.017 C 
ATOM     20  C   UNL     1      36.700 -24.190 -10.842  0.00  0.00    +0.099 C 
ATOM     21  C   UNL     1      37.624 -25.787 -12.210  0.00  0.00    +0.099 C 
ENDBRANCH  12  17
ENDBRANCH   2  10
BRANCH   1  22
ATOM     22  O   UNL     1      34.668 -19.403 -22.453  0.00  0.00    -0.478 OA
BRANCH  22  23
ATOM     23  C   UNL     1      35.577 -18.318 -22.587  0.00  0.00    +0.183 C 
BRANCH  23  24
ATOM     24  C   UNL     1      35.044 -17.361 -23.641  0.00  0.00    -0.029 C 
BRANCH  24  25
ATOM     25  N   UNL     1      34.942 -16.005 -23.102  0.00  0.00    +0.389 N 
ATOM     26  C   UNL     1      33.972 -15.216 -23.875  0.00  0.00    -0.077 C 
ATOM     27  C   UNL     1      34.580 -16.044 -21.679  0.00  0.00    -0.077 C 
ATOM     28  C   UNL     1      33.888 -13.780 -23.355  0.00  0.00    -0.023 C 
ATOM     29  C   UNL     1      34.517 -14.636 -21.086  0.00  0.00    -0.023 C 
ATOM     30  C   UNL     1      33.555 -13.748 -21.867  0.00  0.00    -0.004 C 
ATOM     31  H   UNL     1      35.851 -15.551 -23.183  0.00  0.00    -0.080 HD
ENDBRANCH  24  25
ENDBRANCH  23  24
ENDBRANCH  22  23
ENDBRANCH   1  22
TORSDOF 6
ENDMDL
MODEL 4
REMARK VINA RESULT:     -11.2      4.925      9.424
REMARK  Name = 11524144
REMARK  6 active torsions:
REMARK  status: ('A' for Active; 'I' for Inactive)
REMARK    1  A    between atoms: C_1  and  O_22
REMARK    2  A    between atoms: C_2  and  C_10
REMARK    3  A    between atoms: C_12  and  C_17
REMARK    4  A    between atoms: O_22  and  C_23
REMARK    5  A    between atoms: C_23  and  C_24
REMARK    6  A    between atoms: C_24  and  N_25
REMARK                            x       y       z     vdW  Elec       q    Type
REMARK                         _______ _______ _______ _____ _____    ______ ____
ROOT
ATOM      1  C   UNL     1      35.951 -18.945 -22.094  0.00  0.00    +0.138 C 
ATOM      2  C   UNL     1      35.963 -20.510 -19.796  0.00  0.00    -0.001 C 
ATOM      3  C   UNL     1      37.089 -18.989 -21.298  0.00  0.00    +0.037 C 
ATOM      4  C   UNL     1      34.819 -19.677 -21.753  0.00  0.00    +0.037 C 
ATOM      5  C   UNL     1      37.096 -19.774 -20.145  0.00  0.00    +0.003 C 
ATOM      6  C   UNL     1      34.825 -20.461 -20.600  0.00  0.00    +0.003 C 
ENDROOT
BRANCH   2  10
ATOM      7  N   UNL     1      34.993 -22.824 -16.999  0.00  0.00    -0.193 N 
ATOM      8  N   UNL     1      37.242 -22.103 -16.561  0.00  0.00    -0.231 NA
ATOM      9  N   UNL     1      34.024 -23.612 -16.464  0.00  0.00    -0.179 NA
ATOM     10  C   UNL     1      35.970 -21.337 -18.580  0.00  0.00    +0.019 C 
ATOM     11  C   UNL     1      36.143 -22.826 -16.213  0.00  0.00    +0.137 C 
ATOM     12  C   UNL     1      35.881 -23.652 -15.143  0.00  0.00    +0.121 C 
ATOM     13  C   UNL     1      34.925 -22.076 -18.173  0.00  0.00    +0.145 C 
ATOM     14  C   UNL     1      37.149 -21.416 -17.661  0.00  0.00    +0.097 C 
ATOM     15  C   UNL     1      34.571 -24.102 -15.351  0.00  0.00    +0.103 C 
BRANCH  12  17
ATOM     16  N   UNL     1      38.622 -24.480 -12.028  0.00  0.00    -0.242 NA
ATOM     17  C   UNL     1      36.808 -23.931 -14.090  0.00  0.00    -0.007 C 
ATOM     18  C   UNL     1      37.826 -24.864 -14.278  0.00  0.00    +0.017 C 
ATOM     19  C   UNL     1      36.701 -23.274 -12.867  0.00  0.00    +0.017 C 
ATOM     20  C   UNL     1      38.697 -25.099 -13.227  0.00  0.00    +0.099 C 
ATOM     21  C   UNL     1      37.624 -23.580 -11.879  0.00  0.00    +0.099 C 
ENDBRANCH  12  17
ENDBRANCH   2  10
BRANCH   1  22
ATOM     22  O   UNL     1      35.945 -18.174 -23.227  0.00  0.00    -0.478 OA
BRANCH  22  23
ATOM     23  C   UNL     1      34.815 -17.335 -23.426  0.00  0.00    +0.183 C 
BRANCH  23  24
ATOM     24  C   UNL     1      35.134 -15.950 -22.883  0.00  0.00    -0.029 C 
BRANCH  24  25
ATOM     25  N   UNL     1      33.951 -15.352 -22.266  0.00  0.00    +0.389 N 
ATOM     26  C   UNL     1      34.032 -15.444 -20.802  0.00  0.00    -0.077 C 
ATOM     27  C   UNL     1      33.793 -13.958 -22.703  0.00  0.00    -0.077 C 
ATOM     28  C   UNL     1      32.779 -14.867 -20.142  0.00  0.00    -0.023 C 
ATOM     29  C   UNL     1      32.532 -13.332 -22.106  0.00  0.00    -0.023 C 
ATOM     30  C   UNL     1      32.531 -13.428 -20.585  0.00  0.00    -0.004 C 
ATOM     31  H   UNL     1      33.127 -15.872 -22.569  0.00  0.00    -0.080 HD
ENDBRANCH  24  25
ENDBRANCH  23  24
ENDBRANCH  22  23
ENDBRANCH   1  22
TORSDOF 6
ENDMDL
MODEL 5
REMARK VINA RESULT:     -11.0      2.776     10.948
REMARK  Name = 11524144
REMARK  6 active torsions:
REMARK  status: ('A' for Active; 'I' for Inactive)
REMARK    1  A    between atoms: C_1  and  O_22
REMARK    2  A    between atoms: C_2  and  C_10
REMARK    3  A    between atoms: C_12  and  C_17
REMARK    4  A    between atoms: O_22  and  C_23
REMARK    5  A    between atoms: C_23  and  C_24
REMARK    6  A    between atoms: C_24  and  N_25
REMARK                            x       y       z     vdW  Elec       q    Type
REMARK                         _______ _______ _______ _____ _____    ______ ____
ROOT
ATOM      1  C   UNL     1      34.994 -17.159 -23.354  0.00  0.00    +0.138 C 
ATOM      2  C   UNL     1      34.119 -14.539 -23.042  0.00  0.00    -0.001 C 
ATOM      3  C   UNL     1      34.566 -16.440 -24.464  0.00  0.00    +0.037 C 
ATOM      4  C   UNL     1      34.989 -16.582 -22.090  0.00  0.00    +0.037 C 
ATOM      5  C   UNL     1      34.127 -15.125 -24.307  0.00  0.00    +0.003 C 
ATOM      6  C   UNL     1      34.549 -15.267 -21.933  0.00  0.00    +0.003 C 
ENDROOT
BRANCH   2  10
ATOM      7  N   UNL     1      32.297 -11.453 -21.913  0.00  0.00    -0.193 N 
ATOM      8  N   UNL     1      33.837 -10.768 -23.625  0.00  0.00    -0.231 NA
ATOM      9  N   UNL     1      31.352 -10.932 -21.087  0.00  0.00    -0.179 NA
ATOM     10  C   UNL     1      33.655 -13.154 -22.876  0.00  0.00    +0.019 C 
ATOM     11  C   UNL     1      32.866 -10.470 -22.720  0.00  0.00    +0.137 C 
ATOM     12  C   UNL     1      32.250  -9.286 -22.382  0.00  0.00    +0.121 C 
ATOM     13  C   UNL     1      32.702 -12.783 -22.006  0.00  0.00    +0.145 C 
ATOM     14  C   UNL     1      34.194 -12.016 -23.688  0.00  0.00    +0.097 C 
ATOM     15  C   UNL     1      31.335  -9.631 -21.379  0.00  0.00    +0.103 C 
BRANCH  12  17
ATOM     16  N   UNL     1      33.119  -5.544 -24.156  0.00  0.00    -0.242 NA
ATOM     17  C   UNL     1      32.545  -8.020 -22.981  0.00  0.00    -0.007 C 
ATOM     18  C   UNL     1      31.512  -7.179 -23.388  0.00  0.00    +0.017 C 
ATOM     19  C   UNL     1      33.865  -7.619 -23.163  0.00  0.00    +0.017 C 
ATOM     20  C   UNL     1      31.849  -5.964 -23.964  0.00  0.00    +0.099 C 
ATOM     21  C   UNL     1      34.097  -6.384 -23.749  0.00  0.00    +0.099 C 
ENDBRANCH  12  17
ENDBRANCH   2  10
BRANCH   1  22
ATOM     22  O   UNL     1      35.426 -18.451 -23.508  0.00  0.00    -0.478 OA
BRANCH  22  23
ATOM     23  C   UNL     1      34.926 -19.409 -22.585  0.00  0.00    +0.183 C 
BRANCH  23  24
ATOM     24  C   UNL     1      35.845 -19.447 -21.374  0.00  0.00    -0.029 C 
BRANCH  24  25
ATOM     25  N   UNL     1      35.191 -20.117 -20.251  0.00  0.00    +0.389 N 
ATOM     26  C   UNL     1      33.793 -20.426 -20.580  0.00  0.00    -0.077 C 
ATOM     27  C   UNL     1      35.930 -21.330 -19.876  0.00  0.00    -0.077 C 
ATOM     28  C   UNL     1      33.080 -21.084 -19.398  0.00  0.00    -0.023 C 
ATOM     29  C   UNL     1      35.287 -22.017 -18.670  0.00  0.00    -0.023 C 
ATOM     30  C   UNL     1      33.819 -22.333 -18.929  0.00  0.00    -0.004 C 
ATOM     31  H   UNL     1      35.193 -19.487 -19.449  0.00  0.00    -0.080 HD
ENDBRANCH  24  25
ENDBRANCH  23  24
ENDBRANCH  22  23
ENDBRANCH   1  22
TORSDOF 6
ENDMDL
MODEL 6
REMARK VINA RESULT:     -11.0      4.748      9.220
REMARK  Name = 11524144
REMARK  6 active torsions:
REMARK  status: ('A' for Active; 'I' for Inactive)
REMARK    1  A    between atoms: C_1  and  O_22
REMARK    2  A    between atoms: C_2  and  C_10
REMARK    3  A    between atoms: C_12  and  C_17
REMARK    4  A    between atoms: O_22  and  C_23
REMARK    5  A    between atoms: C_23  and  C_24
REMARK    6  A    between atoms: C_24  and  N_25
REMARK                            x       y       z     vdW  Elec       q    Type
REMARK                         _______ _______ _______ _____ _____    ______ ____
ROOT
ATOM      1  C   UNL     1      35.842 -18.844 -22.338  0.00  0.00    +0.138 C 
ATOM      2  C   UNL     1      35.727 -20.459 -20.078  0.00  0.00    -0.001 C 
ATOM      3  C   UNL     1      34.666 -19.520 -22.035  0.00  0.00    +0.037 C 
ATOM      4  C   UNL     1      36.961 -18.967 -21.522  0.00  0.00    +0.037 C 
ATOM      5  C   UNL     1      34.608 -20.330 -20.901  0.00  0.00    +0.003 C 
ATOM      6  C   UNL     1      36.903 -19.777 -20.388  0.00  0.00    +0.003 C 
ENDROOT
BRANCH   2  10
ATOM      7  N   UNL     1      34.563 -22.730 -17.320  0.00  0.00    -0.193 N 
ATOM      8  N   UNL     1      36.884 -22.266 -16.910  0.00  0.00    -0.231 NA
ATOM      9  N   UNL     1      33.524 -23.424 -16.785  0.00  0.00    -0.179 NA
ATOM     10  C   UNL     1      35.666 -21.314 -18.883  0.00  0.00    +0.019 C 
ATOM     11  C   UNL     1      35.720 -22.876 -16.558  0.00  0.00    +0.137 C 
ATOM     12  C   UNL     1      35.390 -23.698 -15.504  0.00  0.00    +0.121 C 
ATOM     13  C   UNL     1      34.555 -21.948 -18.473  0.00  0.00    +0.145 C 
ATOM     14  C   UNL     1      36.845 -21.544 -17.990  0.00  0.00    +0.097 C 
ATOM     15  C   UNL     1      34.035 -24.000 -15.696  0.00  0.00    +0.103 C 
BRANCH  12  17
ATOM     16  N   UNL     1      38.083 -24.893 -12.467  0.00  0.00    -0.242 NA
ATOM     17  C   UNL     1      36.300 -24.103 -14.477  0.00  0.00    -0.007 C 
ATOM     18  C   UNL     1      36.577 -23.252 -13.409  0.00  0.00    +0.017 C 
ATOM     19  C   UNL     1      36.917 -25.349 -14.536  0.00  0.00    +0.017 C 
ATOM     20  C   UNL     1      37.466 -23.690 -12.441  0.00  0.00    +0.099 C 
ATOM     21  C   UNL     1      37.791 -25.693 -13.516  0.00  0.00    +0.099 C 
ENDBRANCH  12  17
ENDBRANCH   2  10
BRANCH   1  22
ATOM     22  O   UNL     1      35.899 -18.047 -23.452  0.00  0.00    -0.478 OA
BRANCH  22  23
ATOM     23  C   UNL     1      34.823 -17.140 -23.647  0.00  0.00    +0.183 C 
BRANCH  23  24
ATOM     24  C   UNL     1      35.371 -15.721 -23.634  0.00  0.00    -0.029 C 
BRANCH  24  25
ATOM     25  N   UNL     1      34.706 -14.921 -22.606  0.00  0.00    +0.389 N 
ATOM     26  C   UNL     1      33.431 -14.392 -23.112  0.00  0.00    -0.077 C 
ATOM     27  C   UNL     1      34.505 -15.715 -21.387  0.00  0.00    -0.077 C 
ATOM     28  C   UNL     1      32.745 -13.512 -22.066  0.00  0.00    -0.023 C 
ATOM     29  C   UNL     1      33.854 -14.878 -20.284  0.00  0.00    -0.023 C 
ATOM     30  C   UNL     1      32.541 -14.264 -20.755  0.00  0.00    -0.004 C 
ATOM     31  H   UNL     1      35.303 -14.129 -22.371  0.00  0.00    -0.080 HD
ENDBRANCH  24  25
ENDBRANCH  23  24
ENDBRANCH  22  23
ENDBRANCH   1  22
TORSDOF 6
ENDMDL
MODEL 7
REMARK VINA RESULT:     -10.2      2.531     11.206
REMARK  Name = 11524144
REMARK  6 active torsions:
REMARK  status: ('A' for Active; 'I' for Inactive)
REMARK    1  A    between atoms: C_1  and  O_22
REMARK    2  A    between atoms: C_2  and  C_10
REMARK    3  A    between atoms: C_12  and  C_17
REMARK    4  A    between atoms: O_22  and  C_23
REMARK    5  A    between atoms: C_23  and  C_24
REMARK    6  A    between atoms: C_24  and  N_25
REMARK                            x       y       z     vdW  Elec       q    Type
REMARK                         _______ _______ _______ _____ _____    ______ ____
ROOT
ATOM      1  C   UNL     1      34.344 -15.466 -23.059  0.00  0.00    +0.138 C 
ATOM      2  C   UNL     1      33.954 -12.714 -23.120  0.00  0.00    -0.001 C 
ATOM      3  C   UNL     1      34.004 -14.845 -24.255  0.00  0.00    +0.037 C 
ATOM      4  C   UNL     1      34.492 -14.724 -21.893  0.00  0.00    +0.037 C 
ATOM      5  C   UNL     1      33.808 -13.465 -24.286  0.00  0.00    +0.003 C 
ATOM      6  C   UNL     1      34.295 -13.343 -21.923  0.00  0.00    +0.003 C 
ENDROOT
BRANCH   2  10
ATOM      7  N   UNL     1      34.384  -9.017 -23.633  0.00  0.00    -0.193 N 
ATOM      8  N   UNL     1      32.250  -9.332 -22.576  0.00  0.00    -0.231 NA
ATOM      9  N   UNL     1      35.186  -8.021 -24.095  0.00  0.00    -0.179 NA
ATOM     10  C   UNL     1      33.746 -11.259 -23.152  0.00  0.00    +0.019 C 
ATOM     11  C   UNL     1      33.201  -8.511 -23.098  0.00  0.00    +0.137 C 
ATOM     12  C   UNL     1      33.267  -7.142 -23.234  0.00  0.00    +0.121 C 
ATOM     13  C   UNL     1      34.638 -10.387 -23.649  0.00  0.00    +0.145 C 
ATOM     14  C   UNL     1      32.515 -10.604 -22.606  0.00  0.00    +0.097 C 
ATOM     15  C   UNL     1      34.503  -6.903 -23.850  0.00  0.00    +0.103 C 
BRANCH  12  17
ATOM     16  N   UNL     1      30.248  -4.459 -21.973  0.00  0.00    -0.242 NA
ATOM     17  C   UNL     1      32.246  -6.236 -22.808  0.00  0.00    -0.007 C 
ATOM     18  C   UNL     1      31.848  -5.187 -23.634  0.00  0.00    +0.017 C 
ATOM     19  C   UNL     1      31.642  -6.393 -21.563  0.00  0.00    +0.017 C 
ATOM     20  C   UNL     1      30.855  -4.336 -23.175  0.00  0.00    +0.099 C 
ATOM     21  C   UNL     1      30.658  -5.487 -21.197  0.00  0.00    +0.099 C 
ENDBRANCH  12  17
ENDBRANCH   2  10
BRANCH   1  22
ATOM     22  O   UNL     1      34.537 -16.822 -23.029  0.00  0.00    -0.478 OA
BRANCH  22  23
ATOM     23  C   UNL     1      34.959 -17.383 -21.793  0.00  0.00    +0.183 C 
BRANCH  23  24
ATOM     24  C   UNL     1      35.193 -18.873 -21.987  0.00  0.00    -0.029 C 
BRANCH  24  25
ATOM     25  N   UNL     1      34.940 -19.601 -20.744  0.00  0.00    +0.389 N 
ATOM     26  C   UNL     1      33.621 -20.247 -20.785  0.00  0.00    -0.077 C 
ATOM     27  C   UNL     1      36.005 -20.583 -20.499  0.00  0.00    -0.077 C 
ATOM     28  C   UNL     1      33.320 -20.972 -19.472  0.00  0.00    -0.023 C 
ATOM     29  C   UNL     1      35.783 -21.320 -19.177  0.00  0.00    -0.023 C 
ATOM     30  C   UNL     1      34.411 -21.983 -19.135  0.00  0.00    -0.004 C 
ATOM     31  H   UNL     1      34.941 -18.937 -19.970  0.00  0.00    -0.080 HD
ENDBRANCH  24  25
ENDBRANCH  23  24
ENDBRANCH  22  23
ENDBRANCH   1  22
TORSDOF 6
ENDMDL
MODEL 8
REMARK VINA RESULT:     -10.2      3.458     11.423
REMARK  Name = 11524144
REMARK  6 active torsions:
REMARK  status: ('A' for Active; 'I' for Inactive)
REMARK    1  A    between atoms: C_1  and  O_22
REMARK    2  A    between atoms: C_2  and  C_10
REMARK    3  A    between atoms: C_12  and  C_17
REMARK    4  A    between atoms: O_22  and  C_23
REMARK    5  A    between atoms: C_23  and  C_24
REMARK    6  A    between atoms: C_24  and  N_25
REMARK                            x       y       z     vdW  Elec       q    Type
REMARK                         _______ _______ _______ _____ _____    ______ ____
ROOT
ATOM      1  C   UNL     1      35.308 -19.572 -21.536  0.00  0.00    +0.138 C 
ATOM      2  C   UNL     1      34.838 -17.002 -22.486  0.00  0.00    -0.001 C 
ATOM      3  C   UNL     1      35.169 -19.358 -22.902  0.00  0.00    +0.037 C 
ATOM      4  C   UNL     1      35.215 -18.513 -20.640  0.00  0.00    +0.037 C 
ATOM      5  C   UNL     1      34.933 -18.069 -23.379  0.00  0.00    +0.003 C 
ATOM      6  C   UNL     1      34.979 -17.224 -21.117  0.00  0.00    +0.003 C 
ENDROOT
BRANCH   2  10
ATOM      7  N   UNL     1      33.993 -14.056 -24.660  0.00  0.00    -0.193 N 
ATOM      8  N   UNL     1      34.591 -13.184 -22.503  0.00  0.00    -0.231 NA
ATOM      9  N   UNL     1      33.600 -13.629 -25.889  0.00  0.00    -0.179 NA
ATOM     10  C   UNL     1      34.588 -15.643 -22.989  0.00  0.00    +0.019 C 
ATOM     11  C   UNL     1      34.193 -12.987 -23.789  0.00  0.00    +0.137 C 
ATOM     12  C   UNL     1      33.912 -11.845 -24.505  0.00  0.00    +0.121 C 
ATOM     13  C   UNL     1      34.195 -15.370 -24.244  0.00  0.00    +0.145 C 
ATOM     14  C   UNL     1      34.771 -14.420 -22.144  0.00  0.00    +0.097 C 
ATOM     15  C   UNL     1      33.556 -12.301 -25.781  0.00  0.00    +0.103 C 
BRANCH  12  17
ATOM     16  N   UNL     1      34.162  -7.920 -22.944  0.00  0.00    -0.242 NA
ATOM     17  C   UNL     1      33.996 -10.517 -23.977  0.00  0.00    -0.007 C 
ATOM     18  C   UNL     1      35.101  -9.718 -24.259  0.00  0.00    +0.017 C 
ATOM     19  C   UNL     1      32.974 -10.014 -23.177  0.00  0.00    +0.017 C 
ATOM     20  C   UNL     1      35.135  -8.441 -23.724  0.00  0.00    +0.099 C 
ATOM     21  C   UNL     1      33.104  -8.722 -22.691  0.00  0.00    +0.099 C 
ENDBRANCH  12  17
ENDBRANCH   2  10
BRANCH   1  22
ATOM     22  O   UNL     1      35.541 -20.839 -21.067  0.00  0.00    -0.478 OA
BRANCH  22  23
ATOM     23  C   UNL     1      34.886 -21.206 -19.860  0.00  0.00    +0.183 C 
BRANCH  23  24
ATOM     24  C   UNL     1      35.920 -21.758 -18.892  0.00  0.00    -0.029 C 
BRANCH  24  25
ATOM     25  N   UNL     1      35.292 -22.653 -17.921  0.00  0.00    +0.389 N 
ATOM     26  C   UNL     1      35.850 -22.430 -16.579  0.00  0.00    -0.077 C 
ATOM     27  C   UNL     1      33.834 -22.473 -17.926  0.00  0.00    -0.077 C 
ATOM     28  C   UNL     1      35.238 -23.392 -15.560  0.00  0.00    -0.023 C 
ATOM     29  C   UNL     1      33.156 -23.436 -16.950  0.00  0.00    -0.023 C 
ATOM     30  C   UNL     1      33.717 -23.286 -15.541  0.00  0.00    -0.004 C 
ATOM     31  H   UNL     1      35.491 -23.617 -18.187  0.00  0.00    -0.080 HD
ENDBRANCH  24  25
ENDBRANCH  23  24
ENDBRANCH  22  23
ENDBRANCH   1  22
TORSDOF 6
ENDMDL
MODEL 9
REMARK VINA RESULT:     -10.1      3.920      7.865
REMARK  Name = 11524144
REMARK  6 active torsions:
REMARK  status: ('A' for Active; 'I' for Inactive)
REMARK    1  A    between atoms: C_1  and  O_22
REMARK    2  A    between atoms: C_2  and  C_10
REMARK    3  A    between atoms: C_12  and  C_17
REMARK    4  A    between atoms: O_22  and  C_23
REMARK    5  A    between atoms: C_23  and  C_24
REMARK    6  A    between atoms: C_24  and  N_25
REMARK                            x       y       z     vdW  Elec       q    Type
REMARK                         _______ _______ _______ _____ _____    ______ ____
ROOT
ATOM      1  C   UNL     1      35.130 -17.870 -23.452  0.00  0.00    +0.138 C 
ATOM      2  C   UNL     1      34.955 -19.602 -21.285  0.00  0.00    -0.001 C 
ATOM      3  C   UNL     1      34.675 -19.169 -23.645  0.00  0.00    +0.037 C 
ATOM      4  C   UNL     1      35.498 -17.428 -22.187  0.00  0.00    +0.037 C 
ATOM      5  C   UNL     1      34.587 -20.038 -22.557  0.00  0.00    +0.003 C 
ATOM      6  C   UNL     1      35.410 -18.297 -21.100  0.00  0.00    +0.003 C 
ENDROOT
BRANCH   2  10
ATOM      7  N   UNL     1      33.693 -21.891 -18.585  0.00  0.00    -0.193 N 
ATOM      8  N   UNL     1      36.075 -21.732 -18.311  0.00  0.00    -0.231 NA
ATOM      9  N   UNL     1      32.612 -22.490 -18.019  0.00  0.00    -0.179 NA
ATOM     10  C   UNL     1      34.863 -20.518 -20.139  0.00  0.00    +0.019 C 
ATOM     11  C   UNL     1      34.868 -22.222 -17.914  0.00  0.00    +0.137 C 
ATOM     12  C   UNL     1      34.505 -23.064 -16.888  0.00  0.00    +0.121 C 
ATOM     13  C   UNL     1      33.711 -21.041 -19.689  0.00  0.00    +0.145 C 
ATOM     14  C   UNL     1      36.058 -20.943 -19.343  0.00  0.00    +0.097 C 
ATOM     15  C   UNL     1      33.115 -23.190 -17.002  0.00  0.00    +0.103 C 
BRANCH  12  17
ATOM     16  N   UNL     1      37.214 -24.764 -14.117  0.00  0.00    -0.242 NA
ATOM     17  C   UNL     1      35.421 -23.639 -15.950  0.00  0.00    -0.007 C 
ATOM     18  C   UNL     1      36.678 -23.071 -15.758  0.00  0.00    +0.017 C 
ATOM     19  C   UNL     1      35.063 -24.771 -15.223  0.00  0.00    +0.017 C 
ATOM     20  C   UNL     1      37.528 -23.666 -14.839  0.00  0.00    +0.099 C 
ATOM     21  C   UNL     1      35.986 -25.290 -14.328  0.00  0.00    +0.099 C 
ENDBRANCH  12  17
ENDBRANCH   2  10
BRANCH   1  22
ATOM     22  O   UNL     1      35.216 -17.016 -24.521  0.00  0.00    -0.478 OA
BRANCH  22  23
ATOM     23  C   UNL     1      35.011 -15.634 -24.256  0.00  0.00    +0.183 C 
BRANCH  23  24
ATOM     24  C   UNL     1      33.798 -15.161 -25.041  0.00  0.00    -0.029 C 
BRANCH  24  25
ATOM     25  N   UNL     1      33.224 -13.962 -24.431  0.00  0.00    +0.389 N 
ATOM     26  C   UNL     1      33.125 -14.123 -22.974  0.00  0.00    -0.077 C 
ATOM     27  C   UNL     1      34.021 -12.777 -24.781  0.00  0.00    -0.077 C 
ATOM     28  C   UNL     1      32.482 -12.897 -22.325  0.00  0.00    -0.023 C 
ATOM     29  C   UNL     1      33.407 -11.506 -24.191  0.00  0.00    -0.023 C 
ATOM     30  C   UNL     1      33.238 -11.621 -22.681  0.00  0.00    -0.004 C 
ATOM     31  H   UNL     1      32.282 -13.827 -24.797  0.00  0.00    -0.080 HD
ENDBRANCH  24  25
ENDBRANCH  23  24
ENDBRANCH  22  23
ENDBRANCH   1  22
TORSDOF 6
ENDMDL
