MODEL 1
REMARK VINA RESULT:     -11.5      0.000      0.000
REMARK  Name = 45268539
REMARK  6 active torsions:
REMARK  status: ('A' for Active; 'I' for Inactive)
REMARK    1  A    between atoms: N_2  and  C_22
REMARK    2  A    between atoms: N_3  and  C_7
REMARK    3  A    between atoms: N_3  and  O_12
REMARK    4  A    between atoms: C_8  and  C_14
REMARK    5  A    between atoms: C_15  and  C_16
REMARK    6  A    between atoms: C_22  and  C_26
REMARK                            x       y       z     vdW  Elec       q    Type
REMARK                         _______ _______ _______ _____ _____    ______ ____
ROOT
ATOM      1  O   UNL     1      32.677 -12.689 -20.839  0.00  0.00    -0.273 OA
ATOM      2  N   UNL     1      33.100 -13.301 -23.097  0.00  0.00    -0.253 N 
ATOM      3  C   UNL     1      33.703 -14.426 -23.691  0.00  0.00    +0.052 C 
ATOM      4  C   UNL     1      34.118 -15.330 -22.713  0.00  0.00    +0.018 C 
ATOM      5  C   UNL     1      33.091 -13.416 -21.717  0.00  0.00    +0.252 C 
ATOM      6  C   UNL     1      33.755 -14.743 -21.438  0.00  0.00    +0.202 C 
ATOM      7  C   UNL     1      34.742 -16.523 -23.011  0.00  0.00    -0.001 C 
ATOM      8  C   UNL     1      33.908 -14.698 -25.031  0.00  0.00    +0.015 C 
ATOM      9  C   UNL     1      34.952 -16.806 -24.361  0.00  0.00    -0.000 C 
ATOM     10  C   UNL     1      34.540 -15.903 -25.361  0.00  0.00    +0.001 C 
ENDROOT
BRANCH   7  11
ATOM     11  C   UNL     1      35.177 -17.468 -21.998  0.00  0.00    -0.000 C 
ATOM     12  C   UNL     1      34.795 -18.768 -21.924  0.00  0.00    -0.000 C 
BRANCH  12  13
ATOM     13  C   UNL     1      35.250 -19.732 -20.906  0.00  0.00    -0.000 C 
ATOM     14  C   UNL     1      36.599 -19.792 -20.556  0.00  0.00    -0.000 C 
ATOM     15  C   UNL     1      34.331 -20.582 -20.292  0.00  0.00    -0.000 C 
ATOM     16  C   UNL     1      37.030 -20.705 -19.592  0.00  0.00    +0.000 C 
ATOM     17  C   UNL     1      34.762 -21.494 -19.328  0.00  0.00    +0.000 C 
ATOM     18  C   UNL     1      36.111 -21.556 -18.979  0.00  0.00    +0.000 C 
ENDBRANCH  12  13
ENDBRANCH   7  11
BRANCH   6  19
ATOM     19  N   UNL     1      33.939 -15.212 -20.255  0.00  0.00    -0.075 NA
BRANCH  19  20
ATOM     20  O   UNL     1      32.698 -15.313 -19.620  0.00  0.00    -0.294 OA
ATOM     21  H   UNL     1      32.643 -15.666 -18.754  0.00  0.00    +0.238 HD
ENDBRANCH  19  20
ENDBRANCH   6  19
BRANCH   2  22
ATOM     22  C   UNL     1      32.570 -12.192 -23.852  0.00  0.00    +0.128 C 
BRANCH  22  26
ATOM     23  F   UNL     1      36.632 -10.097 -25.514  0.00  0.00    -0.204 F 
ATOM     24  O   UNL     1      32.141  -9.871 -22.352  0.00  0.00    -0.448 OA
ATOM     25  O   UNL     1      32.991  -7.900 -21.276  0.00  0.00    -0.311 OA
ATOM     26  C   UNL     1      33.517 -11.027 -23.881  0.00  0.00    +0.034 C 
ATOM     27  C   UNL     1      33.275  -9.881 -23.124  0.00  0.00    +0.138 C 
ATOM     28  C   UNL     1      34.177  -8.809 -23.150  0.00  0.00    +0.043 C 
ATOM     29  C   UNL     1      34.653 -11.098 -24.687  0.00  0.00    +0.030 C 
ATOM     30  C   UNL     1      33.903  -7.587 -22.328  0.00  0.00    +0.176 C 
ATOM     31  C   UNL     1      35.307  -8.885 -23.970  0.00  0.00    +0.031 C 
ATOM     32  C   UNL     1      35.545 -10.027 -24.735  0.00  0.00    +0.140 C 
ATOM     33  C   UNL     1      31.853  -8.584 -21.795  0.00  0.00    +0.361 C 
ENDBRANCH  22  26
ENDBRANCH   2  22
TORSDOF 6
ENDMDL
MODEL 2
REMARK VINA RESULT:     -10.5      3.784      6.402
REMARK  Name = 45268539
REMARK  6 active torsions:
REMARK  status: ('A' for Active; 'I' for Inactive)
REMARK    1  A    between atoms: N_2  and  C_22
REMARK    2  A    between atoms: N_3  and  C_7
REMARK    3  A    between atoms: N_3  and  O_12
REMARK    4  A    between atoms: C_8  and  C_14
REMARK    5  A    between atoms: C_15  and  C_16
REMARK    6  A    between atoms: C_22  and  C_26
REMARK                            x       y       z     vdW  Elec       q    Type
REMARK                         _______ _______ _______ _____ _____    ______ ____
ROOT
ATOM      1  O   UNL     1      38.001 -18.280 -21.712  0.00  0.00    -0.273 OA
ATOM      2  N   UNL     1      35.696 -18.804 -21.960  0.00  0.00    -0.253 N 
ATOM      3  C   UNL     1      34.815 -19.632 -21.238  0.00  0.00    +0.052 C 
ATOM      4  C   UNL     1      35.481 -20.244 -20.176  0.00  0.00    +0.018 C 
ATOM      5  C   UNL     1      36.966 -18.834 -21.409  0.00  0.00    +0.252 C 
ATOM      6  C   UNL     1      36.852 -19.775 -20.234  0.00  0.00    +0.202 C 
ATOM      7  C   UNL     1      34.862 -21.110 -19.300  0.00  0.00    -0.001 C 
ATOM      8  C   UNL     1      33.472 -19.878 -21.460  0.00  0.00    +0.015 C 
ATOM      9  C   UNL     1      33.506 -21.363 -19.517  0.00  0.00    -0.000 C 
ATOM     10  C   UNL     1      32.819 -20.754 -20.585  0.00  0.00    +0.001 C 
ENDROOT
BRANCH   7  11
ATOM     11  C   UNL     1      35.550 -21.751 -18.195  0.00  0.00    -0.000 C 
ATOM     12  C   UNL     1      34.956 -22.496 -17.229  0.00  0.00    -0.000 C 
BRANCH  12  13
ATOM     13  C   UNL     1      35.657 -23.161 -16.116  0.00  0.00    -0.000 C 
ATOM     14  C   UNL     1      36.978 -22.823 -15.822  0.00  0.00    -0.000 C 
ATOM     15  C   UNL     1      34.998 -24.126 -15.355  0.00  0.00    -0.000 C 
ATOM     16  C   UNL     1      37.641 -23.453 -14.768  0.00  0.00    +0.000 C 
ATOM     17  C   UNL     1      35.661 -24.755 -14.301  0.00  0.00    +0.000 C 
ATOM     18  C   UNL     1      36.983 -24.419 -14.008  0.00  0.00    +0.000 C 
ENDBRANCH  12  13
ENDBRANCH   7  11
BRANCH   6  19
ATOM     19  N   UNL     1      37.836 -20.068 -19.460  0.00  0.00    -0.075 NA
BRANCH  19  20
ATOM     20  O   UNL     1      38.246 -18.905 -18.803  0.00  0.00    -0.294 OA
ATOM     21  H   UNL     1      37.614 -18.362 -18.373  0.00  0.00    +0.238 HD
ENDBRANCH  19  20
ENDBRANCH   6  19
BRANCH   2  22
ATOM     22  C   UNL     1      35.297 -18.037 -23.115  0.00  0.00    +0.128 C 
BRANCH  22  26
ATOM     23  F   UNL     1      34.348 -14.672 -19.735  0.00  0.00    -0.204 F 
ATOM     24  O   UNL     1      34.295 -16.235 -25.005  0.00  0.00    -0.448 OA
ATOM     25  O   UNL     1      32.917 -14.349 -25.557  0.00  0.00    -0.311 OA
ATOM     26  C   UNL     1      34.778 -16.680 -22.738  0.00  0.00    +0.034 C 
ATOM     27  C   UNL     1      34.286 -15.801 -23.703  0.00  0.00    +0.138 C 
ATOM     28  C   UNL     1      33.790 -14.544 -23.333  0.00  0.00    +0.043 C 
ATOM     29  C   UNL     1      34.796 -16.296 -21.397  0.00  0.00    +0.030 C 
ATOM     30  C   UNL     1      33.264 -13.614 -24.383  0.00  0.00    +0.176 C 
ATOM     31  C   UNL     1      33.823 -14.164 -21.988  0.00  0.00    +0.031 C 
ATOM     32  C   UNL     1      34.323 -15.039 -21.023  0.00  0.00    +0.140 C 
ATOM     33  C   UNL     1      33.995 -15.198 -25.945  0.00  0.00    +0.361 C 
ENDBRANCH  22  26
ENDBRANCH   2  22
TORSDOF 6
ENDMDL
MODEL 3
REMARK VINA RESULT:     -10.3      2.558      9.005
REMARK  Name = 45268539
REMARK  6 active torsions:
REMARK  status: ('A' for Active; 'I' for Inactive)
REMARK    1  A    between atoms: N_2  and  C_22
REMARK    2  A    between atoms: N_3  and  C_7
REMARK    3  A    between atoms: N_3  and  O_12
REMARK    4  A    between atoms: C_8  and  C_14
REMARK    5  A    between atoms: C_15  and  C_16
REMARK    6  A    between atoms: C_22  and  C_26
REMARK                            x       y       z     vdW  Elec       q    Type
REMARK                         _______ _______ _______ _____ _____    ______ ____
ROOT
ATOM      1  O   UNL     1      34.673 -16.339 -20.689  0.00  0.00    -0.273 OA
ATOM      2  N   UNL     1      34.397 -16.558 -23.040  0.00  0.00    -0.253 N 
ATOM      3  C   UNL     1      34.148 -15.630 -24.069  0.00  0.00    +0.052 C 
ATOM      4  C   UNL     1      34.053 -14.339 -23.549  0.00  0.00    +0.018 C 
ATOM      5  C   UNL     1      34.476 -15.924 -21.811  0.00  0.00    +0.252 C 
ATOM      6  C   UNL     1      34.253 -14.463 -22.118  0.00  0.00    +0.202 C 
ATOM      7  C   UNL     1      33.813 -13.230 -24.332  0.00  0.00    -0.001 C 
ATOM      8  C   UNL     1      34.001 -15.853 -25.425  0.00  0.00    +0.015 C 
ATOM      9  C   UNL     1      33.664 -13.446 -25.703  0.00  0.00    -0.000 C 
ATOM     10  C   UNL     1      33.756 -14.744 -26.244  0.00  0.00    +0.001 C 
ENDROOT
BRANCH   7  11
ATOM     11  C   UNL     1      33.712 -11.884 -23.797  0.00  0.00    -0.000 C 
ATOM     12  C   UNL     1      34.450 -10.822 -24.205  0.00  0.00    -0.000 C 
BRANCH  12  13
ATOM     13  C   UNL     1      34.336  -9.452 -23.674  0.00  0.00    -0.000 C 
ATOM     14  C   UNL     1      33.199  -9.074 -22.959  0.00  0.00    -0.000 C 
ATOM     15  C   UNL     1      35.364  -8.534 -23.885  0.00  0.00    -0.000 C 
ATOM     16  C   UNL     1      33.091  -7.776 -22.456  0.00  0.00    +0.000 C 
ATOM     17  C   UNL     1      35.257  -7.238 -23.382  0.00  0.00    +0.000 C 
ATOM     18  C   UNL     1      34.119  -6.859 -22.668  0.00  0.00    +0.000 C 
ENDBRANCH  12  13
ENDBRANCH   7  11
BRANCH   6  19
ATOM     19  N   UNL     1      34.252 -13.540 -21.223  0.00  0.00    -0.075 NA
BRANCH  19  20
ATOM     20  O   UNL     1      33.088 -13.665 -20.459  0.00  0.00    -0.294 OA
ATOM     21  H   UNL     1      32.866 -14.491 -20.077  0.00  0.00    +0.238 HD
ENDBRANCH  19  20
ENDBRANCH   6  19
BRANCH   2  22
ATOM     22  C   UNL     1      34.545 -17.975 -23.267  0.00  0.00    +0.128 C 
BRANCH  22  26
ATOM     23  F   UNL     1      39.039 -18.479 -21.479  0.00  0.00    -0.204 F 
ATOM     24  O   UNL     1      33.712 -19.829 -21.346  0.00  0.00    -0.448 OA
ATOM     25  O   UNL     1      34.204 -21.645 -19.854  0.00  0.00    -0.311 OA
ATOM     26  C   UNL     1      35.495 -18.605 -22.290  0.00  0.00    +0.034 C 
ATOM     27  C   UNL     1      35.050 -19.526 -21.341  0.00  0.00    +0.138 C 
ATOM     28  C   UNL     1      35.952 -20.117 -20.448  0.00  0.00    +0.043 C 
ATOM     29  C   UNL     1      36.844 -18.254 -22.335  0.00  0.00    +0.030 C 
ATOM     30  C   UNL     1      35.457 -21.105 -19.437  0.00  0.00    +0.176 C 
ATOM     31  C   UNL     1      37.301 -19.751 -20.493  0.00  0.00    +0.031 C 
ATOM     32  C   UNL     1      37.745 -18.823 -21.436  0.00  0.00    +0.140 C 
ATOM     33  C   UNL     1      33.306 -20.594 -20.206  0.00  0.00    +0.361 C 
ENDBRANCH  22  26
ENDBRANCH   2  22
TORSDOF 6
ENDMDL
MODEL 4
REMARK VINA RESULT:      -9.9      1.888      2.412
REMARK  Name = 45268539
REMARK  6 active torsions:
REMARK  status: ('A' for Active; 'I' for Inactive)
REMARK    1  A    between atoms: N_2  and  C_22
REMARK    2  A    between atoms: N_3  and  C_7
REMARK    3  A    between atoms: N_3  and  O_12
REMARK    4  A    between atoms: C_8  and  C_14
REMARK    5  A    between atoms: C_15  and  C_16
REMARK    6  A    between atoms: C_22  and  C_26
REMARK                            x       y       z     vdW  Elec       q    Type
REMARK                         _______ _______ _______ _____ _____    ______ ____
ROOT
ATOM      1  O   UNL     1      34.080 -13.063 -20.805  0.00  0.00    -0.273 OA
ATOM      2  N   UNL     1      34.215 -13.846 -23.046  0.00  0.00    -0.253 N 
ATOM      3  C   UNL     1      34.468 -15.112 -23.609  0.00  0.00    +0.052 C 
ATOM      4  C   UNL     1      34.673 -16.059 -22.605  0.00  0.00    +0.018 C 
ATOM      5  C   UNL     1      34.243 -13.906 -21.663  0.00  0.00    +0.252 C 
ATOM      6  C   UNL     1      34.542 -15.351 -21.347  0.00  0.00    +0.202 C 
ATOM      7  C   UNL     1      34.942 -17.386 -22.869  0.00  0.00    -0.001 C 
ATOM      8  C   UNL     1      34.528 -15.476 -24.941  0.00  0.00    +0.015 C 
ATOM      9  C   UNL     1      35.003 -17.761 -24.212  0.00  0.00    -0.000 C 
ATOM     10  C   UNL     1      34.799 -16.817 -25.237  0.00  0.00    +0.001 C 
ENDROOT
BRANCH   7  11
ATOM     11  C   UNL     1      35.157 -18.376 -21.830  0.00  0.00    -0.000 C 
ATOM     12  C   UNL     1      34.282 -19.352 -21.485  0.00  0.00    -0.000 C 
BRANCH  12  13
ATOM     13  C   UNL     1      34.507 -20.368 -20.441  0.00  0.00    -0.000 C 
ATOM     14  C   UNL     1      35.808 -20.720 -20.081  0.00  0.00    -0.000 C 
ATOM     15  C   UNL     1      33.421 -20.976 -19.813  0.00  0.00    -0.000 C 
ATOM     16  C   UNL     1      36.022 -21.682 -19.093  0.00  0.00    +0.000 C 
ATOM     17  C   UNL     1      33.634 -21.937 -18.825  0.00  0.00    +0.000 C 
ATOM     18  C   UNL     1      34.935 -22.291 -18.466  0.00  0.00    +0.000 C 
ENDBRANCH  12  13
ENDBRANCH   7  11
BRANCH   6  19
ATOM     19  N   UNL     1      34.651 -15.810 -20.151  0.00  0.00    -0.075 NA
BRANCH  19  20
ATOM     20  O   UNL     1      33.432 -15.626 -19.492  0.00  0.00    -0.294 OA
ATOM     21  H   UNL     1      33.062 -16.324 -18.988  0.00  0.00    +0.238 HD
ENDBRANCH  19  20
ENDBRANCH   6  19
BRANCH   2  22
ATOM     22  C   UNL     1      33.964 -12.663 -23.832  0.00  0.00    +0.128 C 
BRANCH  22  26
ATOM     23  F   UNL     1      30.291 -11.537 -20.851  0.00  0.00    -0.204 F 
ATOM     24  O   UNL     1      34.584  -9.937 -23.888  0.00  0.00    -0.448 OA
ATOM     25  O   UNL     1      33.918  -7.644 -23.631  0.00  0.00    -0.311 OA
ATOM     26  C   UNL     1      33.170 -11.641 -23.073  0.00  0.00    +0.034 C 
ATOM     27  C   UNL     1      33.504 -10.287 -23.118  0.00  0.00    +0.138 C 
ATOM     28  C   UNL     1      32.742  -9.343 -22.417  0.00  0.00    +0.043 C 
ATOM     29  C   UNL     1      32.082 -12.060 -22.307  0.00  0.00    +0.030 C 
ATOM     30  C   UNL     1      33.115  -7.894 -22.479  0.00  0.00    +0.176 C 
ATOM     31  C   UNL     1      31.661  -9.775 -21.643  0.00  0.00    +0.031 C 
ATOM     32  C   UNL     1      31.331 -11.130 -21.590  0.00  0.00    +0.140 C 
ATOM     33  C   UNL     1      34.994  -8.578 -23.695  0.00  0.00    +0.361 C 
ENDBRANCH  22  26
ENDBRANCH   2  22
TORSDOF 6
ENDMDL
MODEL 5
REMARK VINA RESULT:      -9.9      7.328     13.380
REMARK  Name = 45268539
REMARK  6 active torsions:
REMARK  status: ('A' for Active; 'I' for Inactive)
REMARK    1  A    between atoms: N_2  and  C_22
REMARK    2  A    between atoms: N_3  and  C_7
REMARK    3  A    between atoms: N_3  and  O_12
REMARK    4  A    between atoms: C_8  and  C_14
REMARK    5  A    between atoms: C_15  and  C_16
REMARK    6  A    between atoms: C_22  and  C_26
REMARK                            x       y       z     vdW  Elec       q    Type
REMARK                         _______ _______ _______ _____ _____    ______ ____
ROOT
ATOM      1  O   UNL     1      37.646 -22.939 -15.441  0.00  0.00    -0.273 OA
ATOM      2  N   UNL     1      35.320 -23.414 -15.576  0.00  0.00    -0.253 N 
ATOM      3  C   UNL     1      34.318 -23.058 -16.499  0.00  0.00    +0.052 C 
ATOM      4  C   UNL     1      34.852 -22.267 -17.517  0.00  0.00    +0.018 C 
ATOM      5  C   UNL     1      36.544 -22.880 -15.944  0.00  0.00    +0.252 C 
ATOM      6  C   UNL     1      36.263 -22.120 -17.218  0.00  0.00    +0.202 C 
ATOM      7  C   UNL     1      34.095 -21.773 -18.558  0.00  0.00    -0.001 C 
ATOM      8  C   UNL     1      32.975 -23.385 -16.495  0.00  0.00    +0.015 C 
ATOM      9  C   UNL     1      32.738 -22.100 -18.562  0.00  0.00    -0.000 C 
ATOM     10  C   UNL     1      32.184 -22.897 -17.541  0.00  0.00    +0.001 C 
ENDROOT
BRANCH   7  11
ATOM     11  C   UNL     1      34.644 -20.949 -19.620  0.00  0.00    -0.000 C 
ATOM     12  C   UNL     1      33.940 -20.064 -20.367  0.00  0.00    -0.000 C 
BRANCH  12  13
ATOM     13  C   UNL     1      34.500 -19.214 -21.433  0.00  0.00    -0.000 C 
ATOM     14  C   UNL     1      34.995 -17.946 -21.127  0.00  0.00    -0.000 C 
ATOM     15  C   UNL     1      34.537 -19.678 -22.748  0.00  0.00    -0.000 C 
ATOM     16  C   UNL     1      35.525 -17.142 -22.136  0.00  0.00    +0.000 C 
ATOM     17  C   UNL     1      35.067 -18.875 -23.757  0.00  0.00    +0.000 C 
ATOM     18  C   UNL     1      35.561 -17.606 -23.451  0.00  0.00    +0.000 C 
ENDBRANCH  12  13
ENDBRANCH   7  11
BRANCH   6  19
ATOM     19  N   UNL     1      37.161 -21.474 -17.874  0.00  0.00    -0.075 NA
BRANCH  19  20
ATOM     20  O   UNL     1      37.620 -20.420 -17.079  0.00  0.00    -0.294 OA
ATOM     21  H   UNL     1      37.361 -19.540 -17.272  0.00  0.00    +0.238 HD
ENDBRANCH  19  20
ENDBRANCH   6  19
BRANCH   2  22
ATOM     22  C   UNL     1      35.074 -24.230 -14.412  0.00  0.00    +0.128 C 
BRANCH  22  26
ATOM     23  F   UNL     1      37.411 -22.450 -10.536  0.00  0.00    -0.204 F 
ATOM     24  O   UNL     1      37.185 -26.044 -14.690  0.00  0.00    -0.448 OA
ATOM     25  O   UNL     1      39.474 -26.650 -14.297  0.00  0.00    -0.311 OA
ATOM     26  C   UNL     1      36.249 -24.248 -13.478  0.00  0.00    +0.034 C 
ATOM     27  C   UNL     1      37.287 -25.166 -13.640  0.00  0.00    +0.138 C 
ATOM     28  C   UNL     1      38.385 -25.159 -12.770  0.00  0.00    +0.043 C 
ATOM     29  C   UNL     1      36.294 -23.330 -12.429  0.00  0.00    +0.030 C 
ATOM     30  C   UNL     1      39.491 -26.151 -12.960  0.00  0.00    +0.176 C 
ATOM     31  C   UNL     1      38.416 -24.243 -11.714  0.00  0.00    +0.031 C 
ATOM     32  C   UNL     1      37.374 -23.330 -11.546  0.00  0.00    +0.140 C 
ATOM     33  C   UNL     1      38.163 -27.088 -14.645  0.00  0.00    +0.361 C 
ENDBRANCH  22  26
ENDBRANCH   2  22
TORSDOF 6
ENDMDL
MODEL 6
REMARK VINA RESULT:      -9.8      1.956      2.673
REMARK  Name = 45268539
REMARK  6 active torsions:
REMARK  status: ('A' for Active; 'I' for Inactive)
REMARK    1  A    between atoms: N_2  and  C_22
REMARK    2  A    between atoms: N_3  and  C_7
REMARK    3  A    between atoms: N_3  and  O_12
REMARK    4  A    between atoms: C_8  and  C_14
REMARK    5  A    between atoms: C_15  and  C_16
REMARK    6  A    between atoms: C_22  and  C_26
REMARK                            x       y       z     vdW  Elec       q    Type
REMARK                         _______ _______ _______ _____ _____    ______ ____
ROOT
ATOM      1  O   UNL     1      31.733 -12.204 -19.813  0.00  0.00    -0.273 OA
ATOM      2  N   UNL     1      32.306 -12.270 -22.119  0.00  0.00    -0.253 N 
ATOM      3  C   UNL     1      33.054 -13.174 -22.898  0.00  0.00    +0.052 C 
ATOM      4  C   UNL     1      33.531 -14.220 -22.108  0.00  0.00    +0.018 C 
ATOM      5  C   UNL     1      32.259 -12.680 -20.797  0.00  0.00    +0.252 C 
ATOM      6  C   UNL     1      33.058 -13.960 -20.763  0.00  0.00    +0.202 C 
ATOM      7  C   UNL     1      34.297 -15.252 -22.610  0.00  0.00    -0.001 C 
ATOM      8  C   UNL     1      33.338 -13.130 -24.251  0.00  0.00    +0.015 C 
ATOM      9  C   UNL     1      34.587 -15.215 -23.975  0.00  0.00    -0.000 C 
ATOM     10  C   UNL     1      34.114 -14.165 -24.786  0.00  0.00    +0.001 C 
ENDROOT
BRANCH   7  11
ATOM     11  C   UNL     1      34.797 -16.342 -21.793  0.00  0.00    -0.000 C 
ATOM     12  C   UNL     1      34.890 -17.637 -22.187  0.00  0.00    -0.000 C 
BRANCH  12  13
ATOM     13  C   UNL     1      35.414 -18.741 -21.363  0.00  0.00    -0.000 C 
ATOM     14  C   UNL     1      36.778 -18.815 -21.082  0.00  0.00    -0.000 C 
ATOM     15  C   UNL     1      34.545 -19.711 -20.864  0.00  0.00    -0.000 C 
ATOM     16  C   UNL     1      37.274 -19.861 -20.303  0.00  0.00    +0.000 C 
ATOM     17  C   UNL     1      35.041 -20.756 -20.085  0.00  0.00    +0.000 C 
ATOM     18  C   UNL     1      36.406 -20.832 -19.805  0.00  0.00    +0.000 C 
ENDBRANCH  12  13
ENDBRANCH   7  11
BRANCH   6  19
ATOM     19  N   UNL     1      33.249 -14.651 -19.695  0.00  0.00    -0.075 NA
BRANCH  19  20
ATOM     20  O   UNL     1      32.070 -15.340 -19.396  0.00  0.00    -0.294 OA
ATOM     21  H   UNL     1      32.032 -15.899 -18.644  0.00  0.00    +0.238 HD
ENDBRANCH  19  20
ENDBRANCH   6  19
BRANCH   2  22
ATOM     22  C   UNL     1      31.684 -11.086 -22.656  0.00  0.00    +0.128 C 
BRANCH  22  26
ATOM     23  F   UNL     1      31.747  -7.612 -19.254  0.00  0.00    -0.204 F 
ATOM     24  O   UNL     1      33.858  -9.785 -23.841  0.00  0.00    -0.448 OA
ATOM     25  O   UNL     1      35.152  -7.794 -24.195  0.00  0.00    -0.311 OA
ATOM     26  C   UNL     1      32.278  -9.830 -22.088  0.00  0.00    +0.034 C 
ATOM     27  C   UNL     1      33.365  -9.204 -22.700  0.00  0.00    +0.138 C 
ATOM     28  C   UNL     1      33.898  -8.024 -22.166  0.00  0.00    +0.043 C 
ATOM     29  C   UNL     1      31.733  -9.289 -20.924  0.00  0.00    +0.030 C 
ATOM     30  C   UNL     1      35.063  -7.364 -22.837  0.00  0.00    +0.176 C 
ATOM     31  C   UNL     1      33.352  -7.495 -20.992  0.00  0.00    +0.031 C 
ATOM     32  C   UNL     1      32.270  -8.125 -20.375  0.00  0.00    +0.140 C 
ATOM     33  C   UNL     1      35.101  -9.217 -24.268  0.00  0.00    +0.361 C 
ENDBRANCH  22  26
ENDBRANCH   2  22
TORSDOF 6
ENDMDL
MODEL 7
REMARK VINA RESULT:      -9.7      7.280     13.350
REMARK  Name = 45268539
REMARK  6 active torsions:
REMARK  status: ('A' for Active; 'I' for Inactive)
REMARK    1  A    between atoms: N_2  and  C_22
REMARK    2  A    between atoms: N_3  and  C_7
REMARK    3  A    between atoms: N_3  and  O_12
REMARK    4  A    between atoms: C_8  and  C_14
REMARK    5  A    between atoms: C_15  and  C_16
REMARK    6  A    between atoms: C_22  and  C_26
REMARK                            x       y       z     vdW  Elec       q    Type
REMARK                         _______ _______ _______ _____ _____    ______ ____
ROOT
ATOM      1  O   UNL     1      37.571 -22.400 -15.476  0.00  0.00    -0.273 OA
ATOM      2  N   UNL     1      35.276 -23.003 -15.619  0.00  0.00    -0.253 N 
ATOM      3  C   UNL     1      34.281 -22.775 -16.589  0.00  0.00    +0.052 C 
ATOM      4  C   UNL     1      34.800 -22.044 -17.658  0.00  0.00    +0.018 C 
ATOM      5  C   UNL     1      36.480 -22.438 -16.005  0.00  0.00    +0.252 C 
ATOM      6  C   UNL     1      36.194 -21.800 -17.343  0.00  0.00    +0.202 C 
ATOM      7  C   UNL     1      34.046 -21.676 -18.752  0.00  0.00    -0.001 C 
ATOM      8  C   UNL     1      32.956 -23.170 -16.586  0.00  0.00    +0.015 C 
ATOM      9  C   UNL     1      32.707 -22.071 -18.757  0.00  0.00    -0.000 C 
ATOM     10  C   UNL     1      32.168 -22.810 -17.686  0.00  0.00    +0.001 C 
ENDROOT
BRANCH   7  11
ATOM     11  C   UNL     1      34.580 -20.914 -19.867  0.00  0.00    -0.000 C 
ATOM     12  C   UNL     1      33.975 -19.848 -20.447  0.00  0.00    -0.000 C 
BRANCH  12  13
ATOM     13  C   UNL     1      34.525 -19.063 -21.567  0.00  0.00    -0.000 C 
ATOM     14  C   UNL     1      34.547 -19.604 -22.853  0.00  0.00    -0.000 C 
ATOM     15  C   UNL     1      35.021 -17.779 -21.342  0.00  0.00    -0.000 C 
ATOM     16  C   UNL     1      35.068 -18.861 -23.913  0.00  0.00    +0.000 C 
ATOM     17  C   UNL     1      35.541 -17.037 -22.401  0.00  0.00    +0.000 C 
ATOM     18  C   UNL     1      35.565 -17.578 -23.687  0.00  0.00    +0.000 C 
ENDBRANCH  12  13
ENDBRANCH   7  11
BRANCH   6  19
ATOM     19  N   UNL     1      37.075 -21.165 -18.032  0.00  0.00    -0.075 NA
BRANCH  19  20
ATOM     20  O   UNL     1      37.634 -20.169 -17.226  0.00  0.00    -0.294 OA
ATOM     21  H   UNL     1      38.543 -19.955 -17.308  0.00  0.00    +0.238 HD
ENDBRANCH  19  20
ENDBRANCH   6  19
BRANCH   2  22
ATOM     22  C   UNL     1      35.042 -23.733 -14.398  0.00  0.00    +0.128 C 
BRANCH  22  26
ATOM     23  F   UNL     1      36.904 -27.973 -15.882  0.00  0.00    -0.204 F 
ATOM     24  O   UNL     1      36.883 -23.809 -12.294  0.00  0.00    -0.448 OA
ATOM     25  O   UNL     1      38.323 -25.054 -10.832  0.00  0.00    -0.311 OA
ATOM     26  C   UNL     1      36.016 -24.861 -14.220  0.00  0.00    +0.034 C 
ATOM     27  C   UNL     1      36.925 -24.871 -13.162  0.00  0.00    +0.138 C 
ATOM     28  C   UNL     1      37.817 -25.939 -13.000  0.00  0.00    +0.043 C 
ATOM     29  C   UNL     1      36.010 -25.912 -15.137  0.00  0.00    +0.030 C 
ATOM     30  C   UNL     1      38.784 -25.933 -11.857  0.00  0.00    +0.176 C 
ATOM     31  C   UNL     1      37.812 -26.982 -13.931  0.00  0.00    +0.031 C 
ATOM     32  C   UNL     1      36.909 -26.969 -14.996  0.00  0.00    +0.140 C 
ATOM     33  C   UNL     1      37.988 -23.783 -11.384  0.00  0.00    +0.361 C 
ENDBRANCH  22  26
ENDBRANCH   2  22
TORSDOF 6
ENDMDL
MODEL 8
REMARK VINA RESULT:      -9.1      4.949      8.722
REMARK  Name = 45268539
REMARK  6 active torsions:
REMARK  status: ('A' for Active; 'I' for Inactive)
REMARK    1  A    between atoms: N_2  and  C_22
REMARK    2  A    between atoms: N_3  and  C_7
REMARK    3  A    between atoms: N_3  and  O_12
REMARK    4  A    between atoms: C_8  and  C_14
REMARK    5  A    between atoms: C_15  and  C_16
REMARK    6  A    between atoms: C_22  and  C_26
REMARK                            x       y       z     vdW  Elec       q    Type
REMARK                         _______ _______ _______ _____ _____    ______ ____
ROOT
ATOM      1  O   UNL     1      33.661 -20.533 -20.835  0.00  0.00    -0.273 OA
ATOM      2  N   UNL     1      35.728 -20.623 -19.665  0.00  0.00    -0.253 N 
ATOM      3  C   UNL     1      36.144 -21.292 -18.497  0.00  0.00    +0.052 C 
ATOM      4  C   UNL     1      35.092 -22.035 -17.960  0.00  0.00    +0.018 C 
ATOM      5  C   UNL     1      34.399 -20.895 -19.944  0.00  0.00    +0.252 C 
ATOM      6  C   UNL     1      33.957 -21.822 -18.837  0.00  0.00    +0.202 C 
ATOM      7  C   UNL     1      35.216 -22.790 -16.814  0.00  0.00    -0.001 C 
ATOM      8  C   UNL     1      37.383 -21.285 -17.885  0.00  0.00    +0.015 C 
ATOM      9  C   UNL     1      36.464 -22.789 -16.189  0.00  0.00    -0.000 C 
ATOM     10  C   UNL     1      37.536 -22.044 -16.718  0.00  0.00    +0.001 C 
ENDROOT
BRANCH   7  11
ATOM     11  C   UNL     1      34.125 -23.564 -16.249  0.00  0.00    -0.000 C 
ATOM     12  C   UNL     1      33.134 -23.066 -15.468  0.00  0.00    -0.000 C 
BRANCH  12  13
ATOM     13  C   UNL     1      32.017 -23.848 -14.909  0.00  0.00    -0.000 C 
ATOM     14  C   UNL     1      32.168 -24.506 -13.689  0.00  0.00    -0.000 C 
ATOM     15  C   UNL     1      30.807 -23.928 -15.600  0.00  0.00    -0.000 C 
ATOM     16  C   UNL     1      31.110 -25.246 -13.159  0.00  0.00    +0.000 C 
ATOM     17  C   UNL     1      29.750 -24.667 -15.071  0.00  0.00    +0.000 C 
ATOM     18  C   UNL     1      29.901 -25.327 -13.851  0.00  0.00    +0.000 C 
ENDBRANCH  12  13
ENDBRANCH   7  11
BRANCH   6  19
ATOM     19  N   UNL     1      32.768 -22.301 -18.743  0.00  0.00    -0.075 NA
BRANCH  19  20
ATOM     20  O   UNL     1      31.909 -21.281 -18.322  0.00  0.00    -0.294 OA
ATOM     21  H   UNL     1      32.165 -20.713 -17.622  0.00  0.00    +0.238 HD
ENDBRANCH  19  20
ENDBRANCH   6  19
BRANCH   2  22
ATOM     22  C   UNL     1      36.595 -19.775 -20.446  0.00  0.00    +0.128 C 
BRANCH  22  26
ATOM     23  F   UNL     1      35.083 -20.617 -24.990  0.00  0.00    -0.204 F 
ATOM     24  O   UNL     1      35.578 -17.186 -20.724  0.00  0.00    -0.448 OA
ATOM     25  O   UNL     1      34.918 -15.347 -22.120  0.00  0.00    -0.311 OA
ATOM     26  C   UNL     1      35.933 -19.302 -21.707  0.00  0.00    +0.034 C 
ATOM     27  C   UNL     1      35.432 -18.004 -21.816  0.00  0.00    +0.138 C 
ATOM     28  C   UNL     1      34.832 -17.572 -23.005  0.00  0.00    +0.043 C 
ATOM     29  C   UNL     1      35.815 -20.182 -22.782  0.00  0.00    +0.030 C 
ATOM     30  C   UNL     1      34.301 -16.174 -23.105  0.00  0.00    +0.176 C 
ATOM     31  C   UNL     1      34.707 -18.465 -24.074  0.00  0.00    +0.031 C 
ATOM     32  C   UNL     1      35.199 -19.767 -23.962  0.00  0.00    +0.140 C 
ATOM     33  C   UNL     1      34.840 -15.964 -20.837  0.00  0.00    +0.361 C 
ENDBRANCH  22  26
ENDBRANCH   2  22
TORSDOF 6
ENDMDL
MODEL 9
REMARK VINA RESULT:      -8.9      3.011      9.063
REMARK  Name = 45268539
REMARK  6 active torsions:
REMARK  status: ('A' for Active; 'I' for Inactive)
REMARK    1  A    between atoms: N_2  and  C_22
REMARK    2  A    between atoms: N_3  and  C_7
REMARK    3  A    between atoms: N_3  and  O_12
REMARK    4  A    between atoms: C_8  and  C_14
REMARK    5  A    between atoms: C_15  and  C_16
REMARK    6  A    between atoms: C_22  and  C_26
REMARK                            x       y       z     vdW  Elec       q    Type
REMARK                         _______ _______ _______ _____ _____    ______ ____
ROOT
ATOM      1  O   UNL     1      34.916 -16.548 -20.897  0.00  0.00    -0.273 OA
ATOM      2  N   UNL     1      34.585 -16.648 -23.249  0.00  0.00    -0.253 N 
ATOM      3  C   UNL     1      34.260 -15.677 -24.216  0.00  0.00    +0.052 C 
ATOM      4  C   UNL     1      34.113 -14.424 -23.620  0.00  0.00    +0.018 C 
ATOM      5  C   UNL     1      34.666 -16.081 -21.988  0.00  0.00    +0.252 C 
ATOM      6  C   UNL     1      34.360 -14.618 -22.204  0.00  0.00    +0.202 C 
ATOM      7  C   UNL     1      33.795 -13.287 -24.331  0.00  0.00    -0.001 C 
ATOM      8  C   UNL     1      34.086 -15.830 -25.579  0.00  0.00    +0.015 C 
ATOM      9  C   UNL     1      33.618 -13.433 -25.708  0.00  0.00    -0.000 C 
ATOM     10  C   UNL     1      33.762 -14.691 -26.325  0.00  0.00    +0.001 C 
ENDROOT
BRANCH   7  11
ATOM     11  C   UNL     1      33.640 -11.981 -23.716  0.00  0.00    -0.000 C 
ATOM     12  C   UNL     1      34.261 -10.846 -24.123  0.00  0.00    -0.000 C 
BRANCH  12  13
ATOM     13  C   UNL     1      34.091  -9.516 -23.510  0.00  0.00    -0.000 C 
ATOM     14  C   UNL     1      32.960  -9.243 -22.741  0.00  0.00    -0.000 C 
ATOM     15  C   UNL     1      35.062  -8.533 -23.697  0.00  0.00    -0.000 C 
ATOM     16  C   UNL     1      32.799  -7.984 -22.160  0.00  0.00    +0.000 C 
ATOM     17  C   UNL     1      34.901  -7.275 -23.117  0.00  0.00    +0.000 C 
ATOM     18  C   UNL     1      33.769  -7.000 -22.349  0.00  0.00    +0.000 C 
ENDBRANCH  12  13
ENDBRANCH   7  11
BRANCH   6  19
ATOM     19  N   UNL     1      34.336 -13.749 -21.257  0.00  0.00    -0.075 NA
BRANCH  19  20
ATOM     20  O   UNL     1      33.192 -13.966 -20.484  0.00  0.00    -0.294 OA
ATOM     21  H   UNL     1      33.165 -13.670 -19.595  0.00  0.00    +0.238 HD
ENDBRANCH  19  20
ENDBRANCH   6  19
BRANCH   2  22
ATOM     22  C   UNL     1      34.799 -18.039 -23.561  0.00  0.00    +0.128 C 
BRANCH  22  26
ATOM     23  F   UNL     1      32.525 -21.049 -20.492  0.00  0.00    -0.204 F 
ATOM     24  O   UNL     1      37.071 -18.326 -21.955  0.00  0.00    -0.448 OA
ATOM     25  O   UNL     1      38.069 -18.841 -19.834  0.00  0.00    -0.311 OA
ATOM     26  C   UNL     1      34.812 -18.897 -22.330  0.00  0.00    +0.034 C 
ATOM     27  C   UNL     1      35.961 -19.023 -21.549  0.00  0.00    +0.138 C 
ATOM     28  C   UNL     1      35.952 -19.815 -20.393  0.00  0.00    +0.043 C 
ATOM     29  C   UNL     1      33.652 -19.582 -21.969  0.00  0.00    +0.030 C 
ATOM     30  C   UNL     1      37.195 -19.937 -19.566  0.00  0.00    +0.176 C 
ATOM     31  C   UNL     1      34.788 -20.507 -20.046  0.00  0.00    +0.031 C 
ATOM     32  C   UNL     1      33.640 -20.389 -20.832  0.00  0.00    +0.140 C 
ATOM     33  C   UNL     1      38.256 -18.690 -21.239  0.00  0.00    +0.361 C 
ENDBRANCH  22  26
ENDBRANCH   2  22
TORSDOF 6
ENDMDL
