MODEL 1
REMARK VINA RESULT:     -11.1      0.000      0.000
REMARK  Name = 11234049
REMARK  5 active torsions:
REMARK  status: ('A' for Active; 'I' for Inactive)
REMARK    1  A    between atoms: C_2  and  N_10
REMARK    2  A    between atoms: C_5  and  C_18
REMARK    3  A    between atoms: C_11  and  C_14
REMARK    4  A    between atoms: C_14  and  O_15
REMARK    5  A    between atoms: C_22  and  C_27
REMARK                            x       y       z     vdW  Elec       q    Type
REMARK                         _______ _______ _______ _____ _____    ______ ____
ROOT
ATOM      1  F   UNL     1      32.746 -23.489 -12.315  0.00  0.00    -0.204 F 
ATOM      2  C   UNL     1      35.821 -24.714 -13.827  0.00  0.00    +0.059 C 
ATOM      3  C   UNL     1      34.906 -24.262 -12.870  0.00  0.00    +0.045 C 
ATOM      4  C   UNL     1      35.424 -24.819 -15.164  0.00  0.00    +0.015 C 
ATOM      5  C   UNL     1      33.218 -24.027 -14.583  0.00  0.00    +0.029 C 
ATOM      6  C   UNL     1      33.608 -23.920 -13.246  0.00  0.00    +0.141 C 
ATOM      7  C   UNL     1      34.126 -24.478 -15.540  0.00  0.00    +0.004 C 
ENDROOT
BRANCH   2  10
ATOM      8  O   UNL     1      38.908 -25.980 -12.370  0.00  0.00    -0.434 OA
ATOM      9  O   UNL     1      36.843 -26.533 -11.614  0.00  0.00    -0.226 OA
ATOM     10  N   UNL     1      37.147 -25.063 -13.443  0.00  0.00    -0.221 N 
ATOM     11  C   UNL     1      39.443 -25.337 -13.535  0.00  0.00    +0.220 C 
ATOM     12  C   UNL     1      38.314 -24.461 -14.032  0.00  0.00    +0.148 C 
ATOM     13  C   UNL     1      37.533 -25.918 -12.414  0.00  0.00    +0.409 C 
BRANCH  11  14
ATOM     14  C   UNL     1      39.861 -26.404 -14.538  0.00  0.00    +0.183 C 
BRANCH  14  15
ATOM     15  O   UNL     1      40.273 -25.765 -15.734  0.00  0.00    -0.378 OA
ATOM     16  H   UNL     1      40.855 -25.020 -15.518  0.00  0.00    +0.211 HD
ENDBRANCH  14  15
ENDBRANCH  11  14
ENDBRANCH   2  10
BRANCH   5  18
ATOM     17  N   UNL     1      30.413 -22.477 -16.487  0.00  0.00    -0.234 NA
ATOM     18  C   UNL     1      31.871 -23.673 -14.978  0.00  0.00    +0.021 C 
ATOM     19  C   UNL     1      30.772 -24.154 -14.280  0.00  0.00    +0.004 C 
ATOM     20  C   UNL     1      31.644 -22.845 -16.064  0.00  0.00    +0.100 C 
ATOM     21  C   UNL     1      29.490 -23.797 -14.683  0.00  0.00    +0.029 C 
ATOM     22  C   UNL     1      29.366 -22.963 -15.783  0.00  0.00    +0.146 C 
BRANCH  22  27
ATOM     23  N   UNL     1      27.802 -22.251 -17.514  0.00  0.00    -0.105 NA
ATOM     24  N   UNL     1      26.499 -21.960 -17.397  0.00  0.00    -0.113 N 
ATOM     25  N   UNL     1      26.996 -22.464 -15.409  0.00  0.00    -0.085 NA
ATOM     26  N   UNL     1      25.979 -22.072 -16.166  0.00  0.00    -0.018 NA
ATOM     27  C   UNL     1      28.068 -22.561 -16.243  0.00  0.00    +0.092 C 
ATOM     28  C   UNL     1      25.705 -21.548 -18.525  0.00  0.00    +0.163 C 
ENDBRANCH  22  27
ENDBRANCH   5  18
TORSDOF 5
ENDMDL
MODEL 2
REMARK VINA RESULT:     -10.9      5.664      6.868
REMARK  Name = 11234049
REMARK  5 active torsions:
REMARK  status: ('A' for Active; 'I' for Inactive)
REMARK    1  A    between atoms: C_2  and  N_10
REMARK    2  A    between atoms: C_5  and  C_18
REMARK    3  A    between atoms: C_11  and  C_14
REMARK    4  A    between atoms: C_14  and  O_15
REMARK    5  A    between atoms: C_22  and  C_27
REMARK                            x       y       z     vdW  Elec       q    Type
REMARK                         _______ _______ _______ _____ _____    ______ ____
ROOT
ATOM      1  F   UNL     1      33.467 -22.792 -17.673  0.00  0.00    -0.204 F 
ATOM      2  C   UNL     1      36.178 -23.532 -15.361  0.00  0.00    +0.059 C 
ATOM      3  C   UNL     1      34.913 -23.526 -15.958  0.00  0.00    +0.045 C 
ATOM      4  C   UNL     1      37.214 -22.790 -15.936  0.00  0.00    +0.015 C 
ATOM      5  C   UNL     1      35.725 -22.046 -17.686  0.00  0.00    +0.029 C 
ATOM      6  C   UNL     1      34.687 -22.785 -17.117  0.00  0.00    +0.141 C 
ATOM      7  C   UNL     1      36.989 -22.050 -17.096  0.00  0.00    +0.004 C 
ENDROOT
BRANCH   2  10
ATOM      8  O   UNL     1      36.843 -25.987 -12.755  0.00  0.00    -0.434 OA
ATOM      9  O   UNL     1      36.792 -26.484 -14.967  0.00  0.00    -0.226 OA
ATOM     10  N   UNL     1      36.409 -24.288 -14.176  0.00  0.00    -0.221 N 
ATOM     11  C   UNL     1      36.883 -24.788 -11.968  0.00  0.00    +0.220 C 
ATOM     12  C   UNL     1      36.262 -23.734 -12.857  0.00  0.00    +0.148 C 
ATOM     13  C   UNL     1      36.696 -25.647 -14.082  0.00  0.00    +0.409 C 
BRANCH  11  14
ATOM     14  C   UNL     1      38.330 -24.488 -11.601  0.00  0.00    +0.183 C 
BRANCH  14  15
ATOM     15  O   UNL     1      38.430 -23.125 -11.227  0.00  0.00    -0.378 OA
ATOM     16  H   UNL     1      39.359 -22.903 -11.064  0.00  0.00    +0.211 HD
ENDBRANCH  14  15
ENDBRANCH  11  14
ENDBRANCH   2  10
BRANCH   5  18
ATOM     17  N   UNL     1      36.391 -19.890 -20.654  0.00  0.00    -0.234 NA
ATOM     18  C   UNL     1      35.495 -21.275 -18.890  0.00  0.00    +0.021 C 
ATOM     19  C   UNL     1      34.224 -21.170 -19.438  0.00  0.00    +0.004 C 
ATOM     20  C   UNL     1      36.537 -20.624 -19.527  0.00  0.00    +0.100 C 
ATOM     21  C   UNL     1      34.034 -20.422 -20.595  0.00  0.00    +0.029 C 
ATOM     22  C   UNL     1      35.140 -19.808 -21.159  0.00  0.00    +0.146 C 
BRANCH  22  27
ATOM     23  N   UNL     1      35.192 -17.703 -22.390  0.00  0.00    -0.105 NA
ATOM     24  N   UNL     1      34.946 -17.487 -23.690  0.00  0.00    -0.113 N 
ATOM     25  N   UNL     1      34.663 -19.574 -23.552  0.00  0.00    -0.085 NA
ATOM     26  N   UNL     1      34.629 -18.568 -24.417  0.00  0.00    -0.018 NA
ATOM     27  C   UNL     1      35.002 -19.023 -22.352  0.00  0.00    +0.092 C 
ATOM     28  C   UNL     1      35.017 -16.172 -24.272  0.00  0.00    +0.163 C 
ENDBRANCH  22  27
ENDBRANCH   5  18
TORSDOF 5
ENDMDL
MODEL 3
REMARK VINA RESULT:     -10.3      5.737      6.869
REMARK  Name = 11234049
REMARK  5 active torsions:
REMARK  status: ('A' for Active; 'I' for Inactive)
REMARK    1  A    between atoms: C_2  and  N_10
REMARK    2  A    between atoms: C_5  and  C_18
REMARK    3  A    between atoms: C_11  and  C_14
REMARK    4  A    between atoms: C_14  and  O_15
REMARK    5  A    between atoms: C_22  and  C_27
REMARK                            x       y       z     vdW  Elec       q    Type
REMARK                         _______ _______ _______ _____ _____    ______ ____
ROOT
ATOM      1  F   UNL     1      33.495 -22.731 -17.788  0.00  0.00    -0.204 F 
ATOM      2  C   UNL     1      36.201 -23.420 -15.454  0.00  0.00    +0.059 C 
ATOM      3  C   UNL     1      34.941 -23.437 -16.061  0.00  0.00    +0.045 C 
ATOM      4  C   UNL     1      37.229 -22.661 -16.023  0.00  0.00    +0.015 C 
ATOM      5  C   UNL     1      35.740 -21.946 -17.786  0.00  0.00    +0.029 C 
ATOM      6  C   UNL     1      34.711 -22.702 -17.223  0.00  0.00    +0.141 C 
ATOM      7  C   UNL     1      36.999 -21.927 -17.186  0.00  0.00    +0.004 C 
ENDROOT
BRANCH   2  10
ATOM      8  O   UNL     1      36.159 -25.185 -12.270  0.00  0.00    -0.434 OA
ATOM      9  O   UNL     1      34.375 -24.064 -13.109  0.00  0.00    -0.226 OA
ATOM     10  N   UNL     1      36.436 -24.169 -14.267  0.00  0.00    -0.221 N 
ATOM     11  C   UNL     1      37.426 -25.632 -12.772  0.00  0.00    +0.220 C 
ATOM     12  C   UNL     1      37.730 -24.690 -13.916  0.00  0.00    +0.148 C 
ATOM     13  C   UNL     1      35.535 -24.428 -13.237  0.00  0.00    +0.409 C 
BRANCH  11  14
ATOM     14  C   UNL     1      37.298 -27.085 -13.208  0.00  0.00    +0.183 C 
BRANCH  14  15
ATOM     15  O   UNL     1      38.140 -27.298 -14.328  0.00  0.00    -0.378 OA
ATOM     16  H   UNL     1      39.064 -27.162 -14.067  0.00  0.00    +0.211 HD
ENDBRANCH  14  15
ENDBRANCH  11  14
ENDBRANCH   2  10
BRANCH   5  18
ATOM     17  N   UNL     1      36.394 -19.796 -20.760  0.00  0.00    -0.234 NA
ATOM     18  C   UNL     1      35.506 -21.182 -18.993  0.00  0.00    +0.021 C 
ATOM     19  C   UNL     1      34.235 -21.088 -19.542  0.00  0.00    +0.004 C 
ATOM     20  C   UNL     1      36.544 -20.525 -19.631  0.00  0.00    +0.100 C 
ATOM     21  C   UNL     1      34.040 -20.347 -20.703  0.00  0.00    +0.029 C 
ATOM     22  C   UNL     1      35.143 -19.725 -21.267  0.00  0.00    +0.146 C 
BRANCH  22  27
ATOM     23  N   UNL     1      35.158 -17.622 -22.502  0.00  0.00    -0.105 NA
ATOM     24  N   UNL     1      34.923 -17.414 -23.805  0.00  0.00    -0.113 N 
ATOM     25  N   UNL     1      34.691 -19.507 -23.667  0.00  0.00    -0.085 NA
ATOM     26  N   UNL     1      34.643 -18.504 -24.534  0.00  0.00    -0.018 NA
ATOM     27  C   UNL     1      35.001 -18.947 -22.464  0.00  0.00    +0.092 C 
ATOM     28  C   UNL     1      34.969 -16.099 -24.389  0.00  0.00    +0.163 C 
ENDBRANCH  22  27
ENDBRANCH   5  18
TORSDOF 5
ENDMDL
MODEL 4
REMARK VINA RESULT:      -9.9     14.073     16.591
REMARK  Name = 11234049
REMARK  5 active torsions:
REMARK  status: ('A' for Active; 'I' for Inactive)
REMARK    1  A    between atoms: C_2  and  N_10
REMARK    2  A    between atoms: C_5  and  C_18
REMARK    3  A    between atoms: C_11  and  C_14
REMARK    4  A    between atoms: C_14  and  O_15
REMARK    5  A    between atoms: C_22  and  C_27
REMARK                            x       y       z     vdW  Elec       q    Type
REMARK                         _______ _______ _______ _____ _____    ______ ____
ROOT
ATOM      1  F   UNL     1      34.498 -11.349 -23.931  0.00  0.00    -0.204 F 
ATOM      2  C   UNL     1      32.039  -9.375 -22.116  0.00  0.00    +0.059 C 
ATOM      3  C   UNL     1      33.045  -9.727 -23.021  0.00  0.00    +0.045 C 
ATOM      4  C   UNL     1      31.523 -10.343 -21.248  0.00  0.00    +0.015 C 
ATOM      5  C   UNL     1      33.014 -11.994 -22.189  0.00  0.00    +0.029 C 
ATOM      6  C   UNL     1      33.532 -11.032 -23.057  0.00  0.00    +0.141 C 
ATOM      7  C   UNL     1      32.009 -11.649 -21.285  0.00  0.00    +0.004 C 
ENDROOT
BRANCH   2  10
ATOM      8  O   UNL     1      30.983  -5.969 -21.377  0.00  0.00    -0.434 OA
ATOM      9  O   UNL     1      31.995  -7.326 -19.868  0.00  0.00    -0.226 OA
ATOM     10  N   UNL     1      31.543  -8.040 -22.078  0.00  0.00    -0.221 N 
ATOM     11  C   UNL     1      30.769  -5.981 -22.795  0.00  0.00    +0.220 C 
ATOM     12  C   UNL     1      30.820  -7.446 -23.170  0.00  0.00    +0.148 C 
ATOM     13  C   UNL     1      31.570  -7.157 -21.001  0.00  0.00    +0.409 C 
BRANCH  11  14
ATOM     14  C   UNL     1      31.858  -5.152 -23.464  0.00  0.00    +0.183 C 
BRANCH  14  15
ATOM     15  O   UNL     1      31.912  -3.883 -22.837  0.00  0.00    -0.378 OA
ATOM     16  H   UNL     1      31.380  -3.901 -22.026  0.00  0.00    +0.211 HD
ENDBRANCH  14  15
ENDBRANCH  11  14
ENDBRANCH   2  10
BRANCH   5  18
ATOM     17  N   UNL     1      34.428 -15.244 -21.030  0.00  0.00    -0.234 NA
ATOM     18  C   UNL     1      33.516 -13.352 -22.223  0.00  0.00    +0.021 C 
ATOM     19  C   UNL     1      33.573 -14.061 -23.415  0.00  0.00    +0.004 C 
ATOM     20  C   UNL     1      33.950 -13.979 -21.068  0.00  0.00    +0.100 C 
ATOM     21  C   UNL     1      34.060 -15.364 -23.416  0.00  0.00    +0.029 C 
ATOM     22  C   UNL     1      34.471 -15.904 -22.209  0.00  0.00    +0.146 C 
BRANCH  22  27
ATOM     23  N   UNL     1      35.361 -17.838 -21.018  0.00  0.00    -0.105 NA
ATOM     24  N   UNL     1      35.740 -19.024 -21.512  0.00  0.00    -0.113 N 
ATOM     25  N   UNL     1      35.124 -18.019 -23.262  0.00  0.00    -0.085 NA
ATOM     26  N   UNL     1      35.617 -19.176 -22.839  0.00  0.00    -0.018 NA
ATOM     27  C   UNL     1      34.983 -17.244 -22.151  0.00  0.00    +0.092 C 
ATOM     28  C   UNL     1      36.251 -20.074 -20.671  0.00  0.00    +0.163 C 
ENDBRANCH  22  27
ENDBRANCH   5  18
TORSDOF 5
ENDMDL
MODEL 5
REMARK VINA RESULT:      -9.8     13.168     14.556
REMARK  Name = 11234049
REMARK  5 active torsions:
REMARK  status: ('A' for Active; 'I' for Inactive)
REMARK    1  A    between atoms: C_2  and  N_10
REMARK    2  A    between atoms: C_5  and  C_18
REMARK    3  A    between atoms: C_11  and  C_14
REMARK    4  A    between atoms: C_14  and  O_15
REMARK    5  A    between atoms: C_22  and  C_27
REMARK                            x       y       z     vdW  Elec       q    Type
REMARK                         _______ _______ _______ _____ _____    ______ ____
ROOT
ATOM      1  F   UNL     1      32.613 -13.115 -20.300  0.00  0.00    -0.204 F 
ATOM      2  C   UNL     1      34.388 -15.472 -22.430  0.00  0.00    +0.059 C 
ATOM      3  C   UNL     1      33.706 -14.934 -21.333  0.00  0.00    +0.045 C 
ATOM      4  C   UNL     1      34.623 -14.675 -23.554  0.00  0.00    +0.015 C 
ATOM      5  C   UNL     1      33.502 -12.821 -22.486  0.00  0.00    +0.029 C 
ATOM      6  C   UNL     1      33.264 -13.612 -21.361  0.00  0.00    +0.141 C 
ATOM      7  C   UNL     1      34.180 -13.353 -23.582  0.00  0.00    +0.004 C 
ENDROOT
BRANCH   2  10
ATOM      8  O   UNL     1      35.468 -18.898 -23.027  0.00  0.00    -0.434 OA
ATOM      9  O   UNL     1      34.832 -17.476 -24.675  0.00  0.00    -0.226 OA
ATOM     10  N   UNL     1      34.840 -16.822 -22.401  0.00  0.00    -0.221 N 
ATOM     11  C   UNL     1      35.801 -18.783 -21.637  0.00  0.00    +0.220 C 
ATOM     12  C   UNL     1      35.070 -17.541 -21.176  0.00  0.00    +0.148 C 
ATOM     13  C   UNL     1      35.027 -17.676 -23.485  0.00  0.00    +0.409 C 
BRANCH  11  14
ATOM     14  C   UNL     1      37.314 -18.675 -21.500  0.00  0.00    +0.183 C 
BRANCH  14  15
ATOM     15  O   UNL     1      37.652 -18.757 -20.126  0.00  0.00    -0.378 OA
ATOM     16  H   UNL     1      36.869 -18.560 -19.589  0.00  0.00    +0.211 HD
ENDBRANCH  14  15
ENDBRANCH  11  14
ENDBRANCH   2  10
BRANCH   5  18
ATOM     17  N   UNL     1      33.346  -9.194 -23.335  0.00  0.00    -0.234 NA
ATOM     18  C   UNL     1      33.045 -11.447 -22.520  0.00  0.00    +0.021 C 
ATOM     19  C   UNL     1      31.918 -11.053 -21.811  0.00  0.00    +0.004 C 
ATOM     20  C   UNL     1      33.719 -10.491 -23.259  0.00  0.00    +0.100 C 
ATOM     21  C   UNL     1      31.503  -9.726 -21.863  0.00  0.00    +0.029 C 
ATOM     22  C   UNL     1      32.245  -8.844 -22.632  0.00  0.00    +0.146 C 
BRANCH  22  27
ATOM     23  N   UNL     1      32.323  -6.633 -23.659  0.00  0.00    -0.105 NA
ATOM     24  N   UNL     1      31.676  -5.518 -23.295  0.00  0.00    -0.113 N 
ATOM     25  N   UNL     1      30.993  -6.890 -21.844  0.00  0.00    -0.085 NA
ATOM     26  N   UNL     1      30.876  -5.624 -22.224  0.00  0.00    -0.018 NA
ATOM     27  C   UNL     1      31.863  -7.464 -22.721  0.00  0.00    +0.092 C 
ATOM     28  C   UNL     1      31.831  -4.278 -24.010  0.00  0.00    +0.163 C 
ENDBRANCH  22  27
ENDBRANCH   5  18
TORSDOF 5
ENDMDL
MODEL 6
REMARK VINA RESULT:      -9.6      7.700      8.898
REMARK  Name = 11234049
REMARK  5 active torsions:
REMARK  status: ('A' for Active; 'I' for Inactive)
REMARK    1  A    between atoms: C_2  and  N_10
REMARK    2  A    between atoms: C_5  and  C_18
REMARK    3  A    between atoms: C_11  and  C_14
REMARK    4  A    between atoms: C_14  and  O_15
REMARK    5  A    between atoms: C_22  and  C_27
REMARK                            x       y       z     vdW  Elec       q    Type
REMARK                         _______ _______ _______ _____ _____    ______ ____
ROOT
ATOM      1  F   UNL     1      37.499 -19.838 -20.097  0.00  0.00    -0.204 F 
ATOM      2  C   UNL     1      35.471 -22.026 -18.011  0.00  0.00    +0.059 C 
ATOM      3  C   UNL     1      36.581 -21.359 -18.543  0.00  0.00    +0.045 C 
ATOM      4  C   UNL     1      34.203 -21.789 -18.550  0.00  0.00    +0.015 C 
ATOM      5  C   UNL     1      35.154 -20.234 -20.135  0.00  0.00    +0.029 C 
ATOM      6  C   UNL     1      36.423 -20.466 -19.601  0.00  0.00    +0.141 C 
ATOM      7  C   UNL     1      34.045 -20.895 -19.608  0.00  0.00    +0.004 C 
ENDROOT
BRANCH   2  10
ATOM      8  O   UNL     1      36.498 -24.082 -15.187  0.00  0.00    -0.434 OA
ATOM      9  O   UNL     1      37.813 -22.491 -16.127  0.00  0.00    -0.226 OA
ATOM     10  N   UNL     1      35.633 -22.939 -16.931  0.00  0.00    -0.221 N 
ATOM     11  C   UNL     1      35.114 -24.450 -15.257  0.00  0.00    +0.220 C 
ATOM     12  C   UNL     1      34.660 -23.948 -16.611  0.00  0.00    +0.148 C 
ATOM     13  C   UNL     1      36.744 -23.083 -16.103  0.00  0.00    +0.409 C 
BRANCH  11  14
ATOM     14  C   UNL     1      34.372 -23.800 -14.097  0.00  0.00    +0.183 C 
BRANCH  14  15
ATOM     15  O   UNL     1      34.045 -24.802 -13.150  0.00  0.00    -0.378 OA
ATOM     16  H   UNL     1      34.841 -25.312 -12.932  0.00  0.00    +0.211 HD
ENDBRANCH  14  15
ENDBRANCH  11  14
ENDBRANCH   2  10
BRANCH   5  18
ATOM     17  N   UNL     1      34.811 -17.023 -21.997  0.00  0.00    -0.234 NA
ATOM     18  C   UNL     1      34.985 -19.308 -21.234  0.00  0.00    +0.021 C 
ATOM     19  C   UNL     1      34.839 -19.765 -22.537  0.00  0.00    +0.004 C 
ATOM     20  C   UNL     1      34.964 -17.941 -21.016  0.00  0.00    +0.100 C 
ATOM     21  C   UNL     1      34.678 -18.851 -23.573  0.00  0.00    +0.029 C 
ATOM     22  C   UNL     1      34.671 -17.503 -23.252  0.00  0.00    +0.146 C 
BRANCH  22  27
ATOM     23  N   UNL     1      33.935 -15.328 -24.075  0.00  0.00    -0.105 NA
ATOM     24  N   UNL     1      34.036 -14.823 -25.312  0.00  0.00    -0.113 N 
ATOM     25  N   UNL     1      34.930 -16.718 -25.560  0.00  0.00    -0.085 NA
ATOM     26  N   UNL     1      34.620 -15.612 -26.225  0.00  0.00    -0.018 NA
ATOM     27  C   UNL     1      34.508 -16.516 -24.281  0.00  0.00    +0.092 C 
ATOM     28  C   UNL     1      33.547 -13.510 -25.642  0.00  0.00    +0.163 C 
ENDBRANCH  22  27
ENDBRANCH   5  18
TORSDOF 5
ENDMDL
MODEL 7
REMARK VINA RESULT:      -9.6      7.316     10.395
REMARK  Name = 11234049
REMARK  5 active torsions:
REMARK  status: ('A' for Active; 'I' for Inactive)
REMARK    1  A    between atoms: C_2  and  N_10
REMARK    2  A    between atoms: C_5  and  C_18
REMARK    3  A    between atoms: C_11  and  C_14
REMARK    4  A    between atoms: C_14  and  O_15
REMARK    5  A    between atoms: C_22  and  C_27
REMARK                            x       y       z     vdW  Elec       q    Type
REMARK                         _______ _______ _______ _____ _____    ______ ____
ROOT
ATOM      1  F   UNL     1      33.128 -21.123 -19.570  0.00  0.00    -0.204 F 
ATOM      2  C   UNL     1      35.317 -19.140 -21.696  0.00  0.00    +0.059 C 
ATOM      3  C   UNL     1      34.163 -19.732 -21.172  0.00  0.00    +0.045 C 
ATOM      4  C   UNL     1      36.553 -19.388 -21.092  0.00  0.00    +0.015 C 
ATOM      5  C   UNL     1      35.483 -20.808 -19.458  0.00  0.00    +0.029 C 
ATOM      6  C   UNL     1      34.245 -20.564 -20.056  0.00  0.00    +0.141 C 
ATOM      7  C   UNL     1      36.636 -20.219 -19.976  0.00  0.00    +0.004 C 
ENDROOT
BRANCH   2  10
ATOM      8  O   UNL     1      34.847 -17.515 -24.921  0.00  0.00    -0.434 OA
ATOM      9  O   UNL     1      34.321 -19.684 -24.518  0.00  0.00    -0.226 OA
ATOM     10  N   UNL     1      35.232 -18.291 -22.837  0.00  0.00    -0.221 N 
ATOM     11  C   UNL     1      35.184 -16.370 -24.125  0.00  0.00    +0.220 C 
ATOM     12  C   UNL     1      35.759 -16.953 -22.853  0.00  0.00    +0.148 C 
ATOM     13  C   UNL     1      34.750 -18.618 -24.102  0.00  0.00    +0.409 C 
BRANCH  11  14
ATOM     14  C   UNL     1      33.925 -15.545 -23.892  0.00  0.00    +0.183 C 
BRANCH  14  15
ATOM     15  O   UNL     1      33.958 -15.030 -22.572  0.00  0.00    -0.378 OA
ATOM     16  H   UNL     1      34.486 -15.618 -22.010  0.00  0.00    +0.211 HD
ENDBRANCH  14  15
ENDBRANCH  11  14
ENDBRANCH   2  10
BRANCH   5  18
ATOM     17  N   UNL     1      36.895 -22.538 -16.473  0.00  0.00    -0.234 NA
ATOM     18  C   UNL     1      35.574 -21.671 -18.299  0.00  0.00    +0.021 C 
ATOM     19  C   UNL     1      34.490 -22.438 -17.894  0.00  0.00    +0.004 C 
ATOM     20  C   UNL     1      36.744 -21.754 -17.564  0.00  0.00    +0.100 C 
ATOM     21  C   UNL     1      34.607 -23.257 -16.776  0.00  0.00    +0.029 C 
ATOM     22  C   UNL     1      35.820 -23.271 -16.107  0.00  0.00    +0.146 C 
BRANCH  22  27
ATOM     23  N   UNL     1      36.869 -25.109 -14.893  0.00  0.00    -0.105 NA
ATOM     24  N   UNL     1      36.636 -25.525 -13.641  0.00  0.00    -0.113 N 
ATOM     25  N   UNL     1      35.282 -23.915 -13.804  0.00  0.00    -0.085 NA
ATOM     26  N   UNL     1      35.703 -24.846 -12.958  0.00  0.00    -0.018 NA
ATOM     27  C   UNL     1      35.998 -24.099 -14.948  0.00  0.00    +0.092 C 
ATOM     28  C   UNL     1      37.344 -26.638 -13.063  0.00  0.00    +0.163 C 
ENDBRANCH  22  27
ENDBRANCH   5  18
TORSDOF 5
ENDMDL
MODEL 8
REMARK VINA RESULT:      -9.6      4.210      9.884
REMARK  Name = 11234049
REMARK  5 active torsions:
REMARK  status: ('A' for Active; 'I' for Inactive)
REMARK    1  A    between atoms: C_2  and  N_10
REMARK    2  A    between atoms: C_5  and  C_18
REMARK    3  A    between atoms: C_11  and  C_14
REMARK    4  A    between atoms: C_14  and  O_15
REMARK    5  A    between atoms: C_22  and  C_27
REMARK                            x       y       z     vdW  Elec       q    Type
REMARK                         _______ _______ _______ _____ _____    ______ ____
ROOT
ATOM      1  F   UNL     1      32.735 -25.126 -13.194  0.00  0.00    -0.204 F 
ATOM      2  C   UNL     1      30.550 -23.367 -15.512  0.00  0.00    +0.059 C 
ATOM      3  C   UNL     1      30.983 -24.128 -14.422  0.00  0.00    +0.045 C 
ATOM      4  C   UNL     1      31.488 -22.873 -16.424  0.00  0.00    +0.015 C 
ATOM      5  C   UNL     1      33.272 -23.898 -15.159  0.00  0.00    +0.029 C 
ATOM      6  C   UNL     1      32.340 -24.394 -14.245  0.00  0.00    +0.141 C 
ATOM      7  C   UNL     1      32.845 -23.137 -16.247  0.00  0.00    +0.004 C 
ENDROOT
BRANCH   2  10
ATOM      8  O   UNL     1      27.082 -22.257 -15.449  0.00  0.00    -0.434 OA
ATOM      9  O   UNL     1      28.665 -21.518 -14.003  0.00  0.00    -0.226 OA
ATOM     10  N   UNL     1      29.163 -23.097 -15.693  0.00  0.00    -0.221 N 
ATOM     11  C   UNL     1      27.072 -22.996 -16.678  0.00  0.00    +0.220 C 
ATOM     12  C   UNL     1      28.346 -23.811 -16.637  0.00  0.00    +0.148 C 
ATOM     13  C   UNL     1      28.368 -22.221 -14.958  0.00  0.00    +0.409 C 
BRANCH  11  14
ATOM     14  C   UNL     1      27.025 -22.015 -17.842  0.00  0.00    +0.183 C 
BRANCH  14  15
ATOM     15  O   UNL     1      26.344 -20.845 -17.421  0.00  0.00    -0.378 OA
ATOM     16  H   UNL     1      25.495 -21.091 -17.024  0.00  0.00    +0.211 HD
ENDBRANCH  14  15
ENDBRANCH  11  14
ENDBRANCH   2  10
BRANCH   5  18
ATOM     17  N   UNL     1      36.461 -25.794 -14.790  0.00  0.00    -0.234 NA
ATOM     18  C   UNL     1      34.683 -24.171 -14.980  0.00  0.00    +0.021 C 
ATOM     19  C   UNL     1      35.596 -23.136 -14.833  0.00  0.00    +0.004 C 
ATOM     20  C   UNL     1      35.158 -25.471 -14.952  0.00  0.00    +0.100 C 
ATOM     21  C   UNL     1      36.945 -23.429 -14.663  0.00  0.00    +0.029 C 
ATOM     22  C   UNL     1      37.322 -24.762 -14.649  0.00  0.00    +0.146 C 
BRANCH  22  27
ATOM     23  N   UNL     1      39.096 -26.264 -13.909  0.00  0.00    -0.105 NA
ATOM     24  N   UNL     1      40.423 -26.100 -13.997  0.00  0.00    -0.113 N 
ATOM     25  N   UNL     1      39.722 -24.317 -14.881  0.00  0.00    -0.085 NA
ATOM     26  N   UNL     1      40.839 -24.960 -14.566  0.00  0.00    -0.018 NA
ATOM     27  C   UNL     1      38.701 -25.122 -14.476  0.00  0.00    +0.092 C 
ATOM     28  C   UNL     1      41.348 -27.088 -13.508  0.00  0.00    +0.163 C 
ENDBRANCH  22  27
ENDBRANCH   5  18
TORSDOF 5
ENDMDL
MODEL 9
REMARK VINA RESULT:      -9.5      6.074      7.410
REMARK  Name = 11234049
REMARK  5 active torsions:
REMARK  status: ('A' for Active; 'I' for Inactive)
REMARK    1  A    between atoms: C_2  and  N_10
REMARK    2  A    between atoms: C_5  and  C_18
REMARK    3  A    between atoms: C_11  and  C_14
REMARK    4  A    between atoms: C_14  and  O_15
REMARK    5  A    between atoms: C_22  and  C_27
REMARK                            x       y       z     vdW  Elec       q    Type
REMARK                         _______ _______ _______ _____ _____    ______ ____
ROOT
ATOM      1  F   UNL     1      37.924 -20.626 -17.583  0.00  0.00    -0.204 F 
ATOM      2  C   UNL     1      36.191 -23.249 -15.751  0.00  0.00    +0.059 C 
ATOM      3  C   UNL     1      37.150 -22.294 -16.103  0.00  0.00    +0.045 C 
ATOM      4  C   UNL     1      35.072 -23.436 -16.569  0.00  0.00    +0.015 C 
ATOM      5  C   UNL     1      35.874 -21.727 -18.075  0.00  0.00    +0.029 C 
ATOM      6  C   UNL     1      36.993 -21.535 -17.262  0.00  0.00    +0.141 C 
ATOM      7  C   UNL     1      34.914 -22.676 -17.727  0.00  0.00    +0.004 C 
ENDROOT
BRANCH   2  10
ATOM      8  O   UNL     1      37.266 -25.153 -12.839  0.00  0.00    -0.434 OA
ATOM      9  O   UNL     1      38.698 -24.177 -14.301  0.00  0.00    -0.226 OA
ATOM     10  N   UNL     1      36.352 -24.025 -14.568  0.00  0.00    -0.221 N 
ATOM     11  C   UNL     1      35.859 -25.081 -12.569  0.00  0.00    +0.220 C 
ATOM     12  C   UNL     1      35.247 -24.637 -13.879  0.00  0.00    +0.148 C 
ATOM     13  C   UNL     1      37.547 -24.402 -13.959  0.00  0.00    +0.409 C 
BRANCH  11  14
ATOM     14  C   UNL     1      35.625 -24.094 -11.433  0.00  0.00    +0.183 C 
BRANCH  14  15
ATOM     15  O   UNL     1      34.322 -23.554 -11.562  0.00  0.00    -0.378 OA
ATOM     16  H   UNL     1      33.840 -23.672 -10.729  0.00  0.00    +0.211 HD
ENDBRANCH  14  15
ENDBRANCH  11  14
ENDBRANCH   2  10
BRANCH   5  18
ATOM     17  N   UNL     1      34.233 -20.062 -20.979  0.00  0.00    -0.234 NA
ATOM     18  C   UNL     1      35.706 -20.941 -19.279  0.00  0.00    +0.021 C 
ATOM     19  C   UNL     1      36.792 -20.323 -19.885  0.00  0.00    +0.004 C 
ATOM     20  C   UNL     1      34.459 -20.783 -19.857  0.00  0.00    +0.100 C 
ATOM     21  C   UNL     1      36.600 -19.575 -21.041  0.00  0.00    +0.029 C 
ATOM     22  C   UNL     1      35.312 -19.476 -21.543  0.00  0.00    +0.146 C 
BRANCH  22  27
ATOM     23  N   UNL     1      35.168 -17.389 -22.797  0.00  0.00    -0.105 NA
ATOM     24  N   UNL     1      34.828 -17.205 -24.080  0.00  0.00    -0.113 N 
ATOM     25  N   UNL     1      34.672 -19.301 -23.903  0.00  0.00    -0.085 NA
ATOM     26  N   UNL     1      34.526 -18.311 -24.774  0.00  0.00    -0.018 NA
ATOM     27  C   UNL     1      35.055 -18.717 -22.734  0.00  0.00    +0.092 C 
ATOM     28  C   UNL     1      34.789 -15.896 -24.678  0.00  0.00    +0.163 C 
ENDBRANCH  22  27
ENDBRANCH   5  18
TORSDOF 5
ENDMDL
