MODEL 1
REMARK VINA RESULT:     -12.0      0.000      0.000
REMARK  Name = 17758361
REMARK  5 active torsions:
REMARK  status: ('A' for Active; 'I' for Inactive)
REMARK    1  A    between atoms: N_1  and  C_18
REMARK    2  A    between atoms: C_4  and  C_10
REMARK    3  A    between atoms: C_10  and  C_11
REMARK    4  A    between atoms: C_18  and  C_19
REMARK    5  A    between atoms: C_22  and  C_27
REMARK                            x       y       z     vdW  Elec       q    Type
REMARK                         _______ _______ _______ _____ _____    ______ ____
ROOT
ATOM      1  N   UNL     1      32.558 -22.429 -18.053  0.00  0.00    -0.314 N 
ATOM      2  N   UNL     1      30.656 -22.415 -16.666  0.00  0.00    -0.229 NA
ATOM      3  C   UNL     1      31.950 -22.758 -16.853  0.00  0.00    +0.129 C 
ATOM      4  C   UNL     1      32.125 -23.758 -14.703  0.00  0.00    +0.043 C 
ATOM      5  C   UNL     1      32.721 -23.423 -15.913  0.00  0.00    +0.037 C 
ATOM      6  C   UNL     1      30.795 -23.422 -14.473  0.00  0.00    +0.024 C 
ATOM      7  C   UNL     1      30.110 -22.757 -15.477  0.00  0.00    +0.100 C 
ATOM      8  H   UNL     1      32.022 -21.957 -18.731  0.00  0.00    +0.149 HD
ENDROOT
BRANCH   4  10
ATOM      9  O   UNL     1      32.307 -25.123 -12.812  0.00  0.00    -0.287 OA
ATOM     10  C   UNL     1      32.888 -24.456 -13.680  0.00  0.00    +0.196 C 
BRANCH  10  11
ATOM     11  C   UNL     1      34.380 -24.406 -13.621  0.00  0.00    +0.039 C 
ATOM     12  C   UNL     1      35.016 -23.759 -12.560  0.00  0.00    -0.001 C 
ATOM     13  C   UNL     1      36.408 -23.713 -12.505  0.00  0.00    -0.022 C 
ATOM     14  C   UNL     1      35.138 -25.007 -14.626  0.00  0.00    +0.003 C 
ATOM     15  C   UNL     1      37.166 -24.315 -13.510  0.00  0.00    -0.004 C 
ATOM     16  C   UNL     1      36.531 -24.962 -14.570  0.00  0.00    -0.000 C 
ATOM     17  C   UNL     1      37.088 -23.025 -11.371  0.00  0.00    +0.031 C 
ENDBRANCH  10  11
ENDBRANCH   4  10
BRANCH   1  18
ATOM     18  C   UNL     1      33.935 -22.742 -18.366  0.00  0.00    +0.115 C 
BRANCH  18  19
ATOM     19  C   UNL     1      34.542 -21.683 -19.223  0.00  0.00    -0.003 C 
ATOM     20  C   UNL     1      35.928 -21.536 -19.272  0.00  0.00    -0.003 C 
ATOM     21  C   UNL     1      33.724 -20.840 -19.975  0.00  0.00    -0.003 C 
ATOM     22  C   UNL     1      35.678 -19.702 -20.824  0.00  0.00    +0.031 C 
ATOM     23  C   UNL     1      36.496 -20.545 -20.072  0.00  0.00    +0.002 C 
ATOM     24  C   UNL     1      34.292 -19.850 -20.776  0.00  0.00    +0.002 C 
BRANCH  22  27
ATOM     25  N   UNL     1      37.650 -18.596 -21.851  0.00  0.00    -0.343 N 
ATOM     26  N   UNL     1      35.498 -17.776 -22.249  0.00  0.00    -0.285 NA
ATOM     27  C   UNL     1      36.272 -18.670 -21.659  0.00  0.00    +0.117 C 
ATOM     28  H   UNL     1      38.031 -17.888 -22.420  0.00  0.00    +0.144 HD
ATOM     29  H   UNL     1      38.244 -19.251 -21.418  0.00  0.00    +0.144 HD
ATOM     30  H   UNL     1      35.898 -17.076 -22.814  0.00  0.00    +0.188 HD
ENDBRANCH  22  27
ENDBRANCH  18  19
ENDBRANCH   1  18
TORSDOF 5
ENDMDL
MODEL 2
REMARK VINA RESULT:     -11.9      1.666      4.370
REMARK  Name = 17758361
REMARK  5 active torsions:
REMARK  status: ('A' for Active; 'I' for Inactive)
REMARK    1  A    between atoms: N_1  and  C_18
REMARK    2  A    between atoms: C_4  and  C_10
REMARK    3  A    between atoms: C_10  and  C_11
REMARK    4  A    between atoms: C_18  and  C_19
REMARK    5  A    between atoms: C_22  and  C_27
REMARK                            x       y       z     vdW  Elec       q    Type
REMARK                         _______ _______ _______ _____ _____    ______ ____
ROOT
ATOM      1  N   UNL     1      35.016 -23.049 -17.258  0.00  0.00    -0.314 N 
ATOM      2  N   UNL     1      35.998 -23.747 -15.236  0.00  0.00    -0.229 NA
ATOM      3  C   UNL     1      34.894 -23.365 -15.915  0.00  0.00    +0.129 C 
ATOM      4  C   UNL     1      33.494 -23.583 -14.006  0.00  0.00    +0.043 C 
ATOM      5  C   UNL     1      33.631 -23.268 -15.353  0.00  0.00    +0.037 C 
ATOM      6  C   UNL     1      34.607 -23.980 -13.273  0.00  0.00    +0.024 C 
ATOM      7  C   UNL     1      35.826 -24.046 -13.929  0.00  0.00    +0.100 C 
ATOM      8  H   UNL     1      35.908 -23.113 -17.671  0.00  0.00    +0.149 HD
ENDROOT
BRANCH   4  10
ATOM      9  O   UNL     1      32.088 -23.053 -12.213  0.00  0.00    -0.287 OA
ATOM     10  C   UNL     1      32.191 -23.499 -13.365  0.00  0.00    +0.196 C 
BRANCH  10  11
ATOM     11  C   UNL     1      30.934 -23.936 -14.046  0.00  0.00    +0.039 C 
ATOM     12  C   UNL     1      30.120 -22.996 -14.678  0.00  0.00    -0.001 C 
ATOM     13  C   UNL     1      28.948 -23.404 -15.314  0.00  0.00    -0.022 C 
ATOM     14  C   UNL     1      30.577 -25.284 -14.050  0.00  0.00    +0.003 C 
ATOM     15  C   UNL     1      28.590 -24.753 -15.319  0.00  0.00    -0.004 C 
ATOM     16  C   UNL     1      29.404 -25.692 -14.687  0.00  0.00    -0.000 C 
ATOM     17  C   UNL     1      28.078 -22.400 -15.992  0.00  0.00    +0.031 C 
ENDBRANCH  10  11
ENDBRANCH   4  10
BRANCH   1  18
ATOM     18  C   UNL     1      33.907 -22.630 -18.086  0.00  0.00    +0.115 C 
BRANCH  18  19
ATOM     19  C   UNL     1      34.352 -21.654 -19.122  0.00  0.00    -0.003 C 
ATOM     20  C   UNL     1      33.410 -20.890 -19.811  0.00  0.00    -0.003 C 
ATOM     21  C   UNL     1      35.711 -21.506 -19.403  0.00  0.00    -0.003 C 
ATOM     22  C   UNL     1      35.184 -19.830 -21.061  0.00  0.00    +0.031 C 
ATOM     23  C   UNL     1      33.826 -19.979 -20.780  0.00  0.00    +0.002 C 
ATOM     24  C   UNL     1      36.126 -20.593 -20.373  0.00  0.00    +0.002 C 
BRANCH  22  27
ATOM     25  N   UNL     1      36.930 -18.416 -22.120  0.00  0.00    -0.343 N 
ATOM     26  N   UNL     1      34.753 -18.434 -22.969  0.00  0.00    -0.285 NA
ATOM     27  C   UNL     1      35.616 -18.879 -22.073  0.00  0.00    +0.117 C 
ATOM     28  H   UNL     1      37.201 -17.772 -22.813  0.00  0.00    +0.144 HD
ATOM     29  H   UNL     1      37.587 -18.734 -21.458  0.00  0.00    +0.144 HD
ATOM     30  H   UNL     1      35.043 -17.790 -23.655  0.00  0.00    +0.188 HD
ENDBRANCH  22  27
ENDBRANCH  18  19
ENDBRANCH   1  18
TORSDOF 5
ENDMDL
MODEL 3
REMARK VINA RESULT:     -11.7     10.142     14.960
REMARK  Name = 17758361
REMARK  5 active torsions:
REMARK  status: ('A' for Active; 'I' for Inactive)
REMARK    1  A    between atoms: N_1  and  C_18
REMARK    2  A    between atoms: C_4  and  C_10
REMARK    3  A    between atoms: C_10  and  C_11
REMARK    4  A    between atoms: C_18  and  C_19
REMARK    5  A    between atoms: C_22  and  C_27
REMARK                            x       y       z     vdW  Elec       q    Type
REMARK                         _______ _______ _______ _____ _____    ______ ____
ROOT
ATOM      1  N   UNL     1      31.983 -11.893 -20.525  0.00  0.00    -0.314 N 
ATOM      2  N   UNL     1      32.067  -9.939 -19.215  0.00  0.00    -0.229 NA
ATOM      3  C   UNL     1      31.971 -10.511 -20.436  0.00  0.00    +0.129 C 
ATOM      4  C   UNL     1      31.843  -8.412 -21.545  0.00  0.00    +0.043 C 
ATOM      5  C   UNL     1      31.858  -9.800 -21.620  0.00  0.00    +0.037 C 
ATOM      6  C   UNL     1      31.940  -7.786 -20.306  0.00  0.00    +0.024 C 
ATOM      7  C   UNL     1      32.049  -8.588 -19.182  0.00  0.00    +0.100 C 
ATOM      8  H   UNL     1      32.064 -12.412 -19.692  0.00  0.00    +0.149 HD
ENDROOT
BRANCH   4  10
ATOM      9  O   UNL     1      30.613  -7.397 -23.256  0.00  0.00    -0.287 OA
ATOM     10  C   UNL     1      31.726  -7.615 -22.757  0.00  0.00    +0.196 C 
BRANCH  10  11
ATOM     11  C   UNL     1      32.915  -7.031 -23.449  0.00  0.00    +0.039 C 
ATOM     12  C   UNL     1      32.741  -6.060 -24.435  0.00  0.00    -0.001 C 
ATOM     13  C   UNL     1      33.850  -5.515 -25.080  0.00  0.00    -0.022 C 
ATOM     14  C   UNL     1      34.198  -7.456 -23.107  0.00  0.00    +0.003 C 
ATOM     15  C   UNL     1      35.135  -5.940 -24.739  0.00  0.00    -0.004 C 
ATOM     16  C   UNL     1      35.308  -6.910 -23.752  0.00  0.00    -0.000 C 
ATOM     17  C   UNL     1      33.665  -4.474 -26.133  0.00  0.00    +0.031 C 
ENDBRANCH  10  11
ENDBRANCH   4  10
BRANCH   1  18
ATOM     18  C   UNL     1      31.885 -12.615 -21.775  0.00  0.00    +0.115 C 
BRANCH  18  19
ATOM     19  C   UNL     1      32.811 -13.786 -21.789  0.00  0.00    -0.003 C 
ATOM     20  C   UNL     1      33.406 -14.188 -22.984  0.00  0.00    -0.003 C 
ATOM     21  C   UNL     1      33.078 -14.478 -20.607  0.00  0.00    -0.003 C 
ATOM     22  C   UNL     1      34.538 -15.975 -21.818  0.00  0.00    +0.031 C 
ATOM     23  C   UNL     1      34.270 -15.283 -22.998  0.00  0.00    +0.002 C 
ATOM     24  C   UNL     1      33.942 -15.573 -20.622  0.00  0.00    +0.002 C 
BRANCH  22  27
ATOM     25  N   UNL     1      35.729 -17.828 -20.671  0.00  0.00    -0.343 N 
ATOM     26  N   UNL     1      36.001 -17.495 -22.968  0.00  0.00    -0.285 NA
ATOM     27  C   UNL     1      35.438 -17.117 -21.833  0.00  0.00    +0.117 C 
ATOM     28  H   UNL     1      36.342 -18.598 -20.704  0.00  0.00    +0.144 HD
ATOM     29  H   UNL     1      35.322 -17.560 -19.815  0.00  0.00    +0.144 HD
ATOM     30  H   UNL     1      36.611 -18.267 -22.981  0.00  0.00    +0.188 HD
ENDBRANCH  22  27
ENDBRANCH  18  19
ENDBRANCH   1  18
TORSDOF 5
ENDMDL
MODEL 4
REMARK VINA RESULT:     -11.4      5.689     10.837
REMARK  Name = 17758361
REMARK  5 active torsions:
REMARK  status: ('A' for Active; 'I' for Inactive)
REMARK    1  A    between atoms: N_1  and  C_18
REMARK    2  A    between atoms: C_4  and  C_10
REMARK    3  A    between atoms: C_10  and  C_11
REMARK    4  A    between atoms: C_18  and  C_19
REMARK    5  A    between atoms: C_22  and  C_27
REMARK                            x       y       z     vdW  Elec       q    Type
REMARK                         _______ _______ _______ _____ _____    ______ ____
ROOT
ATOM      1  N   UNL     1      35.654 -17.868 -23.304  0.00  0.00    -0.314 N 
ATOM      2  N   UNL     1      34.603 -17.099 -25.265  0.00  0.00    -0.229 NA
ATOM      3  C   UNL     1      34.992 -16.864 -23.992  0.00  0.00    +0.129 C 
ATOM      4  C   UNL     1      34.113 -14.656 -24.001  0.00  0.00    +0.043 C 
ATOM      5  C   UNL     1      34.774 -15.672 -23.321  0.00  0.00    +0.037 C 
ATOM      6  C   UNL     1      33.696 -14.859 -25.312  0.00  0.00    +0.024 C 
ATOM      7  C   UNL     1      33.964 -16.088 -25.894  0.00  0.00    +0.100 C 
ATOM      8  H   UNL     1      35.815 -18.721 -23.768  0.00  0.00    +0.149 HD
ENDROOT
BRANCH   4  10
ATOM      9  O   UNL     1      34.249 -12.325 -23.857  0.00  0.00    -0.287 OA
ATOM     10  C   UNL     1      33.857 -13.383 -23.344  0.00  0.00    +0.196 C 
BRANCH  10  11
ATOM     11  C   UNL     1      33.124 -13.285 -22.045  0.00  0.00    +0.039 C 
ATOM     12  C   UNL     1      32.469 -12.102 -21.701  0.00  0.00    -0.001 C 
ATOM     13  C   UNL     1      31.785 -12.012 -20.489  0.00  0.00    -0.022 C 
ATOM     14  C   UNL     1      33.094 -14.377 -21.178  0.00  0.00    +0.003 C 
ATOM     15  C   UNL     1      31.755 -13.104 -19.622  0.00  0.00    -0.004 C 
ATOM     16  C   UNL     1      32.409 -14.286 -19.967  0.00  0.00    -0.000 C 
ATOM     17  C   UNL     1      31.082 -10.749 -20.122  0.00  0.00    +0.031 C 
ENDBRANCH  10  11
ENDBRANCH   4  10
BRANCH   1  18
ATOM     18  C   UNL     1      36.118 -17.731 -21.941  0.00  0.00    +0.115 C 
BRANCH  18  19
ATOM     19  C   UNL     1      35.774 -18.939 -21.136  0.00  0.00    -0.003 C 
ATOM     20  C   UNL     1      34.442 -19.333 -21.005  0.00  0.00    -0.003 C 
ATOM     21  C   UNL     1      36.783 -19.673 -20.512  0.00  0.00    -0.003 C 
ATOM     22  C   UNL     1      35.129 -21.196 -19.629  0.00  0.00    +0.031 C 
ATOM     23  C   UNL     1      34.120 -20.461 -20.251  0.00  0.00    +0.002 C 
ATOM     24  C   UNL     1      36.460 -20.802 -19.759  0.00  0.00    +0.002 C 
BRANCH  22  27
ATOM     25  N   UNL     1      35.372 -22.603 -17.597  0.00  0.00    -0.343 N 
ATOM     26  N   UNL     1      33.921 -23.249 -19.312  0.00  0.00    -0.285 NA
ATOM     27  C   UNL     1      34.792 -22.372 -18.843  0.00  0.00    +0.117 C 
ATOM     28  H   UNL     1      35.129 -23.406 -17.082  0.00  0.00    +0.144 HD
ATOM     29  H   UNL     1      36.025 -21.963 -17.232  0.00  0.00    +0.144 HD
ATOM     30  H   UNL     1      33.691 -24.046 -18.782  0.00  0.00    +0.188 HD
ENDBRANCH  22  27
ENDBRANCH  18  19
ENDBRANCH   1  18
TORSDOF 5
ENDMDL
MODEL 5
REMARK VINA RESULT:     -11.3      5.273     10.587
REMARK  Name = 17758361
REMARK  5 active torsions:
REMARK  status: ('A' for Active; 'I' for Inactive)
REMARK    1  A    between atoms: N_1  and  C_18
REMARK    2  A    between atoms: C_4  and  C_10
REMARK    3  A    between atoms: C_10  and  C_11
REMARK    4  A    between atoms: C_18  and  C_19
REMARK    5  A    between atoms: C_22  and  C_27
REMARK                            x       y       z     vdW  Elec       q    Type
REMARK                         _______ _______ _______ _____ _____    ______ ____
ROOT
ATOM      1  N   UNL     1      36.316 -18.327 -22.718  0.00  0.00    -0.314 N 
ATOM      2  N   UNL     1      35.065 -17.068 -24.263  0.00  0.00    -0.229 NA
ATOM      3  C   UNL     1      35.484 -17.255 -22.992  0.00  0.00    +0.129 C 
ATOM      4  C   UNL     1      34.302 -15.353 -22.192  0.00  0.00    +0.043 C 
ATOM      5  C   UNL     1      35.135 -16.435 -21.931  0.00  0.00    +0.037 C 
ATOM      6  C   UNL     1      33.849 -15.128 -23.487  0.00  0.00    +0.024 C 
ATOM      7  C   UNL     1      34.256 -16.006 -24.479  0.00  0.00    +0.100 C 
ATOM      8  H   UNL     1      36.572 -18.919 -23.462  0.00  0.00    +0.149 HD
ENDROOT
BRANCH   4  10
ATOM      9  O   UNL     1      34.170 -14.743 -19.938  0.00  0.00    -0.287 OA
ATOM     10  C   UNL     1      33.904 -14.460 -21.115  0.00  0.00    +0.196 C 
BRANCH  10  11
ATOM     11  C   UNL     1      33.171 -13.182 -21.364  0.00  0.00    +0.039 C 
ATOM     12  C   UNL     1      32.249 -12.712 -20.429  0.00  0.00    -0.001 C 
ATOM     13  C   UNL     1      31.565 -11.519 -20.662  0.00  0.00    -0.022 C 
ATOM     14  C   UNL     1      33.411 -12.458 -22.532  0.00  0.00    +0.003 C 
ATOM     15  C   UNL     1      31.805 -10.794 -21.830  0.00  0.00    -0.004 C 
ATOM     16  C   UNL     1      32.728 -11.263 -22.764  0.00  0.00    -0.000 C 
ATOM     17  C   UNL     1      30.581 -11.015 -19.661  0.00  0.00    +0.031 C 
ENDBRANCH  10  11
ENDBRANCH   4  10
BRANCH   1  18
ATOM     18  C   UNL     1      36.828 -18.626 -21.399  0.00  0.00    +0.115 C 
BRANCH  18  19
ATOM     19  C   UNL     1      35.985 -19.652 -20.718  0.00  0.00    -0.003 C 
ATOM     20  C   UNL     1      36.582 -20.618 -19.909  0.00  0.00    -0.003 C 
ATOM     21  C   UNL     1      34.601 -19.646 -20.892  0.00  0.00    -0.003 C 
ATOM     22  C   UNL     1      34.411 -21.572 -19.447  0.00  0.00    +0.031 C 
ATOM     23  C   UNL     1      35.795 -21.578 -19.273  0.00  0.00    +0.002 C 
ATOM     24  C   UNL     1      33.815 -20.606 -20.257  0.00  0.00    +0.002 C 
BRANCH  22  27
ATOM     25  N   UNL     1      33.895 -23.931 -18.868  0.00  0.00    -0.343 N 
ATOM     26  N   UNL     1      32.532 -22.200 -18.088  0.00  0.00    -0.285 NA
ATOM     27  C   UNL     1      33.592 -22.573 -18.784  0.00  0.00    +0.117 C 
ATOM     28  H   UNL     1      33.327 -24.592 -18.411  0.00  0.00    +0.144 HD
ATOM     29  H   UNL     1      34.679 -24.229 -19.384  0.00  0.00    +0.144 HD
ATOM     30  H   UNL     1      31.976 -22.876 -17.638  0.00  0.00    +0.188 HD
ENDBRANCH  22  27
ENDBRANCH  18  19
ENDBRANCH   1  18
TORSDOF 5
ENDMDL
MODEL 6
REMARK VINA RESULT:     -11.3      3.651      9.050
REMARK  Name = 17758361
REMARK  5 active torsions:
REMARK  status: ('A' for Active; 'I' for Inactive)
REMARK    1  A    between atoms: N_1  and  C_18
REMARK    2  A    between atoms: C_4  and  C_10
REMARK    3  A    between atoms: C_10  and  C_11
REMARK    4  A    between atoms: C_18  and  C_19
REMARK    5  A    between atoms: C_22  and  C_27
REMARK                            x       y       z     vdW  Elec       q    Type
REMARK                         _______ _______ _______ _____ _____    ______ ____
ROOT
ATOM      1  N   UNL     1      34.712 -22.629 -17.682  0.00  0.00    -0.314 N 
ATOM      2  N   UNL     1      33.031 -21.903 -19.161  0.00  0.00    -0.229 NA
ATOM      3  C   UNL     1      34.311 -21.823 -18.734  0.00  0.00    +0.129 C 
ATOM      4  C   UNL     1      34.874 -20.166 -20.344  0.00  0.00    +0.043 C 
ATOM      5  C   UNL     1      35.263 -20.980 -19.286  0.00  0.00    +0.037 C 
ATOM      6  C   UNL     1      33.566 -20.219 -20.811  0.00  0.00    +0.024 C 
ATOM      7  C   UNL     1      32.691 -21.097 -20.192  0.00  0.00    +0.100 C 
ATOM      8  H   UNL     1      34.046 -23.233 -17.280  0.00  0.00    +0.149 HD
ENDROOT
BRANCH   4  10
ATOM      9  O   UNL     1      37.050 -19.465 -20.843  0.00  0.00    -0.287 OA
ATOM     10  C   UNL     1      35.833 -19.262 -20.960  0.00  0.00    +0.196 C 
BRANCH  10  11
ATOM     11  C   UNL     1      35.411 -18.066 -21.751  0.00  0.00    +0.039 C 
ATOM     12  C   UNL     1      35.038 -16.892 -21.095  0.00  0.00    -0.001 C 
ATOM     13  C   UNL     1      34.645 -15.776 -21.833  0.00  0.00    -0.022 C 
ATOM     14  C   UNL     1      35.391 -18.123 -23.144  0.00  0.00    +0.003 C 
ATOM     15  C   UNL     1      34.625 -15.833 -23.227  0.00  0.00    -0.004 C 
ATOM     16  C   UNL     1      34.998 -17.006 -23.882  0.00  0.00    -0.000 C 
ATOM     17  C   UNL     1      34.250 -14.520 -21.133  0.00  0.00    +0.031 C 
ENDBRANCH  10  11
ENDBRANCH   4  10
BRANCH   1  18
ATOM     18  C   UNL     1      36.054 -22.632 -17.142  0.00  0.00    +0.115 C 
BRANCH  18  19
ATOM     19  C   UNL     1      36.050 -23.038 -15.706  0.00  0.00    -0.003 C 
ATOM     20  C   UNL     1      37.185 -22.832 -14.922  0.00  0.00    -0.003 C 
ATOM     21  C   UNL     1      34.914 -23.625 -15.149  0.00  0.00    -0.003 C 
ATOM     22  C   UNL     1      36.047 -23.800 -13.023  0.00  0.00    +0.031 C 
ATOM     23  C   UNL     1      37.183 -23.213 -13.580  0.00  0.00    +0.002 C 
ATOM     24  C   UNL     1      34.913 -24.006 -13.808  0.00  0.00    +0.002 C 
BRANCH  22  27
ATOM     25  N   UNL     1      37.004 -23.716 -10.733  0.00  0.00    -0.343 N 
ATOM     26  N   UNL     1      35.125 -25.032 -11.178  0.00  0.00    -0.285 NA
ATOM     27  C   UNL     1      36.046 -24.196 -11.624  0.00  0.00    +0.117 C 
ATOM     28  H   UNL     1      36.985 -23.997  -9.790  0.00  0.00    +0.144 HD
ATOM     29  H   UNL     1      37.701 -23.094 -11.047  0.00  0.00    +0.144 HD
ATOM     30  H   UNL     1      35.122 -25.302 -10.231  0.00  0.00    +0.188 HD
ENDBRANCH  22  27
ENDBRANCH  18  19
ENDBRANCH   1  18
TORSDOF 5
ENDMDL
MODEL 7
REMARK VINA RESULT:     -11.2      6.032     11.865
REMARK  Name = 17758361
REMARK  5 active torsions:
REMARK  status: ('A' for Active; 'I' for Inactive)
REMARK    1  A    between atoms: N_1  and  C_18
REMARK    2  A    between atoms: C_4  and  C_10
REMARK    3  A    between atoms: C_10  and  C_11
REMARK    4  A    between atoms: C_18  and  C_19
REMARK    5  A    between atoms: C_22  and  C_27
REMARK                            x       y       z     vdW  Elec       q    Type
REMARK                         _______ _______ _______ _____ _____    ______ ____
ROOT
ATOM      1  N   UNL     1      35.808 -17.391 -23.338  0.00  0.00    -0.314 N 
ATOM      2  N   UNL     1      34.642 -16.563 -25.208  0.00  0.00    -0.229 NA
ATOM      3  C   UNL     1      34.954 -16.455 -23.897  0.00  0.00    +0.129 C 
ATOM      4  C   UNL     1      33.616 -14.510 -23.614  0.00  0.00    +0.043 C 
ATOM      5  C   UNL     1      34.473 -15.457 -23.065  0.00  0.00    +0.037 C 
ATOM      6  C   UNL     1      33.271 -14.588 -24.959  0.00  0.00    +0.024 C 
ATOM      7  C   UNL     1      33.807 -15.625 -25.707  0.00  0.00    +0.100 C 
ATOM      8  H   UNL     1      36.157 -18.106 -23.918  0.00  0.00    +0.149 HD
ENDROOT
BRANCH   4  10
ATOM      9  O   UNL     1      32.363 -13.703 -21.811  0.00  0.00    -0.287 OA
ATOM     10  C   UNL     1      33.082 -13.440 -22.785  0.00  0.00    +0.196 C 
BRANCH  10  11
ATOM     11  C   UNL     1      33.366 -11.998 -23.058  0.00  0.00    +0.039 C 
ATOM     12  C   UNL     1      34.390 -11.643 -23.937  0.00  0.00    -0.001 C 
ATOM     13  C   UNL     1      34.654 -10.298 -24.193  0.00  0.00    -0.022 C 
ATOM     14  C   UNL     1      32.606 -11.009 -22.437  0.00  0.00    +0.003 C 
ATOM     15  C   UNL     1      33.894  -9.308 -23.570  0.00  0.00    -0.004 C 
ATOM     16  C   UNL     1      32.870  -9.663 -22.693  0.00  0.00    -0.000 C 
ATOM     17  C   UNL     1      35.747  -9.918 -25.134  0.00  0.00    +0.031 C 
ENDBRANCH  10  11
ENDBRANCH   4  10
BRANCH   1  18
ATOM     18  C   UNL     1      36.213 -17.375 -21.950  0.00  0.00    +0.115 C 
BRANCH  18  19
ATOM     19  C   UNL     1      35.729 -18.594 -21.238  0.00  0.00    -0.003 C 
ATOM     20  C   UNL     1      34.360 -18.846 -21.141  0.00  0.00    -0.003 C 
ATOM     21  C   UNL     1      36.644 -19.480 -20.669  0.00  0.00    -0.003 C 
ATOM     22  C   UNL     1      34.821 -20.869 -19.906  0.00  0.00    +0.031 C 
ATOM     23  C   UNL     1      33.907 -19.984 -20.475  0.00  0.00    +0.002 C 
ATOM     24  C   UNL     1      36.189 -20.617 -20.003  0.00  0.00    +0.002 C 
BRANCH  22  27
ATOM     25  N   UNL     1      35.160 -22.744 -18.312  0.00  0.00    -0.343 N 
ATOM     26  N   UNL     1      33.123 -22.502 -19.432  0.00  0.00    -0.285 NA
ATOM     27  C   UNL     1      34.347 -22.056 -19.211  0.00  0.00    +0.117 C 
ATOM     28  H   UNL     1      34.819 -23.545 -17.852  0.00  0.00    +0.144 HD
ATOM     29  H   UNL     1      36.076 -22.429 -18.137  0.00  0.00    +0.144 HD
ATOM     30  H   UNL     1      32.799 -23.305 -18.962  0.00  0.00    +0.188 HD
ENDBRANCH  22  27
ENDBRANCH  18  19
ENDBRANCH   1  18
TORSDOF 5
ENDMDL
MODEL 8
REMARK VINA RESULT:     -11.1      2.918      5.212
REMARK  Name = 17758361
REMARK  5 active torsions:
REMARK  status: ('A' for Active; 'I' for Inactive)
REMARK    1  A    between atoms: N_1  and  C_18
REMARK    2  A    between atoms: C_4  and  C_10
REMARK    3  A    between atoms: C_10  and  C_11
REMARK    4  A    between atoms: C_18  and  C_19
REMARK    5  A    between atoms: C_22  and  C_27
REMARK                            x       y       z     vdW  Elec       q    Type
REMARK                         _______ _______ _______ _____ _____    ______ ____
ROOT
ATOM      1  N   UNL     1      36.339 -20.006 -20.370  0.00  0.00    -0.314 N 
ATOM      2  N   UNL     1      37.220 -20.705 -18.302  0.00  0.00    -0.229 NA
ATOM      3  C   UNL     1      36.236 -20.780 -19.226  0.00  0.00    +0.129 C 
ATOM      4  C   UNL     1      35.004 -22.375 -17.965  0.00  0.00    +0.043 C 
ATOM      5  C   UNL     1      35.119 -21.591 -19.107  0.00  0.00    +0.037 C 
ATOM      6  C   UNL     1      35.996 -22.325 -16.991  0.00  0.00    +0.024 C 
ATOM      7  C   UNL     1      37.074 -21.482 -17.206  0.00  0.00    +0.100 C 
ATOM      8  H   UNL     1      37.127 -19.424 -20.468  0.00  0.00    +0.149 HD
ENDROOT
BRANCH   4  10
ATOM      9  O   UNL     1      33.505 -24.016 -18.695  0.00  0.00    -0.287 OA
ATOM     10  C   UNL     1      33.852 -23.245 -17.789  0.00  0.00    +0.196 C 
BRANCH  10  11
ATOM     11  C   UNL     1      33.041 -23.255 -16.533  0.00  0.00    +0.039 C 
ATOM     12  C   UNL     1      31.678 -22.962 -16.580  0.00  0.00    -0.001 C 
ATOM     13  C   UNL     1      30.922 -22.973 -15.408  0.00  0.00    -0.022 C 
ATOM     14  C   UNL     1      33.648 -23.559 -15.315  0.00  0.00    +0.003 C 
ATOM     15  C   UNL     1      31.529 -23.277 -14.189  0.00  0.00    -0.004 C 
ATOM     16  C   UNL     1      32.891 -23.571 -14.143  0.00  0.00    -0.000 C 
ATOM     17  C   UNL     1      29.464 -22.663 -15.458  0.00  0.00    +0.031 C 
ENDBRANCH  10  11
ENDBRANCH   4  10
BRANCH   1  18
ATOM     18  C   UNL     1      35.351 -20.004 -21.426  0.00  0.00    +0.115 C 
BRANCH  18  19
ATOM     19  C   UNL     1      35.120 -18.622 -21.939  0.00  0.00    -0.003 C 
ATOM     20  C   UNL     1      34.997 -17.558 -21.045  0.00  0.00    -0.003 C 
ATOM     21  C   UNL     1      35.027 -18.393 -23.312  0.00  0.00    -0.003 C 
ATOM     22  C   UNL     1      34.686 -16.038 -22.897  0.00  0.00    +0.031 C 
ATOM     23  C   UNL     1      34.780 -16.267 -21.524  0.00  0.00    +0.002 C 
ATOM     24  C   UNL     1      34.810 -17.102 -23.791  0.00  0.00    +0.002 C 
BRANCH  22  27
ATOM     25  N   UNL     1      33.837 -14.466 -24.621  0.00  0.00    -0.343 N 
ATOM     26  N   UNL     1      34.853 -13.651 -22.680  0.00  0.00    -0.285 NA
ATOM     27  C   UNL     1      34.460 -14.691 -23.395  0.00  0.00    +0.117 C 
ATOM     28  H   UNL     1      33.694 -13.545 -24.939  0.00  0.00    +0.144 HD
ATOM     29  H   UNL     1      33.540 -15.228 -25.169  0.00  0.00    +0.144 HD
ATOM     30  H   UNL     1      34.700 -12.738 -23.015  0.00  0.00    +0.188 HD
ENDBRANCH  22  27
ENDBRANCH  18  19
ENDBRANCH   1  18
TORSDOF 5
ENDMDL
MODEL 9
REMARK VINA RESULT:     -11.1      3.761      6.968
REMARK  Name = 17758361
REMARK  5 active torsions:
REMARK  status: ('A' for Active; 'I' for Inactive)
REMARK    1  A    between atoms: N_1  and  C_18
REMARK    2  A    between atoms: C_4  and  C_10
REMARK    3  A    between atoms: C_10  and  C_11
REMARK    4  A    between atoms: C_18  and  C_19
REMARK    5  A    between atoms: C_22  and  C_27
REMARK                            x       y       z     vdW  Elec       q    Type
REMARK                         _______ _______ _______ _____ _____    ______ ____
ROOT
ATOM      1  N   UNL     1      34.390 -24.086 -12.660  0.00  0.00    -0.314 N 
ATOM      2  N   UNL     1      32.300 -25.127 -12.955  0.00  0.00    -0.229 NA
ATOM      3  C   UNL     1      33.226 -24.246 -13.393  0.00  0.00    +0.129 C 
ATOM      4  C   UNL     1      31.927 -23.633 -15.288  0.00  0.00    +0.043 C 
ATOM      5  C   UNL     1      33.090 -23.482 -14.541  0.00  0.00    +0.037 C 
ATOM      6  C   UNL     1      30.950 -24.531 -14.870  0.00  0.00    +0.024 C 
ATOM      7  C   UNL     1      31.183 -25.248 -13.707  0.00  0.00    +0.100 C 
ATOM      8  H   UNL     1      34.500 -24.622 -11.841  0.00  0.00    +0.149 HD
ENDROOT
BRANCH   4  10
ATOM      9  O   UNL     1      30.597 -22.485 -16.832  0.00  0.00    -0.287 OA
ATOM     10  C   UNL     1      31.732 -22.857 -16.502  0.00  0.00    +0.196 C 
BRANCH  10  11
ATOM     11  C   UNL     1      32.866 -22.475 -17.398  0.00  0.00    +0.039 C 
ATOM     12  C   UNL     1      32.635 -21.653 -18.503  0.00  0.00    -0.001 C 
ATOM     13  C   UNL     1      33.693 -21.296 -19.338  0.00  0.00    -0.022 C 
ATOM     14  C   UNL     1      34.153 -22.938 -17.130  0.00  0.00    +0.003 C 
ATOM     15  C   UNL     1      34.982 -21.759 -19.069  0.00  0.00    -0.004 C 
ATOM     16  C   UNL     1      35.211 -22.579 -17.965  0.00  0.00    -0.000 C 
ATOM     17  C   UNL     1      33.448 -20.416 -20.517  0.00  0.00    +0.031 C 
ENDBRANCH  10  11
ENDBRANCH   4  10
BRANCH   1  18
ATOM     18  C   UNL     1      35.451 -23.176 -13.030  0.00  0.00    +0.115 C 
BRANCH  18  19
ATOM     19  C   UNL     1      36.687 -23.921 -13.408  0.00  0.00    -0.003 C 
ATOM     20  C   UNL     1      37.385 -23.572 -14.564  0.00  0.00    -0.003 C 
ATOM     21  C   UNL     1      37.144 -24.967 -12.605  0.00  0.00    -0.003 C 
ATOM     22  C   UNL     1      38.997 -25.315 -14.116  0.00  0.00    +0.031 C 
ATOM     23  C   UNL     1      38.540 -24.270 -14.917  0.00  0.00    +0.002 C 
ATOM     24  C   UNL     1      38.298 -25.664 -12.960  0.00  0.00    +0.002 C 
BRANCH  22  27
ATOM     25  N   UNL     1      40.935 -26.758 -13.543  0.00  0.00    -0.343 N 
ATOM     26  N   UNL     1      40.619 -26.027 -15.739  0.00  0.00    -0.285 NA
ATOM     27  C   UNL     1      40.201 -26.042 -14.486  0.00  0.00    +0.117 C 
ATOM     28  H   UNL     1      41.747 -27.243 -13.815  0.00  0.00    +0.144 HD
ATOM     29  H   UNL     1      40.641 -26.779 -12.603  0.00  0.00    +0.144 HD
ATOM     30  H   UNL     1      41.434 -26.518 -15.993  0.00  0.00    +0.188 HD
ENDBRANCH  22  27
ENDBRANCH  18  19
ENDBRANCH   1  18
TORSDOF 5
ENDMDL
