MODEL 1
REMARK VINA RESULT:     -11.3      0.000      0.000
REMARK  Name = 52913524
REMARK  9 active torsions:
REMARK  status: ('A' for Active; 'I' for Inactive)
REMARK    1  A    between atoms: C_1  and  C_10
REMARK    2  A    between atoms: C_4  and  C_24
REMARK    3  A    between atoms: C_5  and  C_22
REMARK    4  A    between atoms: C_8  and  O_13
REMARK    5  A    between atoms: C_9  and  O_15
REMARK    6  A    between atoms: C_11  and  O_17
REMARK    7  A    between atoms: C_12  and  C_19
REMARK    8  A    between atoms: C_19  and  O_20
REMARK    9  A    between atoms: C_24  and  C_27
REMARK                            x       y       z     vdW  Elec       q    Type
REMARK                         _______ _______ _______ _____ _____    ______ ____
ROOT
ATOM      1  C   UNL     1      34.214 -24.054 -14.362  0.00  0.00    +0.007 C 
ATOM      2  C   UNL     1      34.089 -23.929 -15.746  0.00  0.00    -0.006 C 
ATOM      3  C   UNL     1      33.165 -23.668 -13.529  0.00  0.00    -0.002 C 
ATOM      4  C   UNL     1      32.913 -23.416 -16.296  0.00  0.00    -0.022 C 
ATOM      5  C   UNL     1      31.864 -23.030 -15.461  0.00  0.00    -0.026 C 
ATOM      6  C   UNL     1      31.990 -23.155 -14.078  0.00  0.00    -0.005 C 
ENDROOT
BRANCH   1  10
ATOM      7  O   UNL     1      36.203 -23.524 -13.167  0.00  0.00    -0.347 OA
ATOM      8  C   UNL     1      36.358 -25.318 -14.819  0.00  0.00    +0.171 C 
ATOM      9  C   UNL     1      37.710 -25.731 -14.230  0.00  0.00    +0.169 C 
ATOM     10  C   UNL     1      35.491 -24.612 -13.765  0.00  0.00    +0.167 C 
ATOM     11  C   UNL     1      38.366 -24.573 -13.479  0.00  0.00    +0.169 C 
ATOM     12  C   UNL     1      37.386 -23.944 -12.486  0.00  0.00    +0.174 C 
BRANCH   8  13
ATOM     13  O   UNL     1      35.672 -26.485 -15.269  0.00  0.00    -0.379 OA
ATOM     14  H   UNL     1      36.111 -27.276 -14.917  0.00  0.00    +0.211 HD
ENDBRANCH   8  13
BRANCH   9  15
ATOM     15  O   UNL     1      38.588 -26.125 -15.286  0.00  0.00    -0.379 OA
ATOM     16  H   UNL     1      39.467 -25.745 -15.134  0.00  0.00    +0.211 HD
ENDBRANCH   9  15
BRANCH  11  17
ATOM     17  O   UNL     1      39.505 -25.055 -12.772  0.00  0.00    -0.379 OA
ATOM     18  H   UNL     1      39.295 -25.122 -11.827  0.00  0.00    +0.211 HD
ENDBRANCH  11  17
BRANCH  12  19
ATOM     19  C   UNL     1      37.982 -22.716 -11.805  0.00  0.00    +0.169 C 
BRANCH  19  20
ATOM     20  O   UNL     1      37.328 -22.528 -10.564  0.00  0.00    -0.379 OA
ATOM     21  H   UNL     1      37.475 -23.304 -10.000  0.00  0.00    +0.211 HD
ENDBRANCH  19  20
ENDBRANCH  12  19
ENDBRANCH   1  10
BRANCH   5  22
ATOM     22  C   UNL     1      30.597 -22.478 -16.027  0.00  0.00    +0.026 C 
ATOM     23  C   UNL     1      29.390 -22.779 -15.144  0.00  0.00    +0.005 C 
ENDBRANCH   5  22
BRANCH   4  24
ATOM     24  C   UNL     1      32.802 -23.291 -17.780  0.00  0.00    +0.052 C 
BRANCH  24  27
ATOM     25  O   UNL     1      34.140 -19.906 -21.026  0.00  0.00    -0.468 OA
ATOM     26  O   UNL     1      36.849 -20.023 -20.044  0.00  0.00    -0.468 OA
ATOM     27  C   UNL     1      33.872 -22.419 -18.403  0.00  0.00    -0.015 C 
ATOM     28  C   UNL     1      33.538 -21.536 -19.430  0.00  0.00    +0.036 C 
ATOM     29  C   UNL     1      35.190 -22.504 -17.954  0.00  0.00    -0.001 C 
ATOM     30  C   UNL     1      34.526 -20.739 -20.008  0.00  0.00    +0.172 C 
ATOM     31  C   UNL     1      35.840 -20.804 -19.540  0.00  0.00    +0.172 C 
ATOM     32  C   UNL     1      36.176 -21.697 -18.523  0.00  0.00    +0.040 C 
ATOM     33  C   UNL     1      35.262 -19.408 -21.762  0.00  0.00    +0.253 C 
ATOM     34  C   UNL     1      36.342 -18.929 -20.812  0.00  0.00    +0.253 C 
ENDBRANCH  24  27
ENDBRANCH   4  24
TORSDOF 9
ENDMDL
MODEL 2
REMARK VINA RESULT:     -11.1      0.948      2.363
REMARK  Name = 52913524
REMARK  9 active torsions:
REMARK  status: ('A' for Active; 'I' for Inactive)
REMARK    1  A    between atoms: C_1  and  C_10
REMARK    2  A    between atoms: C_4  and  C_24
REMARK    3  A    between atoms: C_5  and  C_22
REMARK    4  A    between atoms: C_8  and  O_13
REMARK    5  A    between atoms: C_9  and  O_15
REMARK    6  A    between atoms: C_11  and  O_17
REMARK    7  A    between atoms: C_12  and  C_19
REMARK    8  A    between atoms: C_19  and  O_20
REMARK    9  A    between atoms: C_24  and  C_27
REMARK                            x       y       z     vdW  Elec       q    Type
REMARK                         _______ _______ _______ _____ _____    ______ ____
ROOT
ATOM      1  C   UNL     1      34.505 -23.868 -14.597  0.00  0.00    +0.007 C 
ATOM      2  C   UNL     1      34.206 -23.565 -15.925  0.00  0.00    -0.006 C 
ATOM      3  C   UNL     1      33.502 -23.824 -13.628  0.00  0.00    -0.002 C 
ATOM      4  C   UNL     1      32.903 -23.217 -16.285  0.00  0.00    -0.022 C 
ATOM      5  C   UNL     1      31.901 -23.172 -15.315  0.00  0.00    -0.026 C 
ATOM      6  C   UNL     1      32.200 -23.475 -13.988  0.00  0.00    -0.005 C 
ENDROOT
BRANCH   1  10
ATOM      7  O   UNL     1      36.137 -25.600 -14.622  0.00  0.00    -0.347 OA
ATOM      8  C   UNL     1      36.160 -24.094 -12.697  0.00  0.00    +0.171 C 
ATOM      9  C   UNL     1      37.539 -24.633 -12.304  0.00  0.00    +0.169 C 
ATOM     10  C   UNL     1      35.920 -24.248 -14.207  0.00  0.00    +0.167 C 
ATOM     11  C   UNL     1      37.780 -26.024 -12.890  0.00  0.00    +0.169 C 
ATOM     12  C   UNL     1      37.475 -26.042 -14.389  0.00  0.00    +0.174 C 
BRANCH   8  13
ATOM     13  O   UNL     1      36.091 -22.709 -12.361  0.00  0.00    -0.379 OA
ATOM     14  H   UNL     1      35.170 -22.466 -12.174  0.00  0.00    +0.211 HD
ENDBRANCH   8  13
BRANCH   9  15
ATOM     15  O   UNL     1      37.622 -24.733 -10.881  0.00  0.00    -0.379 OA
ATOM     16  H   UNL     1      37.570 -23.846 -10.491  0.00  0.00    +0.211 HD
ENDBRANCH   9  15
BRANCH  11  17
ATOM     17  O   UNL     1      39.141 -26.392 -12.683  0.00  0.00    -0.379 OA
ATOM     18  H   UNL     1      39.194 -27.346 -12.510  0.00  0.00    +0.211 HD
ENDBRANCH  11  17
BRANCH  12  19
ATOM     19  C   UNL     1      37.601 -27.446 -14.974  0.00  0.00    +0.169 C 
BRANCH  19  20
ATOM     20  O   UNL     1      36.849 -27.503 -16.172  0.00  0.00    -0.379 OA
ATOM     21  H   UNL     1      37.351 -27.082 -16.889  0.00  0.00    +0.211 HD
ENDBRANCH  19  20
ENDBRANCH  12  19
ENDBRANCH   1  10
BRANCH   5  22
ATOM     22  C   UNL     1      30.500 -22.801 -15.676  0.00  0.00    +0.026 C 
ATOM     23  C   UNL     1      29.473 -23.741 -15.052  0.00  0.00    +0.005 C 
ENDBRANCH   5  22
BRANCH   4  24
ATOM     24  C   UNL     1      32.607 -22.896 -17.713  0.00  0.00    +0.052 C 
BRANCH  24  27
ATOM     25  O   UNL     1      34.095 -19.729 -21.111  0.00  0.00    -0.468 OA
ATOM     26  O   UNL     1      36.831 -20.120 -20.289  0.00  0.00    -0.468 OA
ATOM     27  C   UNL     1      33.723 -22.154 -18.419  0.00  0.00    -0.015 C 
ATOM     28  C   UNL     1      33.422 -21.258 -19.444  0.00  0.00    +0.036 C 
ATOM     29  C   UNL     1      35.050 -22.373 -18.047  0.00  0.00    -0.001 C 
ATOM     30  C   UNL     1      34.452 -20.581 -20.098  0.00  0.00    +0.172 C 
ATOM     31  C   UNL     1      35.778 -20.779 -19.707  0.00  0.00    +0.172 C 
ATOM     32  C   UNL     1      36.079 -21.686 -18.691  0.00  0.00    +0.040 C 
ATOM     33  C   UNL     1      35.215 -19.368 -21.923  0.00  0.00    +0.253 C 
ATOM     34  C   UNL     1      36.396 -18.991 -21.051  0.00  0.00    +0.253 C 
ENDBRANCH  24  27
ENDBRANCH   4  24
TORSDOF 9
ENDMDL
MODEL 3
REMARK VINA RESULT:     -10.6      3.347      7.588
REMARK  Name = 52913524
REMARK  9 active torsions:
REMARK  status: ('A' for Active; 'I' for Inactive)
REMARK    1  A    between atoms: C_1  and  C_10
REMARK    2  A    between atoms: C_4  and  C_24
REMARK    3  A    between atoms: C_5  and  C_22
REMARK    4  A    between atoms: C_8  and  O_13
REMARK    5  A    between atoms: C_9  and  O_15
REMARK    6  A    between atoms: C_11  and  O_17
REMARK    7  A    between atoms: C_12  and  C_19
REMARK    8  A    between atoms: C_19  and  O_20
REMARK    9  A    between atoms: C_24  and  C_27
REMARK                            x       y       z     vdW  Elec       q    Type
REMARK                         _______ _______ _______ _____ _____    ______ ____
ROOT
ATOM      1  C   UNL     1      35.639 -22.153 -17.696  0.00  0.00    +0.007 C 
ATOM      2  C   UNL     1      34.736 -22.966 -17.012  0.00  0.00    -0.006 C 
ATOM      3  C   UNL     1      36.844 -21.789 -17.096  0.00  0.00    -0.002 C 
ATOM      4  C   UNL     1      35.037 -23.414 -15.726  0.00  0.00    -0.022 C 
ATOM      5  C   UNL     1      36.242 -23.049 -15.124  0.00  0.00    -0.026 C 
ATOM      6  C   UNL     1      37.145 -22.237 -15.809  0.00  0.00    -0.005 C 
ENDROOT
BRANCH   1  10
ATOM      7  O   UNL     1      36.148 -20.539 -19.370  0.00  0.00    -0.347 OA
ATOM      8  C   UNL     1      33.828 -21.298 -19.242  0.00  0.00    +0.171 C 
ATOM      9  C   UNL     1      33.555 -20.660 -20.608  0.00  0.00    +0.169 C 
ATOM     10  C   UNL     1      35.312 -21.668 -19.095  0.00  0.00    +0.167 C 
ATOM     11  C   UNL     1      34.563 -19.554 -20.917  0.00  0.00    +0.169 C 
ATOM     12  C   UNL     1      35.995 -20.048 -20.702  0.00  0.00    +0.174 C 
BRANCH   8  13
ATOM     13  O   UNL     1      33.046 -22.484 -19.119  0.00  0.00    -0.379 OA
ATOM     14  H   UNL     1      32.316 -22.459 -19.756  0.00  0.00    +0.211 HD
ENDBRANCH   8  13
BRANCH   9  15
ATOM     15  O   UNL     1      32.249 -20.081 -20.609  0.00  0.00    -0.379 OA
ATOM     16  H   UNL     1      31.643 -20.652 -21.106  0.00  0.00    +0.211 HD
ENDBRANCH   9  15
BRANCH  11  17
ATOM     17  O   UNL     1      34.407 -19.141 -22.272  0.00  0.00    -0.379 OA
ATOM     18  H   UNL     1      33.692 -18.487 -22.331  0.00  0.00    +0.211 HD
ENDBRANCH  11  17
BRANCH  12  19
ATOM     19  C   UNL     1      37.014 -18.929 -20.897  0.00  0.00    +0.169 C 
BRANCH  19  20
ATOM     20  O   UNL     1      37.114 -18.647 -22.280  0.00  0.00    -0.379 OA
ATOM     21  H   UNL     1      36.703 -19.365 -22.787  0.00  0.00    +0.211 HD
ENDBRANCH  19  20
ENDBRANCH  12  19
ENDBRANCH   1  10
BRANCH   5  22
ATOM     22  C   UNL     1      36.586 -23.515 -13.748  0.00  0.00    +0.026 C 
ATOM     23  C   UNL     1      37.673 -24.586 -13.754  0.00  0.00    +0.005 C 
ENDBRANCH   5  22
BRANCH   4  24
ATOM     24  C   UNL     1      34.054 -24.283 -15.012  0.00  0.00    +0.052 C 
BRANCH  24  27
ATOM     25  O   UNL     1      29.541 -23.784 -16.793  0.00  0.00    -0.468 OA
ATOM     26  O   UNL     1      28.853 -22.056 -14.590  0.00  0.00    -0.468 OA
ATOM     27  C   UNL     1      32.664 -23.689 -14.921  0.00  0.00    -0.015 C 
ATOM     28  C   UNL     1      31.708 -24.005 -15.886  0.00  0.00    +0.036 C 
ATOM     29  C   UNL     1      32.342 -22.821 -13.876  0.00  0.00    -0.001 C 
ATOM     30  C   UNL     1      30.430 -23.452 -15.804  0.00  0.00    +0.172 C 
ATOM     31  C   UNL     1      30.100 -22.606 -14.744  0.00  0.00    +0.172 C 
ATOM     32  C   UNL     1      31.061 -22.278 -13.787  0.00  0.00    +0.040 C 
ATOM     33  C   UNL     1      28.409 -22.911 -16.808  0.00  0.00    +0.253 C 
ATOM     34  C   UNL     1      27.878 -22.716 -15.402  0.00  0.00    +0.253 C 
ENDBRANCH  24  27
ENDBRANCH   4  24
TORSDOF 9
ENDMDL
MODEL 4
REMARK VINA RESULT:     -10.3      2.678      7.122
REMARK  Name = 52913524
REMARK  9 active torsions:
REMARK  status: ('A' for Active; 'I' for Inactive)
REMARK    1  A    between atoms: C_1  and  C_10
REMARK    2  A    between atoms: C_4  and  C_24
REMARK    3  A    between atoms: C_5  and  C_22
REMARK    4  A    between atoms: C_8  and  O_13
REMARK    5  A    between atoms: C_9  and  O_15
REMARK    6  A    between atoms: C_11  and  O_17
REMARK    7  A    between atoms: C_12  and  C_19
REMARK    8  A    between atoms: C_19  and  O_20
REMARK    9  A    between atoms: C_24  and  C_27
REMARK                            x       y       z     vdW  Elec       q    Type
REMARK                         _______ _______ _______ _____ _____    ______ ____
ROOT
ATOM      1  C   UNL     1      33.706 -22.929 -17.212  0.00  0.00    +0.007 C 
ATOM      2  C   UNL     1      34.981 -22.744 -16.677  0.00  0.00    -0.006 C 
ATOM      3  C   UNL     1      33.416 -22.469 -18.497  0.00  0.00    -0.002 C 
ATOM      4  C   UNL     1      35.965 -22.098 -17.426  0.00  0.00    -0.022 C 
ATOM      5  C   UNL     1      35.674 -21.638 -18.710  0.00  0.00    -0.026 C 
ATOM      6  C   UNL     1      34.400 -21.823 -19.246  0.00  0.00    -0.005 C 
ENDROOT
BRANCH   1  10
ATOM      7  O   UNL     1      31.416 -22.905 -16.565  0.00  0.00    -0.347 OA
ATOM      8  C   UNL     1      33.017 -23.731 -14.914  0.00  0.00    +0.171 C 
ATOM      9  C   UNL     1      31.859 -24.297 -14.088  0.00  0.00    +0.169 C 
ATOM     10  C   UNL     1      32.637 -23.632 -16.399  0.00  0.00    +0.167 C 
ATOM     11  C   UNL     1      30.547 -23.580 -14.405  0.00  0.00    +0.169 C 
ATOM     12  C   UNL     1      30.307 -23.528 -15.915  0.00  0.00    +0.174 C 
BRANCH   8  13
ATOM     13  O   UNL     1      34.145 -24.596 -14.786  0.00  0.00    -0.379 OA
ATOM     14  H   UNL     1      33.866 -25.437 -14.392  0.00  0.00    +0.211 HD
ENDBRANCH   8  13
BRANCH   9  15
ATOM     15  O   UNL     1      32.134 -24.118 -12.697  0.00  0.00    -0.379 OA
ATOM     16  H   UNL     1      31.969 -23.194 -12.452  0.00  0.00    +0.211 HD
ENDBRANCH   9  15
BRANCH  11  17
ATOM     17  O   UNL     1      29.469 -24.274 -13.783  0.00  0.00    -0.379 OA
ATOM     18  H   UNL     1      29.185 -23.787 -12.992  0.00  0.00    +0.211 HD
ENDBRANCH  11  17
BRANCH  12  19
ATOM     19  C   UNL     1      29.061 -22.721 -16.263  0.00  0.00    +0.169 C 
BRANCH  19  20
ATOM     20  O   UNL     1      28.621 -22.047 -15.098  0.00  0.00    -0.379 OA
ATOM     21  H   UNL     1      28.254 -21.183 -15.343  0.00  0.00    +0.211 HD
ENDBRANCH  19  20
ENDBRANCH  12  19
ENDBRANCH   1  10
BRANCH   5  22
ATOM     22  C   UNL     1      36.710 -20.943 -19.530  0.00  0.00    +0.026 C 
ATOM     23  C   UNL     1      36.097 -20.023 -20.581  0.00  0.00    +0.005 C 
ENDBRANCH   5  22
BRANCH   4  24
ATOM     24  C   UNL     1      37.322 -21.911 -16.831  0.00  0.00    +0.052 C 
BRANCH  24  27
ATOM     25  O   UNL     1      36.356 -23.132 -12.209  0.00  0.00    -0.468 OA
ATOM     26  O   UNL     1      38.331 -25.228 -12.341  0.00  0.00    -0.468 OA
ATOM     27  C   UNL     1      37.585 -22.780 -15.619  0.00  0.00    -0.015 C 
ATOM     28  C   UNL     1      36.849 -22.587 -14.451  0.00  0.00    +0.036 C 
ATOM     29  C   UNL     1      38.569 -23.769 -15.670  0.00  0.00    -0.001 C 
ATOM     30  C   UNL     1      37.098 -23.384 -13.333  0.00  0.00    +0.172 C 
ATOM     31  C   UNL     1      38.063 -24.392 -13.394  0.00  0.00    +0.172 C 
ATOM     32  C   UNL     1      38.809 -24.575 -14.558  0.00  0.00    +0.040 C 
ATOM     33  C   UNL     1      36.919 -23.751 -11.049  0.00  0.00    +0.253 C 
ATOM     34  C   UNL     1      37.300 -25.186 -11.352  0.00  0.00    +0.253 C 
ENDBRANCH  24  27
ENDBRANCH   4  24
TORSDOF 9
ENDMDL
MODEL 5
REMARK VINA RESULT:     -10.0      2.886      7.100
REMARK  Name = 52913524
REMARK  9 active torsions:
REMARK  status: ('A' for Active; 'I' for Inactive)
REMARK    1  A    between atoms: C_1  and  C_10
REMARK    2  A    between atoms: C_4  and  C_24
REMARK    3  A    between atoms: C_5  and  C_22
REMARK    4  A    between atoms: C_8  and  O_13
REMARK    5  A    between atoms: C_9  and  O_15
REMARK    6  A    between atoms: C_11  and  O_17
REMARK    7  A    between atoms: C_12  and  C_19
REMARK    8  A    between atoms: C_19  and  O_20
REMARK    9  A    between atoms: C_24  and  C_27
REMARK                            x       y       z     vdW  Elec       q    Type
REMARK                         _______ _______ _______ _____ _____    ______ ____
ROOT
ATOM      1  C   UNL     1      34.842 -23.069 -16.371  0.00  0.00    +0.007 C 
ATOM      2  C   UNL     1      33.676 -23.194 -15.615  0.00  0.00    -0.006 C 
ATOM      3  C   UNL     1      36.083 -23.321 -15.788  0.00  0.00    -0.002 C 
ATOM      4  C   UNL     1      33.753 -23.571 -14.274  0.00  0.00    -0.022 C 
ATOM      5  C   UNL     1      34.995 -23.823 -13.690  0.00  0.00    -0.026 C 
ATOM      6  C   UNL     1      36.160 -23.698 -14.447  0.00  0.00    -0.005 C 
ENDROOT
BRANCH   1  10
ATOM      7  O   UNL     1      35.899 -21.847 -18.118  0.00  0.00    -0.347 OA
ATOM      8  C   UNL     1      33.456 -21.907 -18.141  0.00  0.00    +0.171 C 
ATOM      9  C   UNL     1      33.466 -21.365 -19.574  0.00  0.00    +0.169 C 
ATOM     10  C   UNL     1      34.758 -22.660 -17.829  0.00  0.00    +0.167 C 
ATOM     11  C   UNL     1      34.767 -20.625 -19.880  0.00  0.00    +0.169 C 
ATOM     12  C   UNL     1      35.979 -21.475 -19.495  0.00  0.00    +0.174 C 
BRANCH   8  13
ATOM     13  O   UNL     1      32.359 -22.806 -17.992  0.00  0.00    -0.379 OA
ATOM     14  H   UNL     1      32.625 -23.552 -17.432  0.00  0.00    +0.211 HD
ENDBRANCH   8  13
BRANCH   9  15
ATOM     15  O   UNL     1      32.385 -20.446 -19.741  0.00  0.00    -0.379 OA
ATOM     16  H   UNL     1      32.175 -20.363 -20.685  0.00  0.00    +0.211 HD
ENDBRANCH   9  15
BRANCH  11  17
ATOM     17  O   UNL     1      34.824 -20.329 -21.273  0.00  0.00    -0.379 OA
ATOM     18  H   UNL     1      35.565 -19.727 -21.445  0.00  0.00    +0.211 HD
ENDBRANCH  11  17
BRANCH  12  19
ATOM     19  C   UNL     1      37.288 -20.713 -19.687  0.00  0.00    +0.169 C 
BRANCH  19  20
ATOM     20  O   UNL     1      36.984 -19.363 -19.984  0.00  0.00    -0.379 OA
ATOM     21  H   UNL     1      36.326 -19.034 -19.352  0.00  0.00    +0.211 HD
ENDBRANCH  19  20
ENDBRANCH  12  19
ENDBRANCH   1  10
BRANCH   5  22
ATOM     22  C   UNL     1      35.102 -24.227 -12.256  0.00  0.00    +0.026 C 
ATOM     23  C   UNL     1      36.201 -23.466 -11.521  0.00  0.00    +0.005 C 
ENDBRANCH   5  22
BRANCH   4  24
ATOM     24  C   UNL     1      32.492 -23.697 -13.483  0.00  0.00    +0.052 C 
BRANCH  24  27
ATOM     25  O   UNL     1      28.702 -21.883 -15.959  0.00  0.00    -0.468 OA
ATOM     26  O   UNL     1      27.892 -24.551 -16.691  0.00  0.00    -0.468 OA
ATOM     27  C   UNL     1      31.255 -23.907 -14.332  0.00  0.00    -0.015 C 
ATOM     28  C   UNL     1      30.528 -22.807 -14.785  0.00  0.00    +0.036 C 
ATOM     29  C   UNL     1      30.841 -25.200 -14.654  0.00  0.00    -0.001 C 
ATOM     30  C   UNL     1      29.385 -23.002 -15.560  0.00  0.00    +0.172 C 
ATOM     31  C   UNL     1      28.986 -24.295 -15.906  0.00  0.00    +0.172 C 
ATOM     32  C   UNL     1      29.706 -25.396 -15.440  0.00  0.00    +0.040 C 
ATOM     33  C   UNL     1      27.391 -22.200 -16.435  0.00  0.00    +0.253 C 
ATOM     34  C   UNL     1      27.448 -23.381 -17.382  0.00  0.00    +0.253 C 
ENDBRANCH  24  27
ENDBRANCH   4  24
TORSDOF 9
ENDMDL
MODEL 6
REMARK VINA RESULT:      -9.9     11.596     17.049
REMARK  Name = 52913524
REMARK  9 active torsions:
REMARK  status: ('A' for Active; 'I' for Inactive)
REMARK    1  A    between atoms: C_1  and  C_10
REMARK    2  A    between atoms: C_4  and  C_24
REMARK    3  A    between atoms: C_5  and  C_22
REMARK    4  A    between atoms: C_8  and  O_13
REMARK    5  A    between atoms: C_9  and  O_15
REMARK    6  A    between atoms: C_11  and  O_17
REMARK    7  A    between atoms: C_12  and  C_19
REMARK    8  A    between atoms: C_19  and  O_20
REMARK    9  A    between atoms: C_24  and  C_27
REMARK                            x       y       z     vdW  Elec       q    Type
REMARK                         _______ _______ _______ _____ _____    ______ ____
ROOT
ATOM      1  C   UNL     1      31.875  -7.432 -22.109  0.00  0.00    +0.007 C 
ATOM      2  C   UNL     1      31.418  -8.734 -22.316  0.00  0.00    -0.006 C 
ATOM      3  C   UNL     1      32.490  -7.091 -20.905  0.00  0.00    -0.002 C 
ATOM      4  C   UNL     1      31.575  -9.694 -21.316  0.00  0.00    -0.022 C 
ATOM      5  C   UNL     1      32.190  -9.352 -20.111  0.00  0.00    -0.026 C 
ATOM      6  C   UNL     1      32.647  -8.051 -19.905  0.00  0.00    -0.005 C 
ENDROOT
BRANCH   1  10
ATOM      7  O   UNL     1      32.949  -6.284 -23.896  0.00  0.00    -0.347 OA
ATOM      8  C   UNL     1      31.283  -5.027 -22.624  0.00  0.00    +0.171 C 
ATOM      9  C   UNL     1      31.274  -3.953 -23.716  0.00  0.00    +0.169 C 
ATOM     10  C   UNL     1      31.705  -6.389 -23.196  0.00  0.00    +0.167 C 
ATOM     11  C   UNL     1      32.568  -3.974 -24.528  0.00  0.00    +0.169 C 
ATOM     12  C   UNL     1      32.884  -5.391 -25.010  0.00  0.00    +0.174 C 
BRANCH   8  13
ATOM     13  O   UNL     1      29.969  -5.146 -22.080  0.00  0.00    -0.379 OA
ATOM     14  H   UNL     1      29.513  -4.293 -22.143  0.00  0.00    +0.211 HD
ENDBRANCH   8  13
BRANCH   9  15
ATOM     15  O   UNL     1      31.153  -2.663 -23.113  0.00  0.00    -0.379 OA
ATOM     16  H   UNL     1      30.239  -2.531 -22.814  0.00  0.00    +0.211 HD
ENDBRANCH   9  15
BRANCH  11  17
ATOM     17  O   UNL     1      32.430  -3.115 -25.657  0.00  0.00    -0.379 OA
ATOM     18  H   UNL     1      33.185  -3.241 -26.253  0.00  0.00    +0.211 HD
ENDBRANCH  11  17
BRANCH  12  19
ATOM     19  C   UNL     1      34.228  -5.458 -25.728  0.00  0.00    +0.169 C 
BRANCH  19  20
ATOM     20  O   UNL     1      35.226  -5.804 -24.785  0.00  0.00    -0.379 OA
ATOM     21  H   UNL     1      34.990  -6.642 -24.358  0.00  0.00    +0.211 HD
ENDBRANCH  19  20
ENDBRANCH  12  19
ENDBRANCH   1  10
BRANCH   5  22
ATOM     22  C   UNL     1      32.368 -10.363 -19.026  0.00  0.00    +0.026 C 
ATOM     23  C   UNL     1      31.039 -10.813 -18.430  0.00  0.00    +0.005 C 
ENDBRANCH   5  22
BRANCH   4  24
ATOM     24  C   UNL     1      31.077 -11.081 -21.559  0.00  0.00    +0.052 C 
BRANCH  24  27
ATOM     25  O   UNL     1      33.382 -15.319 -20.839  0.00  0.00    -0.468 OA
ATOM     26  O   UNL     1      35.147 -14.743 -23.045  0.00  0.00    -0.468 OA
ATOM     27  C   UNL     1      32.165 -12.066 -21.935  0.00  0.00    -0.015 C 
ATOM     28  C   UNL     1      32.290 -13.265 -21.234  0.00  0.00    +0.036 C 
ATOM     29  C   UNL     1      33.044 -11.770 -22.978  0.00  0.00    -0.001 C 
ATOM     30  C   UNL     1      33.297 -14.167 -21.578  0.00  0.00    +0.172 C 
ATOM     31  C   UNL     1      34.159 -13.883 -22.639  0.00  0.00    +0.172 C 
ATOM     32  C   UNL     1      34.043 -12.677 -23.330  0.00  0.00    +0.040 C 
ATOM     33  C   UNL     1      34.630 -15.989 -21.039  0.00  0.00    +0.253 C 
ATOM     34  C   UNL     1      34.958 -16.058 -22.517  0.00  0.00    +0.253 C 
ENDBRANCH  24  27
ENDBRANCH   4  24
TORSDOF 9
ENDMDL
MODEL 7
REMARK VINA RESULT:      -9.7     10.409     14.108
REMARK  Name = 52913524
REMARK  9 active torsions:
REMARK  status: ('A' for Active; 'I' for Inactive)
REMARK    1  A    between atoms: C_1  and  C_10
REMARK    2  A    between atoms: C_4  and  C_24
REMARK    3  A    between atoms: C_5  and  C_22
REMARK    4  A    between atoms: C_8  and  O_13
REMARK    5  A    between atoms: C_9  and  O_15
REMARK    6  A    between atoms: C_11  and  O_17
REMARK    7  A    between atoms: C_12  and  C_19
REMARK    8  A    between atoms: C_19  and  O_20
REMARK    9  A    between atoms: C_24  and  C_27
REMARK                            x       y       z     vdW  Elec       q    Type
REMARK                         _______ _______ _______ _____ _____    ______ ____
ROOT
ATOM      1  C   UNL     1      33.064 -13.106 -21.836  0.00  0.00    +0.007 C 
ATOM      2  C   UNL     1      32.302 -12.036 -22.302  0.00  0.00    -0.006 C 
ATOM      3  C   UNL     1      33.057 -13.429 -20.479  0.00  0.00    -0.002 C 
ATOM      4  C   UNL     1      31.532 -11.287 -21.411  0.00  0.00    -0.022 C 
ATOM      5  C   UNL     1      31.525 -11.611 -20.054  0.00  0.00    -0.026 C 
ATOM      6  C   UNL     1      32.287 -12.681 -19.588  0.00  0.00    -0.005 C 
ENDROOT
BRANCH   1  10
ATOM      7  O   UNL     1      33.260 -13.864 -24.083  0.00  0.00    -0.347 OA
ATOM      8  C   UNL     1      34.067 -15.374 -22.339  0.00  0.00    +0.171 C 
ATOM      9  C   UNL     1      34.774 -16.214 -23.406  0.00  0.00    +0.169 C 
ATOM     10  C   UNL     1      33.900 -13.920 -22.804  0.00  0.00    +0.167 C 
ATOM     11  C   UNL     1      34.142 -16.012 -24.782  0.00  0.00    +0.169 C 
ATOM     12  C   UNL     1      34.009 -14.523 -25.106  0.00  0.00    +0.174 C 
BRANCH   8  13
ATOM     13  O   UNL     1      34.848 -15.386 -21.145  0.00  0.00    -0.379 OA
ATOM     14  H   UNL     1      35.448 -14.625 -21.142  0.00  0.00    +0.211 HD
ENDBRANCH   8  13
BRANCH   9  15
ATOM     15  O   UNL     1      34.666 -17.599 -23.070  0.00  0.00    -0.379 OA
ATOM     16  H   UNL     1      35.172 -18.126 -23.707  0.00  0.00    +0.211 HD
ENDBRANCH   9  15
BRANCH  11  17
ATOM     17  O   UNL     1      34.957 -16.636 -25.771  0.00  0.00    -0.379 OA
ATOM     18  H   UNL     1      35.326 -17.459 -25.413  0.00  0.00    +0.211 HD
ENDBRANCH  11  17
BRANCH  12  19
ATOM     19  C   UNL     1      33.280 -14.293 -26.426  0.00  0.00    +0.169 C 
BRANCH  19  20
ATOM     20  O   UNL     1      34.241 -14.050 -27.436  0.00  0.00    -0.379 OA
ATOM     21  H   UNL     1      34.075 -13.182 -27.838  0.00  0.00    +0.211 HD
ENDBRANCH  19  20
ENDBRANCH  12  19
ENDBRANCH   1  10
BRANCH   5  22
ATOM     22  C   UNL     1      30.709 -10.824 -19.081  0.00  0.00    +0.026 C 
ATOM     23  C   UNL     1      31.459  -9.608 -18.547  0.00  0.00    +0.005 C 
ENDBRANCH   5  22
BRANCH   4  24
ATOM     24  C   UNL     1      30.724 -10.145 -21.934  0.00  0.00    +0.052 C 
BRANCH  24  27
ATOM     25  O   UNL     1      35.045  -8.316 -23.264  0.00  0.00    -0.468 OA
ATOM     26  O   UNL     1      33.780  -5.827 -23.982  0.00  0.00    -0.468 OA
ATOM     27  C   UNL     1      31.557  -8.999 -22.469  0.00  0.00    -0.015 C 
ATOM     28  C   UNL     1      32.931  -9.161 -22.645  0.00  0.00    +0.036 C 
ATOM     29  C   UNL     1      30.951  -7.781 -22.780  0.00  0.00    -0.001 C 
ATOM     30  C   UNL     1      33.698  -8.102 -23.132  0.00  0.00    +0.172 C 
ATOM     31  C   UNL     1      33.087  -6.893 -23.469  0.00  0.00    +0.172 C 
ATOM     32  C   UNL     1      31.715  -6.727 -23.279  0.00  0.00    +0.040 C 
ATOM     33  C   UNL     1      35.766  -7.091 -23.429  0.00  0.00    +0.253 C 
ATOM     34  C   UNL     1      35.075  -6.211 -24.451  0.00  0.00    +0.253 C 
ENDBRANCH  24  27
ENDBRANCH   4  24
TORSDOF 9
ENDMDL
MODEL 8
REMARK VINA RESULT:      -9.7      1.559      6.449
REMARK  Name = 52913524
REMARK  9 active torsions:
REMARK  status: ('A' for Active; 'I' for Inactive)
REMARK    1  A    between atoms: C_1  and  C_10
REMARK    2  A    between atoms: C_4  and  C_24
REMARK    3  A    between atoms: C_5  and  C_22
REMARK    4  A    between atoms: C_8  and  O_13
REMARK    5  A    between atoms: C_9  and  O_15
REMARK    6  A    between atoms: C_11  and  O_17
REMARK    7  A    between atoms: C_12  and  C_19
REMARK    8  A    between atoms: C_19  and  O_20
REMARK    9  A    between atoms: C_24  and  C_27
REMARK                            x       y       z     vdW  Elec       q    Type
REMARK                         _______ _______ _______ _____ _____    ______ ____
ROOT
ATOM      1  C   UNL     1      33.469 -23.057 -16.645  0.00  0.00    +0.007 C 
ATOM      2  C   UNL     1      33.872 -23.531 -15.396  0.00  0.00    -0.006 C 
ATOM      3  C   UNL     1      32.112 -22.899 -16.927  0.00  0.00    -0.002 C 
ATOM      4  C   UNL     1      32.917 -23.848 -14.430  0.00  0.00    -0.022 C 
ATOM      5  C   UNL     1      31.559 -23.690 -14.712  0.00  0.00    -0.026 C 
ATOM      6  C   UNL     1      31.157 -23.216 -15.960  0.00  0.00    -0.005 C 
ENDROOT
BRANCH   1  10
ATOM      7  O   UNL     1      35.623 -22.121 -17.024  0.00  0.00    -0.347 OA
ATOM      8  C   UNL     1      33.947 -21.763 -18.766  0.00  0.00    +0.171 C 
ATOM      9  C   UNL     1      35.052 -21.301 -19.721  0.00  0.00    +0.169 C 
ATOM     10  C   UNL     1      34.506 -22.712 -17.695  0.00  0.00    +0.167 C 
ATOM     11  C   UNL     1      36.279 -20.810 -18.955  0.00  0.00    +0.169 C 
ATOM     12  C   UNL     1      36.711 -21.835 -17.905  0.00  0.00    +0.174 C 
BRANCH   8  13
ATOM     13  O   UNL     1      32.946 -22.453 -19.512  0.00  0.00    -0.379 OA
ATOM     14  H   UNL     1      33.308 -23.290 -19.842  0.00  0.00    +0.211 HD
ENDBRANCH   8  13
BRANCH   9  15
ATOM     15  O   UNL     1      34.568 -20.220 -20.519  0.00  0.00    -0.379 OA
ATOM     16  H   UNL     1      35.004 -20.238 -21.386  0.00  0.00    +0.211 HD
ENDBRANCH   9  15
BRANCH  11  17
ATOM     17  O   UNL     1      37.351 -20.597 -19.870  0.00  0.00    -0.379 OA
ATOM     18  H   UNL     1      37.922 -21.381 -19.888  0.00  0.00    +0.211 HD
ENDBRANCH  11  17
BRANCH  12  19
ATOM     19  C   UNL     1      37.866 -21.319 -17.052  0.00  0.00    +0.169 C 
BRANCH  19  20
ATOM     20  O   UNL     1      37.809 -19.906 -17.024  0.00  0.00    -0.379 OA
ATOM     21  H   UNL     1      37.918 -19.559 -17.924  0.00  0.00    +0.211 HD
ENDBRANCH  19  20
ENDBRANCH  12  19
ENDBRANCH   1  10
BRANCH   5  22
ATOM     22  C   UNL     1      30.519 -24.024 -13.694  0.00  0.00    +0.026 C 
ATOM     23  C   UNL     1      29.549 -25.093 -14.186  0.00  0.00    +0.005 C 
ENDBRANCH   5  22
BRANCH   4  24
ATOM     24  C   UNL     1      33.372 -24.355 -13.101  0.00  0.00    +0.052 C 
BRANCH  24  27
ATOM     25  O   UNL     1      37.670 -26.098 -14.608  0.00  0.00    -0.468 OA
ATOM     26  O   UNL     1      39.012 -24.600 -12.542  0.00  0.00    -0.468 OA
ATOM     27  C   UNL     1      34.877 -24.440 -12.960  0.00  0.00    -0.015 C 
ATOM     28  C   UNL     1      35.616 -25.218 -13.851  0.00  0.00    +0.036 C 
ATOM     29  C   UNL     1      35.523 -23.746 -11.935  0.00  0.00    -0.001 C 
ATOM     30  C   UNL     1      37.002 -25.301 -13.715  0.00  0.00    +0.172 C 
ATOM     31  C   UNL     1      37.651 -24.585 -12.707  0.00  0.00    +0.172 C 
ATOM     32  C   UNL     1      36.909 -23.818 -11.807  0.00  0.00    +0.040 C 
ATOM     33  C   UNL     1      39.003 -26.383 -14.175  0.00  0.00    +0.253 C 
ATOM     34  C   UNL     1      39.682 -25.116 -13.695  0.00  0.00    +0.253 C 
ENDBRANCH  24  27
ENDBRANCH   4  24
TORSDOF 9
ENDMDL
MODEL 9
REMARK VINA RESULT:      -9.7     11.538     16.879
REMARK  Name = 52913524
REMARK  9 active torsions:
REMARK  status: ('A' for Active; 'I' for Inactive)
REMARK    1  A    between atoms: C_1  and  C_10
REMARK    2  A    between atoms: C_4  and  C_24
REMARK    3  A    between atoms: C_5  and  C_22
REMARK    4  A    between atoms: C_8  and  O_13
REMARK    5  A    between atoms: C_9  and  O_15
REMARK    6  A    between atoms: C_11  and  O_17
REMARK    7  A    between atoms: C_12  and  C_19
REMARK    8  A    between atoms: C_19  and  O_20
REMARK    9  A    between atoms: C_24  and  C_27
REMARK                            x       y       z     vdW  Elec       q    Type
REMARK                         _______ _______ _______ _____ _____    ______ ____
ROOT
ATOM      1  C   UNL     1      32.670  -7.264 -21.615  0.00  0.00    +0.007 C 
ATOM      2  C   UNL     1      32.146  -8.428 -22.179  0.00  0.00    -0.006 C 
ATOM      3  C   UNL     1      32.923  -7.206 -20.245  0.00  0.00    -0.002 C 
ATOM      4  C   UNL     1      31.875  -9.533 -21.371  0.00  0.00    -0.022 C 
ATOM      5  C   UNL     1      32.129  -9.474 -20.000  0.00  0.00    -0.026 C 
ATOM      6  C   UNL     1      32.653  -8.311 -19.437  0.00  0.00    -0.005 C 
ENDROOT
BRANCH   1  10
ATOM      7  O   UNL     1      31.802  -5.230 -22.494  0.00  0.00    -0.347 OA
ATOM      8  C   UNL     1      33.343  -6.477 -23.923  0.00  0.00    +0.171 C 
ATOM      9  C   UNL     1      33.479  -5.251 -24.830  0.00  0.00    +0.169 C 
ATOM     10  C   UNL     1      32.965  -6.064 -22.493  0.00  0.00    +0.167 C 
ATOM     11  C   UNL     1      32.275  -4.319 -24.690  0.00  0.00    +0.169 C 
ATOM     12  C   UNL     1      31.993  -4.014 -23.218  0.00  0.00    +0.174 C 
BRANCH   8  13
ATOM     13  O   UNL     1      34.591  -7.167 -23.886  0.00  0.00    -0.379 OA
ATOM     14  H   UNL     1      35.177  -6.816 -24.573  0.00  0.00    +0.211 HD
ENDBRANCH   8  13
BRANCH   9  15
ATOM     15  O   UNL     1      33.553  -5.674 -26.193  0.00  0.00    -0.379 OA
ATOM     16  H   UNL     1      33.978  -6.544 -26.238  0.00  0.00    +0.211 HD
ENDBRANCH   9  15
BRANCH  11  17
ATOM     17  O   UNL     1      32.541  -3.100 -25.380  0.00  0.00    -0.379 OA
ATOM     18  H   UNL     1      32.479  -2.358 -24.758  0.00  0.00    +0.211 HD
ENDBRANCH  11  17
BRANCH  12  19
ATOM     19  C   UNL     1      30.729  -3.176 -23.046  0.00  0.00    +0.169 C 
BRANCH  19  20
ATOM     20  O   UNL     1      30.101  -3.552 -21.835  0.00  0.00    -0.379 OA
ATOM     21  H   UNL     1      30.342  -2.922 -21.137  0.00  0.00    +0.211 HD
ENDBRANCH  19  20
ENDBRANCH  12  19
ENDBRANCH   1  10
BRANCH   5  22
ATOM     22  C   UNL     1      31.846 -10.643 -19.116  0.00  0.00    +0.026 C 
ATOM     23  C   UNL     1      30.362 -10.778 -18.791  0.00  0.00    +0.005 C 
ENDBRANCH   5  22
BRANCH   4  24
ATOM     24  C   UNL     1      31.314 -10.767 -21.996  0.00  0.00    +0.052 C 
BRANCH  24  27
ATOM     25  O   UNL     1      33.293 -15.095 -20.927  0.00  0.00    -0.468 OA
ATOM     26  O   UNL     1      35.183 -14.773 -23.080  0.00  0.00    -0.468 OA
ATOM     27  C   UNL     1      32.347 -11.843 -22.265  0.00  0.00    -0.015 C 
ATOM     28  C   UNL     1      32.361 -13.002 -21.490  0.00  0.00    +0.036 C 
ATOM     29  C   UNL     1      33.287 -11.669 -23.282  0.00  0.00    -0.001 C 
ATOM     30  C   UNL     1      33.317 -13.988 -21.734  0.00  0.00    +0.172 C 
ATOM     31  C   UNL     1      34.240 -13.827 -22.770  0.00  0.00    +0.172 C 
ATOM     32  C   UNL     1      34.234 -12.660 -23.535  0.00  0.00    +0.040 C 
ATOM     33  C   UNL     1      34.499 -15.857 -21.030  0.00  0.00    +0.253 C 
ATOM     34  C   UNL     1      34.883 -16.038 -22.485  0.00  0.00    +0.253 C 
ENDBRANCH  24  27
ENDBRANCH   4  24
TORSDOF 9
ENDMDL
