MODEL 1
REMARK VINA RESULT:     -11.1      0.000      0.000
REMARK  Name = 11998575
REMARK  7 active torsions:
REMARK  status: ('A' for Active; 'I' for Inactive)
REMARK    1  A    between atoms: C_6  and  C_18
REMARK    2  A    between atoms: C_14  and  O_22
REMARK    3  A    between atoms: C_15  and  O_16
REMARK    4  A    between atoms: C_18  and  O_20
REMARK    5  A    between atoms: O_22  and  C_23
REMARK    6  A    between atoms: C_23  and  C_24
REMARK    7  A    between atoms: C_29  and  O_30
REMARK                            x       y       z     vdW  Elec       q    Type
REMARK                         _______ _______ _______ _____ _____    ______ ____
ROOT
ATOM      1  O   UNL     1      32.772 -22.084 -18.617  0.00  0.00    -0.421 OA
ATOM      2  O   UNL     1      32.291 -20.889 -20.498  0.00  0.00    -0.244 OA
ATOM      3  C   UNL     1      35.494 -21.354 -18.845  0.00  0.00    +0.009 A 
ATOM      4  C   UNL     1      35.048 -22.210 -17.739  0.00  0.00    +0.038 A 
ATOM      5  C   UNL     1      34.556 -20.901 -19.789  0.00  0.00    +0.076 A 
ATOM      6  C   UNL     1      36.272 -19.699 -21.008  0.00  0.00    +0.004 C 
ATOM      7  C   UNL     1      33.696 -22.550 -17.658  0.00  0.00    +0.152 A 
ATOM      8  C   UNL     1      34.943 -20.080 -20.861  0.00  0.00    +0.004 C 
ATOM      9  C   UNL     1      36.833 -20.952 -19.020  0.00  0.00    +0.000 C 
ATOM     10  C   UNL     1      35.887 -22.725 -16.737  0.00  0.00    +0.043 C 
ATOM     11  C   UNL     1      37.217 -20.135 -20.088  0.00  0.00    -0.002 C 
ATOM     12  C   UNL     1      33.125 -21.273 -19.687  0.00  0.00    +0.346 A 
ATOM     13  C   UNL     1      33.175 -23.360 -16.644  0.00  0.00    +0.078 C 
ATOM     14  C   UNL     1      34.029 -23.855 -15.667  0.00  0.00    +0.176 C 
ATOM     15  C   UNL     1      35.384 -23.539 -15.713  0.00  0.00    +0.173 C 
ENDROOT
BRANCH  15  16
ATOM     16  O   UNL     1      36.236 -24.017 -14.762  0.00  0.00    -0.468 OA
ATOM     17  C   UNL     1      37.602 -23.622 -14.861  0.00  0.00    +0.253 C 
ENDBRANCH  15  16
BRANCH   6  18
ATOM     18  C   UNL     1      36.682 -18.829 -22.147  0.00  0.00    +0.133 C 
ATOM     19  C   UNL     1      35.802 -17.583 -22.287  0.00  0.00    +0.037 C 
BRANCH  18  20
ATOM     20  O   UNL     1      38.041 -18.409 -21.978  0.00  0.00    -0.380 OA
ATOM     21  H   UNL     1      38.069 -17.447 -21.859  0.00  0.00    +0.211 HD
ENDBRANCH  18  20
ENDBRANCH   6  18
BRANCH  14  22
ATOM     22  O   UNL     1      33.533 -24.646 -14.676  0.00  0.00    -0.467 OA
BRANCH  22  23
ATOM     23  C   UNL     1      32.728 -24.012 -13.683  0.00  0.00    +0.232 C 
BRANCH  23  24
ATOM     24  C   UNL     1      31.324 -23.884 -14.200  0.00  0.00    +0.021 C 
ATOM     25  C   UNL     1      30.587 -25.028 -14.480  0.00  0.00    +0.002 C 
ATOM     26  C   UNL     1      30.775 -22.620 -14.395  0.00  0.00    +0.002 C 
ATOM     27  C   UNL     1      29.282 -24.908 -14.961  0.00  0.00    +0.037 C 
ATOM     28  C   UNL     1      29.472 -22.501 -14.875  0.00  0.00    +0.037 C 
ATOM     29  C   UNL     1      28.725 -23.645 -15.158  0.00  0.00    +0.139 C 
BRANCH  29  30
ATOM     30  O   UNL     1      27.453 -23.528 -15.627  0.00  0.00    -0.471 OA
ATOM     31  C   UNL     1      27.162 -22.395 -16.443  0.00  0.00    +0.252 C 
ENDBRANCH  29  30
ENDBRANCH  23  24
ENDBRANCH  22  23
ENDBRANCH  14  22
TORSDOF 7
ENDMDL
MODEL 2
REMARK VINA RESULT:     -10.9      3.023      8.899
REMARK  Name = 11998575
REMARK  7 active torsions:
REMARK  status: ('A' for Active; 'I' for Inactive)
REMARK    1  A    between atoms: C_6  and  C_18
REMARK    2  A    between atoms: C_14  and  O_22
REMARK    3  A    between atoms: C_15  and  O_16
REMARK    4  A    between atoms: C_18  and  O_20
REMARK    5  A    between atoms: O_22  and  C_23
REMARK    6  A    between atoms: C_23  and  C_24
REMARK    7  A    between atoms: C_29  and  O_30
REMARK                            x       y       z     vdW  Elec       q    Type
REMARK                         _______ _______ _______ _____ _____    ______ ____
ROOT
ATOM      1  O   UNL     1      37.654 -22.091 -17.252  0.00  0.00    -0.421 OA
ATOM      2  O   UNL     1      38.938 -22.833 -15.520  0.00  0.00    -0.244 OA
ATOM      3  C   UNL     1      35.345 -23.117 -15.983  0.00  0.00    +0.009 A 
ATOM      4  C   UNL     1      35.236 -22.436 -17.279  0.00  0.00    +0.038 A 
ATOM      5  C   UNL     1      36.607 -23.255 -15.379  0.00  0.00    +0.076 A 
ATOM      6  C   UNL     1      35.641 -24.417 -13.485  0.00  0.00    +0.004 C 
ATOM      7  C   UNL     1      36.398 -21.941 -17.876  0.00  0.00    +0.152 A 
ATOM      8  C   UNL     1      36.753 -23.899 -14.140  0.00  0.00    +0.004 C 
ATOM      9  C   UNL     1      34.237 -23.652 -15.296  0.00  0.00    +0.000 C 
ATOM     10  C   UNL     1      34.036 -22.237 -17.980  0.00  0.00    +0.043 C 
ATOM     11  C   UNL     1      34.384 -24.294 -14.062  0.00  0.00    -0.002 C 
ATOM     12  C   UNL     1      37.829 -22.724 -16.028  0.00  0.00    +0.346 A 
ATOM     13  C   UNL     1      36.398 -21.280 -19.108  0.00  0.00    +0.078 C 
ATOM     14  C   UNL     1      35.195 -21.099 -19.779  0.00  0.00    +0.176 C 
ATOM     15  C   UNL     1      34.015 -21.577 -19.216  0.00  0.00    +0.173 C 
ENDROOT
BRANCH  15  16
ATOM     16  O   UNL     1      32.826 -21.408 -19.862  0.00  0.00    -0.468 OA
ATOM     17  C   UNL     1      32.440 -20.070 -20.167  0.00  0.00    +0.253 C 
ENDBRANCH  15  16
BRANCH   6  18
ATOM     18  C   UNL     1      35.797 -25.103 -12.170  0.00  0.00    +0.133 C 
ATOM     19  C   UNL     1      36.877 -24.463 -11.293  0.00  0.00    +0.037 C 
BRANCH  18  20
ATOM     20  O   UNL     1      34.556 -25.078 -11.454  0.00  0.00    -0.380 OA
ATOM     21  H   UNL     1      34.096 -24.243 -11.634  0.00  0.00    +0.211 HD
ENDBRANCH  18  20
ENDBRANCH   6  18
BRANCH  14  22
ATOM     22  O   UNL     1      35.184 -20.458 -20.979  0.00  0.00    -0.467 OA
BRANCH  22  23
ATOM     23  C   UNL     1      36.216 -19.501 -21.214  0.00  0.00    +0.232 C 
BRANCH  23  24
ATOM     24  C   UNL     1      35.621 -18.290 -21.870  0.00  0.00    +0.021 C 
ATOM     25  C   UNL     1      35.229 -17.207 -21.092  0.00  0.00    +0.002 C 
ATOM     26  C   UNL     1      35.465 -18.263 -23.253  0.00  0.00    +0.002 C 
ATOM     27  C   UNL     1      34.675 -16.081 -21.703  0.00  0.00    +0.037 C 
ATOM     28  C   UNL     1      34.911 -17.138 -23.863  0.00  0.00    +0.037 C 
ATOM     29  C   UNL     1      34.516 -16.047 -23.088  0.00  0.00    +0.139 C 
BRANCH  29  30
ATOM     30  O   UNL     1      33.976 -14.949 -23.684  0.00  0.00    -0.471 OA
ATOM     31  C   UNL     1      34.264 -13.682 -23.094  0.00  0.00    +0.252 C 
ENDBRANCH  29  30
ENDBRANCH  23  24
ENDBRANCH  22  23
ENDBRANCH  14  22
TORSDOF 7
ENDMDL
MODEL 3
REMARK VINA RESULT:     -10.4      9.754     14.548
REMARK  Name = 11998575
REMARK  7 active torsions:
REMARK  status: ('A' for Active; 'I' for Inactive)
REMARK    1  A    between atoms: C_6  and  C_18
REMARK    2  A    between atoms: C_14  and  O_22
REMARK    3  A    between atoms: C_15  and  O_16
REMARK    4  A    between atoms: C_18  and  O_20
REMARK    5  A    between atoms: O_22  and  C_23
REMARK    6  A    between atoms: C_23  and  C_24
REMARK    7  A    between atoms: C_29  and  O_30
REMARK                            x       y       z     vdW  Elec       q    Type
REMARK                         _______ _______ _______ _____ _____    ______ ____
ROOT
ATOM      1  O   UNL     1      34.262  -8.226 -24.008  0.00  0.00    -0.421 OA
ATOM      2  O   UNL     1      34.757  -6.141 -24.785  0.00  0.00    -0.244 OA
ATOM      3  C   UNL     1      32.016  -7.186 -22.641  0.00  0.00    +0.009 A 
ATOM      4  C   UNL     1      32.330  -8.619 -22.567  0.00  0.00    +0.038 A 
ATOM      5  C   UNL     1      32.842  -6.337 -23.397  0.00  0.00    +0.076 A 
ATOM      6  C   UNL     1      31.480  -4.413 -22.836  0.00  0.00    +0.004 C 
ATOM      7  C   UNL     1      33.447  -9.097 -23.254  0.00  0.00    +0.152 A 
ATOM      8  C   UNL     1      32.576  -4.962 -23.494  0.00  0.00    +0.004 C 
ATOM      9  C   UNL     1      30.914  -6.601 -21.986  0.00  0.00    +0.000 C 
ATOM     10  C   UNL     1      31.583  -9.565 -21.845  0.00  0.00    +0.043 C 
ATOM     11  C   UNL     1      30.650  -5.231 -22.083  0.00  0.00    -0.002 C 
ATOM     12  C   UNL     1      34.025  -6.863 -24.120  0.00  0.00    +0.346 A 
ATOM     13  C   UNL     1      33.828 -10.442 -23.244  0.00  0.00    +0.078 C 
ATOM     14  C   UNL     1      33.071 -11.355 -22.521  0.00  0.00    +0.176 C 
ATOM     15  C   UNL     1      31.949 -10.917 -21.822  0.00  0.00    +0.173 C 
ENDROOT
BRANCH  15  16
ATOM     16  O   UNL     1      31.195 -11.800 -21.108  0.00  0.00    -0.468 OA
ATOM     17  C   UNL     1      31.272 -11.714 -19.687  0.00  0.00    +0.253 C 
ENDBRANCH  15  16
BRANCH   6  18
ATOM     18  C   UNL     1      31.199  -2.952 -22.938  0.00  0.00    +0.133 C 
ATOM     19  C   UNL     1      30.821  -2.519 -24.359  0.00  0.00    +0.037 C 
BRANCH  18  20
ATOM     20  O   UNL     1      30.129  -2.596 -22.055  0.00  0.00    -0.380 OA
ATOM     21  H   UNL     1      29.465  -2.083 -22.542  0.00  0.00    +0.211 HD
ENDBRANCH  18  20
ENDBRANCH   6  18
BRANCH  14  22
ATOM     22  O   UNL     1      33.434 -12.667 -22.503  0.00  0.00    -0.467 OA
BRANCH  22  23
ATOM     23  C   UNL     1      33.577 -13.318 -23.765  0.00  0.00    +0.232 C 
BRANCH  23  24
ATOM     24  C   UNL     1      34.138 -14.692 -23.545  0.00  0.00    +0.021 C 
ATOM     25  C   UNL     1      34.371 -15.523 -24.634  0.00  0.00    +0.002 C 
ATOM     26  C   UNL     1      34.419 -15.122 -22.251  0.00  0.00    +0.002 C 
ATOM     27  C   UNL     1      34.892 -16.802 -24.429  0.00  0.00    +0.037 C 
ATOM     28  C   UNL     1      34.940 -16.400 -22.047  0.00  0.00    +0.037 C 
ATOM     29  C   UNL     1      35.177 -17.239 -23.135  0.00  0.00    +0.139 C 
BRANCH  29  30
ATOM     30  O   UNL     1      35.686 -18.486 -22.936  0.00  0.00    -0.471 OA
ATOM     31  C   UNL     1      34.985 -19.336 -22.030  0.00  0.00    +0.252 C 
ENDBRANCH  29  30
ENDBRANCH  23  24
ENDBRANCH  22  23
ENDBRANCH  14  22
TORSDOF 7
ENDMDL
MODEL 4
REMARK VINA RESULT:     -10.3      6.661     11.023
REMARK  Name = 11998575
REMARK  7 active torsions:
REMARK  status: ('A' for Active; 'I' for Inactive)
REMARK    1  A    between atoms: C_6  and  C_18
REMARK    2  A    between atoms: C_14  and  O_22
REMARK    3  A    between atoms: C_15  and  O_16
REMARK    4  A    between atoms: C_18  and  O_20
REMARK    5  A    between atoms: O_22  and  C_23
REMARK    6  A    between atoms: C_23  and  C_24
REMARK    7  A    between atoms: C_29  and  O_30
REMARK                            x       y       z     vdW  Elec       q    Type
REMARK                         _______ _______ _______ _____ _____    ______ ____
ROOT
ATOM      1  O   UNL     1      32.317 -13.020 -20.067  0.00  0.00    -0.421 OA
ATOM      2  O   UNL     1      31.360 -11.369 -18.818  0.00  0.00    -0.244 OA
ATOM      3  C   UNL     1      32.671 -11.201 -22.204  0.00  0.00    +0.009 A 
ATOM      4  C   UNL     1      33.109 -12.596 -22.338  0.00  0.00    +0.038 A 
ATOM      5  C   UNL     1      32.073 -10.779 -21.004  0.00  0.00    +0.076 A 
ATOM      6  C   UNL     1      31.798  -8.530 -21.863  0.00  0.00    +0.004 C 
ATOM      7  C   UNL     1      32.919 -13.466 -21.263  0.00  0.00    +0.152 A 
ATOM      8  C   UNL     1      31.641  -9.453 -20.835  0.00  0.00    +0.004 C 
ATOM      9  C   UNL     1      32.816 -10.244 -23.226  0.00  0.00    +0.000 C 
ATOM     10  C   UNL     1      33.717 -13.137 -23.483  0.00  0.00    +0.043 C 
ATOM     11  C   UNL     1      32.384  -8.924 -23.058  0.00  0.00    -0.002 C 
ATOM     12  C   UNL     1      31.878 -11.717 -19.872  0.00  0.00    +0.346 A 
ATOM     13  C   UNL     1      33.301 -14.810 -21.294  0.00  0.00    +0.078 C 
ATOM     14  C   UNL     1      33.899 -15.317 -22.441  0.00  0.00    +0.176 C 
ATOM     15  C   UNL     1      34.106 -14.482 -23.535  0.00  0.00    +0.173 C 
ENDROOT
BRANCH  15  16
ATOM     16  O   UNL     1      34.691 -14.964 -24.668  0.00  0.00    -0.468 OA
ATOM     17  C   UNL     1      33.833 -15.234 -25.774  0.00  0.00    +0.253 C 
ENDBRANCH  15  16
BRANCH   6  18
ATOM     18  C   UNL     1      31.337  -7.123 -21.684  0.00  0.00    +0.133 C 
ATOM     19  C   UNL     1      32.394  -6.233 -21.022  0.00  0.00    +0.037 C 
BRANCH  18  20
ATOM     20  O   UNL     1      30.993  -6.554 -22.953  0.00  0.00    -0.380 OA
ATOM     21  H   UNL     1      31.528  -6.969 -23.647  0.00  0.00    +0.211 HD
ENDBRANCH  18  20
ENDBRANCH   6  18
BRANCH  14  22
ATOM     22  O   UNL     1      34.273 -16.625 -22.483  0.00  0.00    -0.467 OA
BRANCH  22  23
ATOM     23  C   UNL     1      35.633 -16.921 -22.167  0.00  0.00    +0.232 C 
BRANCH  23  24
ATOM     24  C   UNL     1      35.693 -18.238 -21.449  0.00  0.00    +0.021 C 
ATOM     25  C   UNL     1      36.921 -18.743 -21.039  0.00  0.00    +0.002 C 
ATOM     26  C   UNL     1      34.518 -18.941 -21.202  0.00  0.00    +0.002 C 
ATOM     27  C   UNL     1      36.976 -19.968 -20.371  0.00  0.00    +0.037 C 
ATOM     28  C   UNL     1      34.573 -20.164 -20.535  0.00  0.00    +0.037 C 
ATOM     29  C   UNL     1      35.802 -20.677 -20.120  0.00  0.00    +0.139 C 
BRANCH  29  30
ATOM     30  O   UNL     1      35.856 -21.871 -19.468  0.00  0.00    -0.471 OA
ATOM     31  C   UNL     1      34.686 -22.280 -18.761  0.00  0.00    +0.252 C 
ENDBRANCH  29  30
ENDBRANCH  23  24
ENDBRANCH  22  23
ENDBRANCH  14  22
TORSDOF 7
ENDMDL
MODEL 5
REMARK VINA RESULT:     -10.1      8.020     13.616
REMARK  Name = 11998575
REMARK  7 active torsions:
REMARK  status: ('A' for Active; 'I' for Inactive)
REMARK    1  A    between atoms: C_6  and  C_18
REMARK    2  A    between atoms: C_14  and  O_22
REMARK    3  A    between atoms: C_15  and  O_16
REMARK    4  A    between atoms: C_18  and  O_20
REMARK    5  A    between atoms: O_22  and  C_23
REMARK    6  A    between atoms: C_23  and  C_24
REMARK    7  A    between atoms: C_29  and  O_30
REMARK                            x       y       z     vdW  Elec       q    Type
REMARK                         _______ _______ _______ _____ _____    ______ ____
ROOT
ATOM      1  O   UNL     1      33.448 -13.187 -24.148  0.00  0.00    -0.421 OA
ATOM      2  O   UNL     1      34.306 -14.888 -25.402  0.00  0.00    -0.244 OA
ATOM      3  C   UNL     1      33.888 -14.695 -21.797  0.00  0.00    +0.009 A 
ATOM      4  C   UNL     1      33.295 -13.354 -21.717  0.00  0.00    +0.038 A 
ATOM      5  C   UNL     1      34.234 -15.222 -23.053  0.00  0.00    +0.076 A 
ATOM      6  C   UNL     1      35.036 -17.272 -22.039  0.00  0.00    +0.004 C 
ATOM      7  C   UNL     1      33.092 -12.638 -22.898  0.00  0.00    +0.152 A 
ATOM      8  C   UNL     1      34.804 -16.500 -23.172  0.00  0.00    +0.004 C 
ATOM      9  C   UNL     1      34.135 -15.500 -20.667  0.00  0.00    +0.000 C 
ATOM     10  C   UNL     1      32.907 -12.721 -20.524  0.00  0.00    +0.043 C 
ATOM     11  C   UNL     1      34.701 -16.773 -20.788  0.00  0.00    -0.002 C 
ATOM     12  C   UNL     1      34.011 -14.448 -24.297  0.00  0.00    +0.346 A 
ATOM     13  C   UNL     1      32.534 -11.357 -22.925  0.00  0.00    +0.078 C 
ATOM     14  C   UNL     1      32.159 -10.757 -21.730  0.00  0.00    +0.176 C 
ATOM     15  C   UNL     1      32.345 -11.437 -20.530  0.00  0.00    +0.173 C 
ENDROOT
BRANCH  15  16
ATOM     16  O   UNL     1      31.983 -10.862 -19.349  0.00  0.00    -0.468 OA
ATOM     17  C   UNL     1      30.603 -10.923 -18.996  0.00  0.00    +0.253 C 
ENDBRANCH  15  16
BRANCH   6  18
ATOM     18  C   UNL     1      35.640 -18.629 -22.167  0.00  0.00    +0.133 C 
ATOM     19  C   UNL     1      34.985 -19.467 -23.270  0.00  0.00    +0.037 C 
BRANCH  18  20
ATOM     20  O   UNL     1      37.040 -18.519 -22.450  0.00  0.00    -0.380 OA
ATOM     21  H   UNL     1      37.470 -19.373 -22.288  0.00  0.00    +0.211 HD
ENDBRANCH  18  20
ENDBRANCH   6  18
BRANCH  14  22
ATOM     22  O   UNL     1      31.613  -9.510 -21.745  0.00  0.00    -0.467 OA
BRANCH  22  23
ATOM     23  C   UNL     1      32.395  -8.452 -21.191  0.00  0.00    +0.232 C 
BRANCH  23  24
ATOM     24  C   UNL     1      32.967  -7.630 -22.308  0.00  0.00    +0.021 C 
ATOM     25  C   UNL     1      34.338  -7.633 -22.534  0.00  0.00    +0.002 C 
ATOM     26  C   UNL     1      32.119  -6.869 -23.107  0.00  0.00    +0.002 C 
ATOM     27  C   UNL     1      34.870  -6.868 -23.573  0.00  0.00    +0.037 C 
ATOM     28  C   UNL     1      32.650  -6.104 -24.145  0.00  0.00    +0.037 C 
ATOM     29  C   UNL     1      34.026  -6.104 -24.378  0.00  0.00    +0.139 C 
BRANCH  29  30
ATOM     30  O   UNL     1      34.544  -5.358 -25.391  0.00  0.00    -0.471 OA
ATOM     31  C   UNL     1      33.628  -4.582 -26.162  0.00  0.00    +0.252 C 
ENDBRANCH  29  30
ENDBRANCH  23  24
ENDBRANCH  22  23
ENDBRANCH  14  22
TORSDOF 7
ENDMDL
MODEL 6
REMARK VINA RESULT:     -10.1      7.629     12.365
REMARK  Name = 11998575
REMARK  7 active torsions:
REMARK  status: ('A' for Active; 'I' for Inactive)
REMARK    1  A    between atoms: C_6  and  C_18
REMARK    2  A    between atoms: C_14  and  O_22
REMARK    3  A    between atoms: C_15  and  O_16
REMARK    4  A    between atoms: C_18  and  O_20
REMARK    5  A    between atoms: O_22  and  C_23
REMARK    6  A    between atoms: C_23  and  C_24
REMARK    7  A    between atoms: C_29  and  O_30
REMARK                            x       y       z     vdW  Elec       q    Type
REMARK                         _______ _______ _______ _____ _____    ______ ____
ROOT
ATOM      1  O   UNL     1      32.044 -11.894 -20.811  0.00  0.00    -0.421 OA
ATOM      2  O   UNL     1      31.266 -10.385 -19.290  0.00  0.00    -0.244 OA
ATOM      3  C   UNL     1      32.739  -9.780 -22.556  0.00  0.00    +0.009 A 
ATOM      4  C   UNL     1      32.989 -11.173 -22.945  0.00  0.00    +0.038 A 
ATOM      5  C   UNL     1      32.151  -9.506 -21.310  0.00  0.00    +0.076 A 
ATOM      6  C   UNL     1      32.223  -7.121 -21.730  0.00  0.00    +0.004 C 
ATOM      7  C   UNL     1      32.633 -12.192 -22.059  0.00  0.00    +0.152 A 
ATOM      8  C   UNL     1      31.896  -8.187 -20.900  0.00  0.00    +0.004 C 
ATOM      9  C   UNL     1      33.059  -8.679 -23.375  0.00  0.00    +0.000 C 
ATOM     10  C   UNL     1      33.568 -11.573 -24.161  0.00  0.00    +0.043 C 
ATOM     11  C   UNL     1      32.804  -7.366 -22.967  0.00  0.00    -0.002 C 
ATOM     12  C   UNL     1      31.779 -10.601 -20.381  0.00  0.00    +0.346 A 
ATOM     13  C   UNL     1      32.830 -13.547 -22.338  0.00  0.00    +0.078 C 
ATOM     14  C   UNL     1      33.404 -13.912 -23.549  0.00  0.00    +0.176 C 
ATOM     15  C   UNL     1      33.773 -12.926 -24.460  0.00  0.00    +0.173 C 
ENDROOT
BRANCH  15  16
ATOM     16  O   UNL     1      34.338 -13.268 -25.653  0.00  0.00    -0.468 OA
ATOM     17  C   UNL     1      33.456 -13.441 -26.760  0.00  0.00    +0.253 C 
ENDBRANCH  15  16
BRANCH   6  18
ATOM     18  C   UNL     1      31.950  -5.721 -21.296  0.00  0.00    +0.133 C 
ATOM     19  C   UNL     1      30.464  -5.357 -21.367  0.00  0.00    +0.037 C 
BRANCH  18  20
ATOM     20  O   UNL     1      32.401  -5.529 -19.949  0.00  0.00    -0.380 OA
ATOM     21  H   UNL     1      33.314  -5.845 -19.866  0.00  0.00    +0.211 HD
ENDBRANCH  18  20
ENDBRANCH   6  18
BRANCH  14  22
ATOM     22  O   UNL     1      33.599 -15.229 -23.832  0.00  0.00    -0.467 OA
BRANCH  22  23
ATOM     23  C   UNL     1      34.945 -15.703 -23.822  0.00  0.00    +0.232 C 
BRANCH  23  24
ATOM     24  C   UNL     1      35.012 -16.970 -23.020  0.00  0.00    +0.021 C 
ATOM     25  C   UNL     1      35.128 -16.903 -21.637  0.00  0.00    +0.002 C 
ATOM     26  C   UNL     1      34.959 -18.199 -23.669  0.00  0.00    +0.002 C 
ATOM     27  C   UNL     1      35.190 -18.081 -20.891  0.00  0.00    +0.037 C 
ATOM     28  C   UNL     1      35.022 -19.376 -22.924  0.00  0.00    +0.037 C 
ATOM     29  C   UNL     1      35.137 -19.317 -21.535  0.00  0.00    +0.139 C 
BRANCH  29  30
ATOM     30  O   UNL     1      35.198 -20.466 -20.807  0.00  0.00    -0.471 OA
ATOM     31  C   UNL     1      34.090 -20.756 -19.958  0.00  0.00    +0.252 C 
ENDBRANCH  29  30
ENDBRANCH  23  24
ENDBRANCH  22  23
ENDBRANCH  14  22
TORSDOF 7
ENDMDL
MODEL 7
REMARK VINA RESULT:     -10.0      8.652     13.584
REMARK  Name = 11998575
REMARK  7 active torsions:
REMARK  status: ('A' for Active; 'I' for Inactive)
REMARK    1  A    between atoms: C_6  and  C_18
REMARK    2  A    between atoms: C_14  and  O_22
REMARK    3  A    between atoms: C_15  and  O_16
REMARK    4  A    between atoms: C_18  and  O_20
REMARK    5  A    between atoms: O_22  and  C_23
REMARK    6  A    between atoms: C_23  and  C_24
REMARK    7  A    between atoms: C_29  and  O_30
REMARK                            x       y       z     vdW  Elec       q    Type
REMARK                         _______ _______ _______ _____ _____    ______ ____
ROOT
ATOM      1  O   UNL     1      33.407 -13.217 -24.113  0.00  0.00    -0.421 OA
ATOM      2  O   UNL     1      34.248 -14.896 -25.408  0.00  0.00    -0.244 OA
ATOM      3  C   UNL     1      33.882 -14.764 -21.794  0.00  0.00    +0.009 A 
ATOM      4  C   UNL     1      33.290 -13.425 -21.683  0.00  0.00    +0.038 A 
ATOM      5  C   UNL     1      34.211 -15.270 -23.064  0.00  0.00    +0.076 A 
ATOM      6  C   UNL     1      35.028 -17.336 -22.097  0.00  0.00    +0.004 C 
ATOM      7  C   UNL     1      33.070 -12.690 -22.849  0.00  0.00    +0.152 A 
ATOM      8  C   UNL     1      34.779 -16.545 -23.214  0.00  0.00    +0.004 C 
ATOM      9  C   UNL     1      34.146 -15.588 -20.683  0.00  0.00    +0.000 C 
ATOM     10  C   UNL     1      32.920 -12.813 -20.474  0.00  0.00    +0.043 C 
ATOM     11  C   UNL     1      34.711 -16.859 -20.832  0.00  0.00    -0.002 C 
ATOM     12  C   UNL     1      33.969 -14.475 -24.292  0.00  0.00    +0.346 A 
ATOM     13  C   UNL     1      32.511 -11.409 -22.846  0.00  0.00    +0.078 C 
ATOM     14  C   UNL     1      32.153 -10.829 -21.635  0.00  0.00    +0.176 C 
ATOM     15  C   UNL     1      32.357 -11.530 -20.450  0.00  0.00    +0.173 C 
ENDROOT
BRANCH  15  16
ATOM     16  O   UNL     1      32.012 -10.975 -19.254  0.00  0.00    -0.468 OA
ATOM     17  C   UNL     1      30.621 -10.910 -18.949  0.00  0.00    +0.253 C 
ENDBRANCH  15  16
BRANCH   6  18
ATOM     18  C   UNL     1      35.630 -18.691 -22.257  0.00  0.00    +0.133 C 
ATOM     19  C   UNL     1      35.014 -19.480 -23.416  0.00  0.00    +0.037 C 
BRANCH  18  20
ATOM     20  O   UNL     1      37.040 -18.577 -22.483  0.00  0.00    -0.380 OA
ATOM     21  H   UNL     1      37.372 -17.774 -22.052  0.00  0.00    +0.211 HD
ENDBRANCH  18  20
ENDBRANCH   6  18
BRANCH  14  22
ATOM     22  O   UNL     1      31.607  -9.582 -21.621  0.00  0.00    -0.467 OA
BRANCH  22  23
ATOM     23  C   UNL     1      32.461  -8.503 -21.243  0.00  0.00    +0.232 C 
BRANCH  23  24
ATOM     24  C   UNL     1      31.931  -7.230 -21.834  0.00  0.00    +0.021 C 
ATOM     25  C   UNL     1      32.312  -6.855 -23.117  0.00  0.00    +0.002 C 
ATOM     26  C   UNL     1      31.064  -6.434 -21.091  0.00  0.00    +0.002 C 
ATOM     27  C   UNL     1      31.820  -5.671 -23.667  0.00  0.00    +0.037 C 
ATOM     28  C   UNL     1      30.572  -5.250 -21.640  0.00  0.00    +0.037 C 
ATOM     29  C   UNL     1      30.950  -4.869 -22.928  0.00  0.00    +0.139 C 
BRANCH  29  30
ATOM     30  O   UNL     1      30.469  -3.714 -23.464  0.00  0.00    -0.471 OA
ATOM     31  C   UNL     1      31.293  -2.554 -23.353  0.00  0.00    +0.252 C 
ENDBRANCH  29  30
ENDBRANCH  23  24
ENDBRANCH  22  23
ENDBRANCH  14  22
TORSDOF 7
ENDMDL
MODEL 8
REMARK VINA RESULT:     -10.0      1.923      8.776
REMARK  Name = 11998575
REMARK  7 active torsions:
REMARK  status: ('A' for Active; 'I' for Inactive)
REMARK    1  A    between atoms: C_6  and  C_18
REMARK    2  A    between atoms: C_14  and  O_22
REMARK    3  A    between atoms: C_15  and  O_16
REMARK    4  A    between atoms: C_18  and  O_20
REMARK    5  A    between atoms: O_22  and  C_23
REMARK    6  A    between atoms: C_23  and  C_24
REMARK    7  A    between atoms: C_29  and  O_30
REMARK                            x       y       z     vdW  Elec       q    Type
REMARK                         _______ _______ _______ _____ _____    ______ ____
ROOT
ATOM      1  O   UNL     1      36.053 -22.920 -16.231  0.00  0.00    -0.421 OA
ATOM      2  O   UNL     1      35.879 -23.975 -14.217  0.00  0.00    -0.244 OA
ATOM      3  C   UNL     1      33.240 -22.995 -16.515  0.00  0.00    +0.009 A 
ATOM      4  C   UNL     1      34.074 -22.388 -17.560  0.00  0.00    +0.038 A 
ATOM      5  C   UNL     1      33.852 -23.537 -15.372  0.00  0.00    +0.076 A 
ATOM      6  C   UNL     1      31.705 -24.182 -14.453  0.00  0.00    +0.004 C 
ATOM      7  C   UNL     1      35.460 -22.369 -17.386  0.00  0.00    +0.152 A 
ATOM      8  C   UNL     1      33.090 -24.126 -14.350  0.00  0.00    +0.004 C 
ATOM      9  C   UNL     1      31.835 -23.066 -16.591  0.00  0.00    +0.000 C 
ATOM     10  C   UNL     1      33.582 -21.816 -18.744  0.00  0.00    +0.043 C 
ATOM     11  C   UNL     1      31.077 -23.652 -15.573  0.00  0.00    -0.002 C 
ATOM     12  C   UNL     1      35.325 -23.509 -15.205  0.00  0.00    +0.346 A 
ATOM     13  C   UNL     1      36.337 -21.816 -18.324  0.00  0.00    +0.078 C 
ATOM     14  C   UNL     1      35.820 -21.257 -19.486  0.00  0.00    +0.176 C 
ATOM     15  C   UNL     1      34.444 -21.257 -19.697  0.00  0.00    +0.173 C 
ENDROOT
BRANCH  15  16
ATOM     16  O   UNL     1      33.922 -20.713 -20.832  0.00  0.00    -0.468 OA
ATOM     17  C   UNL     1      32.757 -19.905 -20.685  0.00  0.00    +0.253 C 
ENDBRANCH  15  16
BRANCH   6  18
ATOM     18  C   UNL     1      30.896 -24.807 -13.368  0.00  0.00    +0.133 C 
ATOM     19  C   UNL     1      29.653 -25.530 -13.897  0.00  0.00    +0.037 C 
BRANCH  18  20
ATOM     20  O   UNL     1      31.695 -25.750 -12.642  0.00  0.00    -0.380 OA
ATOM     21  H   UNL     1      32.517 -25.919 -13.129  0.00  0.00    +0.211 HD
ENDBRANCH  18  20
ENDBRANCH   6  18
BRANCH  14  22
ATOM     22  O   UNL     1      36.665 -20.718 -20.407  0.00  0.00    -0.467 OA
BRANCH  22  23
ATOM     23  C   UNL     1      37.028 -19.349 -20.231  0.00  0.00    +0.232 C 
BRANCH  23  24
ATOM     24  C   UNL     1      36.292 -18.514 -21.238  0.00  0.00    +0.021 C 
ATOM     25  C   UNL     1      36.259 -18.911 -22.569  0.00  0.00    +0.002 C 
ATOM     26  C   UNL     1      35.650 -17.349 -20.829  0.00  0.00    +0.002 C 
ATOM     27  C   UNL     1      35.575 -18.135 -23.506  0.00  0.00    +0.037 C 
ATOM     28  C   UNL     1      34.966 -16.574 -21.765  0.00  0.00    +0.037 C 
ATOM     29  C   UNL     1      34.928 -16.966 -23.103  0.00  0.00    +0.139 C 
BRANCH  29  30
ATOM     30  O   UNL     1      34.261 -16.210 -24.016  0.00  0.00    -0.471 OA
ATOM     31  C   UNL     1      33.771 -14.944 -23.577  0.00  0.00    +0.252 C 
ENDBRANCH  29  30
ENDBRANCH  23  24
ENDBRANCH  22  23
ENDBRANCH  14  22
TORSDOF 7
ENDMDL
MODEL 9
REMARK VINA RESULT:      -9.7      5.292      9.022
REMARK  Name = 11998575
REMARK  7 active torsions:
REMARK  status: ('A' for Active; 'I' for Inactive)
REMARK    1  A    between atoms: C_6  and  C_18
REMARK    2  A    between atoms: C_14  and  O_22
REMARK    3  A    between atoms: C_15  and  O_16
REMARK    4  A    between atoms: C_18  and  O_20
REMARK    5  A    between atoms: O_22  and  C_23
REMARK    6  A    between atoms: C_23  and  C_24
REMARK    7  A    between atoms: C_29  and  O_30
REMARK                            x       y       z     vdW  Elec       q    Type
REMARK                         _______ _______ _______ _____ _____    ______ ____
ROOT
ATOM      1  O   UNL     1      32.857 -14.057 -19.923  0.00  0.00    -0.421 OA
ATOM      2  O   UNL     1      31.765 -12.131 -19.380  0.00  0.00    -0.244 OA
ATOM      3  C   UNL     1      33.598 -12.938 -22.412  0.00  0.00    +0.009 A 
ATOM      4  C   UNL     1      34.011 -14.303 -22.062  0.00  0.00    +0.038 A 
ATOM      5  C   UNL     1      32.831 -12.194 -21.499  0.00  0.00    +0.076 A 
ATOM      6  C   UNL     1      32.761 -10.300 -23.009  0.00  0.00    +0.004 C 
ATOM      7  C   UNL     1      33.627 -14.823 -20.824  0.00  0.00    +0.152 A 
ATOM      8  C   UNL     1      32.417 -10.885 -21.796  0.00  0.00    +0.004 C 
ATOM      9  C   UNL     1      33.931 -12.319 -23.633  0.00  0.00    +0.000 C 
ATOM     10  C   UNL     1      34.775 -15.144 -22.887  0.00  0.00    +0.043 C 
ATOM     11  C   UNL     1      33.518 -11.016 -23.928  0.00  0.00    -0.002 C 
ATOM     12  C   UNL     1      32.432 -12.762 -20.189  0.00  0.00    +0.346 A 
ATOM     13  C   UNL     1      33.969 -16.111 -20.401  0.00  0.00    +0.078 C 
ATOM     14  C   UNL     1      34.726 -16.920 -21.239  0.00  0.00    +0.176 C 
ATOM     15  C   UNL     1      35.128 -16.438 -22.481  0.00  0.00    +0.173 C 
ENDROOT
BRANCH  15  16
ATOM     16  O   UNL     1      35.870 -17.220 -23.316  0.00  0.00    -0.468 OA
ATOM     17  C   UNL     1      35.195 -17.798 -24.430  0.00  0.00    +0.253 C 
ENDBRANCH  15  16
BRANCH   6  18
ATOM     18  C   UNL     1      32.320  -8.911 -23.325  0.00  0.00    +0.133 C 
ATOM     19  C   UNL     1      31.211  -8.415 -22.390  0.00  0.00    +0.037 C 
BRANCH  18  20
ATOM     20  O   UNL     1      33.430  -8.010 -23.230  0.00  0.00    -0.380 OA
ATOM     21  H   UNL     1      33.569  -7.765 -22.302  0.00  0.00    +0.211 HD
ENDBRANCH  18  20
ENDBRANCH   6  18
BRANCH  14  22
ATOM     22  O   UNL     1      35.063 -18.176 -20.837  0.00  0.00    -0.467 OA
BRANCH  22  23
ATOM     23  C   UNL     1      34.262 -19.251 -21.326  0.00  0.00    +0.232 C 
BRANCH  23  24
ATOM     24  C   UNL     1      34.228 -20.343 -20.296  0.00  0.00    +0.021 C 
ATOM     25  C   UNL     1      33.013 -20.730 -19.744  0.00  0.00    +0.002 C 
ATOM     26  C   UNL     1      35.413 -20.955 -19.902  0.00  0.00    +0.002 C 
ATOM     27  C   UNL     1      32.981 -21.745 -18.785  0.00  0.00    +0.037 C 
ATOM     28  C   UNL     1      35.382 -21.968 -18.944  0.00  0.00    +0.037 C 
ATOM     29  C   UNL     1      34.166 -22.363 -18.386  0.00  0.00    +0.139 C 
BRANCH  29  30
ATOM     30  O   UNL     1      34.135 -23.352 -17.452  0.00  0.00    -0.471 OA
ATOM     31  C   UNL     1      33.047 -23.341 -16.529  0.00  0.00    +0.252 C 
ENDBRANCH  29  30
ENDBRANCH  23  24
ENDBRANCH  22  23
ENDBRANCH  14  22
TORSDOF 7
ENDMDL
