MODEL 1
REMARK VINA RESULT:     -12.2      0.000      0.000
REMARK  Name = 25145656
REMARK  4 active torsions:
REMARK  status: ('A' for Active; 'I' for Inactive)
REMARK    1  A    between atoms: C_5  and  C_22
REMARK    2  A    between atoms: C_8  and  C_11
REMARK    3  A    between atoms: C_14  and  C_19
REMARK    4  A    between atoms: C_22  and  C_24
REMARK                            x       y       z     vdW  Elec       q    Type
REMARK                         _______ _______ _______ _____ _____    ______ ____
ROOT
ATOM      1  N   UNL     1      34.456 -15.535 -23.711  0.00  0.00    -0.134 N 
ATOM      2  N   UNL     1      34.153 -14.380 -23.078  0.00  0.00    -0.168 NA
ATOM      3  N   UNL     1      34.672 -17.035 -25.331  0.00  0.00    -0.178 NA
ATOM      4  N   UNL     1      33.661 -14.899 -25.854  0.00  0.00    -0.200 NA
ATOM      5  C   UNL     1      35.040 -16.632 -23.138  0.00  0.00    +0.086 C 
ATOM      6  C   UNL     1      34.245 -15.818 -25.046  0.00  0.00    +0.114 C 
ATOM      7  C   UNL     1      35.163 -17.543 -24.157  0.00  0.00    +0.124 C 
ATOM      8  C   UNL     1      33.613 -13.478 -23.841  0.00  0.00    +0.103 C 
ATOM      9  C   UNL     1      33.345 -13.776 -25.296  0.00  0.00    +0.184 C 
ENDROOT
BRANCH   8  11
ATOM     10  F   UNL     1      31.129 -10.754 -20.685  0.00  0.00    -0.204 F 
ATOM     11  C   UNL     1      33.248 -12.154 -23.285  0.00  0.00    +0.019 C 
ATOM     12  C   UNL     1      32.343 -12.069 -22.226  0.00  0.00    +0.031 C 
ATOM     13  C   UNL     1      33.808 -10.994 -23.818  0.00  0.00    +0.002 C 
ATOM     14  C   UNL     1      32.559  -9.663 -22.236  0.00  0.00    +0.081 C 
ATOM     15  C   UNL     1      31.999 -10.824 -21.702  0.00  0.00    +0.144 C 
ATOM     16  C   UNL     1      33.464  -9.749 -23.294  0.00  0.00    +0.007 C 
BRANCH  14  19
ATOM     17  O   UNL     1      32.703  -7.966 -20.623  0.00  0.00    -0.270 OA
ATOM     18  N   UNL     1      31.306  -7.587 -22.434  0.00  0.00    -0.299 N 
ATOM     19  C   UNL     1      32.204  -8.362 -21.691  0.00  0.00    +0.248 C 
ATOM     20  C   UNL     1      30.875  -6.265 -22.039  0.00  0.00    +0.111 C 
ATOM     21  H   UNL     1      30.948  -7.961 -23.271  0.00  0.00    +0.150 HD
ENDBRANCH  14  19
ENDBRANCH   8  11
BRANCH   5  22
ATOM     22  C   UNL     1      35.424 -16.704 -21.673  0.00  0.00    +0.068 C 
BRANCH  22  24
ATOM     23  N   UNL     1      35.842 -21.976 -19.661  0.00  0.00    -0.248 NA
ATOM     24  C   UNL     1      35.524 -18.094 -21.142  0.00  0.00    -0.038 C 
ATOM     25  C   UNL     1      34.375 -18.784 -20.767  0.00  0.00    +0.050 C 
ATOM     26  C   UNL     1      34.465 -20.093 -20.266  0.00  0.00    -0.004 C 
ATOM     27  C   UNL     1      36.765 -18.707 -21.018  0.00  0.00    -0.028 C 
ATOM     28  C   UNL     1      35.721 -20.723 -20.137  0.00  0.00    +0.060 C 
ATOM     29  C   UNL     1      36.853 -20.009 -20.520  0.00  0.00    +0.071 C 
ATOM     30  C   UNL     1      33.325 -20.812 -19.882  0.00  0.00    -0.001 C 
ATOM     31  C   UNL     1      33.447 -22.104 -19.390  0.00  0.00    +0.020 C 
ATOM     32  C   UNL     1      34.716 -22.635 -19.301  0.00  0.00    +0.098 C 
ENDBRANCH  22  24
ENDBRANCH   5  22
TORSDOF 4
ENDMDL
MODEL 2
REMARK VINA RESULT:     -12.1      3.801      7.049
REMARK  Name = 25145656
REMARK  4 active torsions:
REMARK  status: ('A' for Active; 'I' for Inactive)
REMARK    1  A    between atoms: C_5  and  C_22
REMARK    2  A    between atoms: C_8  and  C_11
REMARK    3  A    between atoms: C_14  and  C_19
REMARK    4  A    between atoms: C_22  and  C_24
REMARK                            x       y       z     vdW  Elec       q    Type
REMARK                         _______ _______ _______ _____ _____    ______ ____
ROOT
ATOM      1  N   UNL     1      32.145  -9.431 -20.747  0.00  0.00    -0.134 N 
ATOM      2  N   UNL     1      32.539  -8.884 -21.918  0.00  0.00    -0.168 NA
ATOM      3  N   UNL     1      31.716  -9.645 -18.581  0.00  0.00    -0.178 NA
ATOM      4  N   UNL     1      32.694  -7.577 -19.371  0.00  0.00    -0.200 NA
ATOM      5  C   UNL     1      31.614 -10.682 -20.586  0.00  0.00    +0.086 C 
ATOM      6  C   UNL     1      32.193  -8.830 -19.504  0.00  0.00    +0.114 C 
ATOM      7  C   UNL     1      31.357 -10.790 -19.243  0.00  0.00    +0.124 C 
ATOM      8  C   UNL     1      33.001  -7.674 -21.815  0.00  0.00    +0.103 C 
ATOM      9  C   UNL     1      33.092  -7.009 -20.462  0.00  0.00    +0.184 C 
ENDROOT
BRANCH   8  11
ATOM     10  F   UNL     1      32.283  -4.310 -25.238  0.00  0.00    -0.204 F 
ATOM     11  C   UNL     1      33.451  -6.944 -23.022  0.00  0.00    +0.019 C 
ATOM     12  C   UNL     1      32.644  -5.951 -23.577  0.00  0.00    +0.031 C 
ATOM     13  C   UNL     1      34.682  -7.248 -23.604  0.00  0.00    +0.002 C 
ATOM     14  C   UNL     1      34.298  -5.567 -25.296  0.00  0.00    +0.081 C 
ATOM     15  C   UNL     1      33.068  -5.263 -24.714  0.00  0.00    +0.144 C 
ATOM     16  C   UNL     1      35.105  -6.560 -24.741  0.00  0.00    +0.007 C 
BRANCH  14  19
ATOM     17  O   UNL     1      33.924  -4.475 -27.337  0.00  0.00    -0.270 OA
ATOM     18  N   UNL     1      36.115  -4.596 -26.590  0.00  0.00    -0.299 N 
ATOM     19  C   UNL     1      34.743  -4.852 -26.481  0.00  0.00    +0.248 C 
ATOM     20  C   UNL     1      36.709  -3.877 -27.694  0.00  0.00    +0.111 C 
ATOM     21  H   UNL     1      36.709  -4.924 -25.876  0.00  0.00    +0.150 HD
ENDBRANCH  14  19
ENDBRANCH   8  11
BRANCH   5  22
ATOM     22  C   UNL     1      31.403 -11.652 -21.732  0.00  0.00    +0.068 C 
BRANCH  22  24
ATOM     23  N   UNL     1      34.719 -16.230 -21.466  0.00  0.00    -0.248 NA
ATOM     24  C   UNL     1      32.278 -12.858 -21.672  0.00  0.00    -0.038 C 
ATOM     25  C   UNL     1      32.823 -13.387 -22.838  0.00  0.00    +0.050 C 
ATOM     26  C   UNL     1      33.648 -14.522 -22.786  0.00  0.00    -0.004 C 
ATOM     27  C   UNL     1      32.555 -13.461 -20.451  0.00  0.00    -0.028 C 
ATOM     28  C   UNL     1      33.933 -15.141 -21.551  0.00  0.00    +0.060 C 
ATOM     29  C   UNL     1      33.375 -14.591 -20.400  0.00  0.00    +0.071 C 
ATOM     30  C   UNL     1      34.210 -15.074 -23.945  0.00  0.00    -0.001 C 
ATOM     31  C   UNL     1      35.021 -16.198 -23.860  0.00  0.00    +0.020 C 
ATOM     32  C   UNL     1      35.242 -16.732 -22.608  0.00  0.00    +0.098 C 
ENDBRANCH  22  24
ENDBRANCH   5  22
TORSDOF 4
ENDMDL
MODEL 3
REMARK VINA RESULT:     -12.0      4.135     10.195
REMARK  Name = 25145656
REMARK  4 active torsions:
REMARK  status: ('A' for Active; 'I' for Inactive)
REMARK    1  A    between atoms: C_5  and  C_22
REMARK    2  A    between atoms: C_8  and  C_11
REMARK    3  A    between atoms: C_14  and  C_19
REMARK    4  A    between atoms: C_22  and  C_24
REMARK                            x       y       z     vdW  Elec       q    Type
REMARK                         _______ _______ _______ _____ _____    ______ ____
ROOT
ATOM      1  N   UNL     1      34.736 -16.949 -22.404  0.00  0.00    -0.134 N 
ATOM      2  N   UNL     1      34.615 -17.788 -21.351  0.00  0.00    -0.168 NA
ATOM      3  N   UNL     1      34.995 -16.237 -24.489  0.00  0.00    -0.178 NA
ATOM      4  N   UNL     1      35.048 -18.618 -24.060  0.00  0.00    -0.200 NA
ATOM      5  C   UNL     1      34.674 -15.583 -22.349  0.00  0.00    +0.086 C 
ATOM      6  C   UNL     1      34.934 -17.311 -23.722  0.00  0.00    +0.114 C 
ATOM      7  C   UNL     1      34.836 -15.167 -23.647  0.00  0.00    +0.124 C 
ATOM      8  C   UNL     1      34.698 -19.048 -21.659  0.00  0.00    +0.103 C 
ATOM      9  C   UNL     1      34.944 -19.465 -23.089  0.00  0.00    +0.184 C 
ENDROOT
BRANCH   8  11
ATOM     10  F   UNL     1      36.671 -22.225 -18.567  0.00  0.00    -0.204 F 
ATOM     11  C   UNL     1      34.561 -20.081 -20.607  0.00  0.00    +0.019 C 
ATOM     12  C   UNL     1      35.699 -20.682 -20.069  0.00  0.00    +0.031 C 
ATOM     13  C   UNL     1      33.295 -20.453 -20.154  0.00  0.00    +0.002 C 
ATOM     14  C   UNL     1      34.305 -22.028 -18.625  0.00  0.00    +0.081 C 
ATOM     15  C   UNL     1      35.570 -21.655 -19.078  0.00  0.00    +0.144 C 
ATOM     16  C   UNL     1      33.167 -21.426 -19.164  0.00  0.00    +0.007 C 
BRANCH  14  19
ATOM     17  O   UNL     1      33.361 -23.978 -17.729  0.00  0.00    -0.270 OA
ATOM     18  N   UNL     1      34.991 -22.918 -16.467  0.00  0.00    -0.299 N 
ATOM     19  C   UNL     1      34.167 -23.041 -17.591  0.00  0.00    +0.248 C 
ATOM     20  C   UNL     1      34.989 -23.856 -15.368  0.00  0.00    +0.111 C 
ATOM     21  H   UNL     1      35.606 -22.150 -16.421  0.00  0.00    +0.150 HD
ENDBRANCH  14  19
ENDBRANCH   8  11
BRANCH   5  22
ATOM     22  C   UNL     1      34.466 -14.807 -21.064  0.00  0.00    +0.068 C 
BRANCH  22  24
ATOM     23  N   UNL     1      31.200 -10.221 -21.631  0.00  0.00    -0.248 NA
ATOM     24  C   UNL     1      33.612 -13.596 -21.221  0.00  0.00    -0.038 C 
ATOM     25  C   UNL     1      33.953 -12.613 -22.145  0.00  0.00    +0.050 C 
ATOM     26  C   UNL     1      33.151 -11.470 -22.296  0.00  0.00    -0.004 C 
ATOM     27  C   UNL     1      32.469 -13.440 -20.445  0.00  0.00    -0.028 C 
ATOM     28  C   UNL     1      31.990 -11.304 -21.512  0.00  0.00    +0.060 C 
ATOM     29  C   UNL     1      31.672 -12.303 -20.595  0.00  0.00    +0.071 C 
ATOM     30  C   UNL     1      33.471 -10.465 -23.219  0.00  0.00    -0.001 C 
ATOM     31  C   UNL     1      32.658  -9.347 -23.344  0.00  0.00    +0.020 C 
ATOM     32  C   UNL     1      31.544  -9.274 -22.534  0.00  0.00    +0.098 C 
ENDBRANCH  22  24
ENDBRANCH   5  22
TORSDOF 4
ENDMDL
MODEL 4
REMARK VINA RESULT:     -11.8      4.191      9.960
REMARK  Name = 25145656
REMARK  4 active torsions:
REMARK  status: ('A' for Active; 'I' for Inactive)
REMARK    1  A    between atoms: C_5  and  C_22
REMARK    2  A    between atoms: C_8  and  C_11
REMARK    3  A    between atoms: C_14  and  C_19
REMARK    4  A    between atoms: C_22  and  C_24
REMARK                            x       y       z     vdW  Elec       q    Type
REMARK                         _______ _______ _______ _____ _____    ______ ____
ROOT
ATOM      1  N   UNL     1      34.882 -17.427 -22.748  0.00  0.00    -0.134 N 
ATOM      2  N   UNL     1      34.835 -18.148 -21.605  0.00  0.00    -0.168 NA
ATOM      3  N   UNL     1      34.902 -16.942 -24.912  0.00  0.00    -0.178 NA
ATOM      4  N   UNL     1      34.791 -19.266 -24.244  0.00  0.00    -0.200 NA
ATOM      5  C   UNL     1      34.958 -16.063 -22.831  0.00  0.00    +0.086 C 
ATOM      6  C   UNL     1      34.852 -17.928 -24.034  0.00  0.00    +0.114 C 
ATOM      7  C   UNL     1      34.969 -15.789 -24.176  0.00  0.00    +0.124 C 
ATOM      8  C   UNL     1      34.753 -19.432 -21.786  0.00  0.00    +0.103 C 
ATOM      9  C   UNL     1      34.749 -20.003 -23.183  0.00  0.00    +0.184 C 
ENDROOT
BRANCH   8  11
ATOM     10  F   UNL     1      36.895 -22.166 -18.396  0.00  0.00    -0.204 F 
ATOM     11  C   UNL     1      34.672 -20.343 -20.620  0.00  0.00    +0.019 C 
ATOM     12  C   UNL     1      35.840 -20.838 -20.042  0.00  0.00    +0.031 C 
ATOM     13  C   UNL     1      33.429 -20.705 -20.102  0.00  0.00    +0.002 C 
ATOM     14  C   UNL     1      34.522 -22.059 -18.426  0.00  0.00    +0.081 C 
ATOM     15  C   UNL     1      35.765 -21.696 -18.945  0.00  0.00    +0.144 C 
ATOM     16  C   UNL     1      33.354 -21.563 -19.005  0.00  0.00    +0.007 C 
BRANCH  14  19
ATOM     17  O   UNL     1      33.515 -23.779 -17.192  0.00  0.00    -0.270 OA
ATOM     18  N   UNL     1      35.450 -22.847 -16.319  0.00  0.00    -0.299 N 
ATOM     19  C   UNL     1      34.439 -22.952 -17.282  0.00  0.00    +0.248 C 
ATOM     20  C   UNL     1      35.520 -23.679 -15.140  0.00  0.00    +0.111 C 
ATOM     21  H   UNL     1      36.152 -22.169 -16.452  0.00  0.00    +0.150 HD
ENDBRANCH  14  19
ENDBRANCH   8  11
BRANCH   5  22
ATOM     22  C   UNL     1      35.012 -15.155 -21.620  0.00  0.00    +0.068 C 
BRANCH  22  24
ATOM     23  N   UNL     1      31.611 -10.648 -22.008  0.00  0.00    -0.248 NA
ATOM     24  C   UNL     1      34.112 -13.969 -21.712  0.00  0.00    -0.038 C 
ATOM     25  C   UNL     1      33.295 -13.624 -20.640  0.00  0.00    +0.050 C 
ATOM     26  C   UNL     1      32.446 -12.508 -20.723  0.00  0.00    -0.004 C 
ATOM     27  C   UNL     1      34.085 -13.201 -22.870  0.00  0.00    -0.028 C 
ATOM     28  C   UNL     1      32.413 -11.723 -21.895  0.00  0.00    +0.060 C 
ATOM     29  C   UNL     1      33.241 -12.091 -22.952  0.00  0.00    +0.071 C 
ATOM     30  C   UNL     1      31.614 -12.138 -19.658  0.00  0.00    -0.001 C 
ATOM     31  C   UNL     1      30.786 -11.030 -19.771  0.00  0.00    +0.020 C 
ATOM     32  C   UNL     1      30.823 -10.325 -20.956  0.00  0.00    +0.098 C 
ENDBRANCH  22  24
ENDBRANCH   5  22
TORSDOF 4
ENDMDL
MODEL 5
REMARK VINA RESULT:     -11.3      5.953     12.243
REMARK  Name = 25145656
REMARK  4 active torsions:
REMARK  status: ('A' for Active; 'I' for Inactive)
REMARK    1  A    between atoms: C_5  and  C_22
REMARK    2  A    between atoms: C_8  and  C_11
REMARK    3  A    between atoms: C_14  and  C_19
REMARK    4  A    between atoms: C_22  and  C_24
REMARK                            x       y       z     vdW  Elec       q    Type
REMARK                         _______ _______ _______ _____ _____    ______ ____
ROOT
ATOM      1  N   UNL     1      34.165 -21.531 -18.818  0.00  0.00    -0.134 N 
ATOM      2  N   UNL     1      35.228 -21.985 -18.118  0.00  0.00    -0.168 NA
ATOM      3  N   UNL     1      32.062 -21.190 -19.437  0.00  0.00    -0.178 NA
ATOM      4  N   UNL     1      32.496 -22.631 -17.541  0.00  0.00    -0.200 NA
ATOM      5  C   UNL     1      34.218 -20.699 -19.904  0.00  0.00    +0.086 C 
ATOM      6  C   UNL     1      32.837 -21.810 -18.565  0.00  0.00    +0.114 C 
ATOM      7  C   UNL     1      32.909 -20.503 -20.267  0.00  0.00    +0.124 C 
ATOM      8  C   UNL     1      34.921 -22.755 -17.118  0.00  0.00    +0.103 C 
ATOM      9  C   UNL     1      33.477 -23.098 -16.841  0.00  0.00    +0.184 C 
ENDROOT
BRANCH   8  11
ATOM     10  F   UNL     1      36.462 -26.007 -13.862  0.00  0.00    -0.204 F 
ATOM     11  C   UNL     1      35.986 -23.309 -16.250  0.00  0.00    +0.019 C 
ATOM     12  C   UNL     1      35.723 -24.418 -15.447  0.00  0.00    +0.031 C 
ATOM     13  C   UNL     1      37.251 -22.721 -16.237  0.00  0.00    +0.002 C 
ATOM     14  C   UNL     1      37.991 -24.353 -14.616  0.00  0.00    +0.081 C 
ATOM     15  C   UNL     1      36.726 -24.940 -14.630  0.00  0.00    +0.144 C 
ATOM     16  C   UNL     1      38.253 -23.243 -15.420  0.00  0.00    +0.007 C 
BRANCH  14  19
ATOM     17  O   UNL     1      39.122 -24.557 -12.572  0.00  0.00    -0.270 OA
ATOM     18  N   UNL     1      39.917 -25.815 -14.350  0.00  0.00    -0.299 N 
ATOM     19  C   UNL     1      39.039 -24.894 -13.766  0.00  0.00    +0.248 C 
ATOM     20  C   UNL     1      40.994 -26.458 -13.632  0.00  0.00    +0.111 C 
ATOM     21  H   UNL     1      39.796 -26.037 -15.301  0.00  0.00    +0.150 HD
ENDBRANCH  14  19
ENDBRANCH   8  11
BRANCH   5  22
ATOM     22  C   UNL     1      35.513 -20.171 -20.489  0.00  0.00    +0.068 C 
BRANCH  22  24
ATOM     23  N   UNL     1      34.804 -16.043 -24.294  0.00  0.00    -0.248 NA
ATOM     24  C   UNL     1      35.325 -19.076 -21.484  0.00  0.00    -0.038 C 
ATOM     25  C   UNL     1      35.105 -17.771 -21.055  0.00  0.00    +0.050 C 
ATOM     26  C   UNL     1      34.928 -16.736 -21.989  0.00  0.00    -0.004 C 
ATOM     27  C   UNL     1      35.369 -19.353 -22.845  0.00  0.00    -0.028 C 
ATOM     28  C   UNL     1      34.970 -17.010 -23.373  0.00  0.00    +0.060 C 
ATOM     29  C   UNL     1      35.192 -18.325 -23.773  0.00  0.00    +0.071 C 
ATOM     30  C   UNL     1      34.706 -15.413 -21.586  0.00  0.00    -0.001 C 
ATOM     31  C   UNL     1      34.533 -14.414 -22.534  0.00  0.00    +0.020 C 
ATOM     32  C   UNL     1      34.592 -14.778 -23.862  0.00  0.00    +0.098 C 
ENDBRANCH  22  24
ENDBRANCH   5  22
TORSDOF 4
ENDMDL
MODEL 6
REMARK VINA RESULT:     -11.0      3.431      6.411
REMARK  Name = 25145656
REMARK  4 active torsions:
REMARK  status: ('A' for Active; 'I' for Inactive)
REMARK    1  A    between atoms: C_5  and  C_22
REMARK    2  A    between atoms: C_8  and  C_11
REMARK    3  A    between atoms: C_14  and  C_19
REMARK    4  A    between atoms: C_22  and  C_24
REMARK                            x       y       z     vdW  Elec       q    Type
REMARK                         _______ _______ _______ _____ _____    ______ ____
ROOT
ATOM      1  N   UNL     1      35.503 -20.341 -20.073  0.00  0.00    -0.134 N 
ATOM      2  N   UNL     1      34.895 -19.294 -20.673  0.00  0.00    -0.168 NA
ATOM      3  N   UNL     1      37.108 -21.694 -19.356  0.00  0.00    -0.178 NA
ATOM      4  N   UNL     1      37.724 -19.755 -20.667  0.00  0.00    -0.200 NA
ATOM      5  C   UNL     1      34.876 -21.340 -19.379  0.00  0.00    +0.086 C 
ATOM      6  C   UNL     1      36.861 -20.591 -20.039  0.00  0.00    +0.114 C 
ATOM      7  C   UNL     1      35.887 -22.162 -18.946  0.00  0.00    +0.124 C 
ATOM      8  C   UNL     1      35.708 -18.469 -21.261  0.00  0.00    +0.103 C 
ATOM      9  C   UNL     1      37.193 -18.738 -21.263  0.00  0.00    +0.184 C 
ENDROOT
BRANCH   8  11
ATOM     10  F   UNL     1      34.622 -16.036 -25.318  0.00  0.00    -0.204 F 
ATOM     11  C   UNL     1      35.181 -17.264 -21.943  0.00  0.00    +0.019 C 
ATOM     12  C   UNL     1      35.147 -17.210 -23.336  0.00  0.00    +0.031 C 
ATOM     13  C   UNL     1      34.718 -16.184 -21.191  0.00  0.00    +0.002 C 
ATOM     14  C   UNL     1      34.188 -14.995 -23.227  0.00  0.00    +0.081 C 
ATOM     15  C   UNL     1      34.650 -16.076 -23.978  0.00  0.00    +0.144 C 
ATOM     16  C   UNL     1      34.222 -15.049 -21.834  0.00  0.00    +0.007 C 
BRANCH  14  19
ATOM     17  O   UNL     1      32.697 -13.895 -24.665  0.00  0.00    -0.270 OA
ATOM     18  N   UNL     1      34.294 -12.594 -23.602  0.00  0.00    -0.299 N 
ATOM     19  C   UNL     1      33.668 -13.811 -23.892  0.00  0.00    +0.248 C 
ATOM     20  C   UNL     1      33.880 -11.328 -24.164  0.00  0.00    +0.111 C 
ATOM     21  H   UNL     1      35.059 -12.599 -22.982  0.00  0.00    +0.150 HD
ENDBRANCH  14  19
ENDBRANCH   8  11
BRANCH   5  22
ATOM     22  C   UNL     1      33.374 -21.414 -19.196  0.00  0.00    +0.068 C 
BRANCH  22  24
ATOM     23  N   UNL     1      31.798 -24.240 -14.554  0.00  0.00    -0.248 NA
ATOM     24  C   UNL     1      32.949 -22.155 -17.974  0.00  0.00    -0.038 C 
ATOM     25  C   UNL     1      31.615 -22.142 -17.575  0.00  0.00    +0.050 C 
ATOM     26  C   UNL     1      31.211 -22.840 -16.425  0.00  0.00    -0.004 C 
ATOM     27  C   UNL     1      33.881 -22.864 -17.226  0.00  0.00    -0.028 C 
ATOM     28  C   UNL     1      32.152 -23.561 -15.661  0.00  0.00    +0.060 C 
ATOM     29  C   UNL     1      33.479 -23.557 -16.083  0.00  0.00    +0.071 C 
ATOM     30  C   UNL     1      29.875 -22.844 -16.002  0.00  0.00    -0.001 C 
ATOM     31  C   UNL     1      29.507 -23.543 -14.860  0.00  0.00    +0.020 C 
ATOM     32  C   UNL     1      30.498 -24.218 -14.179  0.00  0.00    +0.098 C 
ENDBRANCH  22  24
ENDBRANCH   5  22
TORSDOF 4
ENDMDL
MODEL 7
REMARK VINA RESULT:     -10.9      3.885     11.622
REMARK  Name = 25145656
REMARK  4 active torsions:
REMARK  status: ('A' for Active; 'I' for Inactive)
REMARK    1  A    between atoms: C_5  and  C_22
REMARK    2  A    between atoms: C_8  and  C_11
REMARK    3  A    between atoms: C_14  and  C_19
REMARK    4  A    between atoms: C_22  and  C_24
REMARK                            x       y       z     vdW  Elec       q    Type
REMARK                         _______ _______ _______ _____ _____    ______ ____
ROOT
ATOM      1  N   UNL     1      33.028  -9.280 -22.353  0.00  0.00    -0.134 N 
ATOM      2  N   UNL     1      33.515 -10.428 -22.875  0.00  0.00    -0.168 NA
ATOM      3  N   UNL     1      31.788  -7.898 -21.139  0.00  0.00    -0.178 NA
ATOM      4  N   UNL     1      31.347 -10.274 -21.006  0.00  0.00    -0.200 NA
ATOM      5  C   UNL     1      33.484  -8.019 -22.628  0.00  0.00    +0.086 C 
ATOM      6  C   UNL     1      31.995  -9.167 -21.444  0.00  0.00    +0.114 C 
ATOM      7  C   UNL     1      32.704  -7.185 -21.867  0.00  0.00    +0.124 C 
ATOM      8  C   UNL     1      32.923 -11.503 -22.449  0.00  0.00    +0.103 C 
ATOM      9  C   UNL     1      31.771 -11.400 -21.479  0.00  0.00    +0.184 C 
ENDROOT
BRANCH   8  11
ATOM     10  F   UNL     1      33.068 -14.950 -25.861  0.00  0.00    -0.204 F 
ATOM     11  C   UNL     1      33.367 -12.834 -22.922  0.00  0.00    +0.019 C 
ATOM     12  C   UNL     1      33.004 -13.279 -24.192  0.00  0.00    +0.031 C 
ATOM     13  C   UNL     1      34.149 -13.642 -22.096  0.00  0.00    +0.002 C 
ATOM     14  C   UNL     1      34.204 -15.341 -23.813  0.00  0.00    +0.081 C 
ATOM     15  C   UNL     1      33.423 -14.533 -24.638  0.00  0.00    +0.144 C 
ATOM     16  C   UNL     1      34.568 -14.896 -22.542  0.00  0.00    +0.007 C 
BRANCH  14  19
ATOM     17  O   UNL     1      35.005 -16.815 -25.452  0.00  0.00    -0.270 OA
ATOM     18  N   UNL     1      34.660 -17.682 -23.330  0.00  0.00    -0.299 N 
ATOM     19  C   UNL     1      34.644 -16.648 -24.274  0.00  0.00    +0.248 C 
ATOM     20  C   UNL     1      35.093 -19.029 -23.627  0.00  0.00    +0.111 C 
ATOM     21  H   UNL     1      34.360 -17.482 -22.414  0.00  0.00    +0.150 HD
ENDBRANCH  14  19
ENDBRANCH   8  11
BRANCH   5  22
ATOM     22  C   UNL     1      34.619  -7.733 -23.590  0.00  0.00    +0.068 C 
BRANCH  22  24
ATOM     23  N   UNL     1      33.866  -3.120 -26.779  0.00  0.00    -0.248 NA
ATOM     24  C   UNL     1      34.412  -6.516 -24.426  0.00  0.00    -0.038 C 
ATOM     25  C   UNL     1      33.259  -5.751 -24.275  0.00  0.00    +0.050 C 
ATOM     26  C   UNL     1      33.060  -4.604 -25.060  0.00  0.00    -0.004 C 
ATOM     27  C   UNL     1      35.369  -6.138 -25.360  0.00  0.00    -0.028 C 
ATOM     28  C   UNL     1      34.026  -4.213 -26.011  0.00  0.00    +0.060 C 
ATOM     29  C   UNL     1      35.170  -4.996 -26.141  0.00  0.00    +0.071 C 
ATOM     30  C   UNL     1      31.909  -3.815 -24.928  0.00  0.00    -0.001 C 
ATOM     31  C   UNL     1      31.741  -2.687 -25.720  0.00  0.00    +0.020 C 
ATOM     32  C   UNL     1      32.740  -2.386 -26.621  0.00  0.00    +0.098 C 
ENDBRANCH  22  24
ENDBRANCH   5  22
TORSDOF 4
ENDMDL
MODEL 8
REMARK VINA RESULT:     -10.8      4.184     11.583
REMARK  Name = 25145656
REMARK  4 active torsions:
REMARK  status: ('A' for Active; 'I' for Inactive)
REMARK    1  A    between atoms: C_5  and  C_22
REMARK    2  A    between atoms: C_8  and  C_11
REMARK    3  A    between atoms: C_14  and  C_19
REMARK    4  A    between atoms: C_22  and  C_24
REMARK                            x       y       z     vdW  Elec       q    Type
REMARK                         _______ _______ _______ _____ _____    ______ ____
ROOT
ATOM      1  N   UNL     1      32.972  -9.368 -22.214  0.00  0.00    -0.134 N 
ATOM      2  N   UNL     1      33.473 -10.506 -22.743  0.00  0.00    -0.168 NA
ATOM      3  N   UNL     1      31.703  -8.009 -21.004  0.00  0.00    -0.178 NA
ATOM      4  N   UNL     1      31.264 -10.388 -20.922  0.00  0.00    -0.200 NA
ATOM      5  C   UNL     1      33.432  -8.102 -22.457  0.00  0.00    +0.086 C 
ATOM      6  C   UNL     1      31.918  -9.272 -21.326  0.00  0.00    +0.114 C 
ATOM      7  C   UNL     1      32.633  -7.282 -21.700  0.00  0.00    +0.124 C 
ATOM      8  C   UNL     1      32.874 -11.589 -22.350  0.00  0.00    +0.103 C 
ATOM      9  C   UNL     1      31.700 -11.505 -21.404  0.00  0.00    +0.184 C 
ENDROOT
BRANCH   8  11
ATOM     10  F   UNL     1      33.118 -14.970 -25.823  0.00  0.00    -0.204 F 
ATOM     11  C   UNL     1      33.331 -12.911 -22.835  0.00  0.00    +0.019 C 
ATOM     12  C   UNL     1      33.006 -13.331 -24.124  0.00  0.00    +0.031 C 
ATOM     13  C   UNL     1      34.089 -13.736 -22.003  0.00  0.00    +0.002 C 
ATOM     14  C   UNL     1      34.193 -15.402 -23.750  0.00  0.00    +0.081 C 
ATOM     15  C   UNL     1      33.437 -14.576 -24.581  0.00  0.00    +0.144 C 
ATOM     16  C   UNL     1      34.519 -14.981 -22.460  0.00  0.00    +0.007 C 
BRANCH  14  19
ATOM     17  O   UNL     1      35.014 -16.851 -25.401  0.00  0.00    -0.270 OA
ATOM     18  N   UNL     1      34.666 -17.744 -23.290  0.00  0.00    -0.299 N 
ATOM     19  C   UNL     1      34.646 -16.700 -24.222  0.00  0.00    +0.248 C 
ATOM     20  C   UNL     1      35.112 -19.084 -23.600  0.00  0.00    +0.111 C 
ATOM     21  H   UNL     1      34.360 -17.556 -22.373  0.00  0.00    +0.150 HD
ENDBRANCH  14  19
ENDBRANCH   8  11
BRANCH   5  22
ATOM     22  C   UNL     1      34.588  -7.798 -23.388  0.00  0.00    +0.068 C 
BRANCH  22  24
ATOM     23  N   UNL     1      33.630  -3.404 -26.822  0.00  0.00    -0.248 NA
ATOM     24  C   UNL     1      34.345  -6.641 -24.296  0.00  0.00    -0.038 C 
ATOM     25  C   UNL     1      35.358  -6.183 -25.134  0.00  0.00    +0.050 C 
ATOM     26  C   UNL     1      35.134  -5.094 -25.992  0.00  0.00    -0.004 C 
ATOM     27  C   UNL     1      33.106  -6.012 -24.312  0.00  0.00    -0.028 C 
ATOM     28  C   UNL     1      33.878  -4.450 -26.013  0.00  0.00    +0.060 C 
ATOM     29  C   UNL     1      32.883  -4.928 -25.165  0.00  0.00    +0.071 C 
ATOM     30  C   UNL     1      36.136  -4.614 -26.846  0.00  0.00    -0.001 C 
ATOM     31  C   UNL     1      35.882  -3.534 -27.681  0.00  0.00    +0.020 C 
ATOM     32  C   UNL     1      34.625  -2.970 -27.631  0.00  0.00    +0.098 C 
ENDBRANCH  22  24
ENDBRANCH   5  22
TORSDOF 4
ENDMDL
MODEL 9
REMARK VINA RESULT:     -10.6      3.171      6.132
REMARK  Name = 25145656
REMARK  4 active torsions:
REMARK  status: ('A' for Active; 'I' for Inactive)
REMARK    1  A    between atoms: C_5  and  C_22
REMARK    2  A    between atoms: C_8  and  C_11
REMARK    3  A    between atoms: C_14  and  C_19
REMARK    4  A    between atoms: C_22  and  C_24
REMARK                            x       y       z     vdW  Elec       q    Type
REMARK                         _______ _______ _______ _____ _____    ______ ____
ROOT
ATOM      1  N   UNL     1      35.444 -20.245 -20.184  0.00  0.00    -0.134 N 
ATOM      2  N   UNL     1      34.803 -19.122 -20.578  0.00  0.00    -0.168 NA
ATOM      3  N   UNL     1      37.084 -21.690 -19.804  0.00  0.00    -0.178 NA
ATOM      4  N   UNL     1      37.614 -19.588 -20.881  0.00  0.00    -0.200 NA
ATOM      5  C   UNL     1      34.864 -21.330 -19.584  0.00  0.00    +0.086 C 
ATOM      6  C   UNL     1      36.796 -20.501 -20.303  0.00  0.00    +0.114 C 
ATOM      7  C   UNL     1      35.896 -22.206 -19.360  0.00  0.00    +0.124 C 
ATOM      8  C   UNL     1      35.575 -18.225 -21.113  0.00  0.00    +0.103 C 
ATOM      9  C   UNL     1      37.050 -18.496 -21.281  0.00  0.00    +0.184 C 
ENDROOT
BRANCH   8  11
ATOM     10  F   UNL     1      34.349 -15.171 -24.680  0.00  0.00    -0.204 F 
ATOM     11  C   UNL     1      35.009 -16.935 -21.572  0.00  0.00    +0.019 C 
ATOM     12  C   UNL     1      34.942 -16.649 -22.935  0.00  0.00    +0.031 C 
ATOM     13  C   UNL     1      34.544 -16.007 -20.640  0.00  0.00    +0.002 C 
ATOM     14  C   UNL     1      33.944 -14.506 -22.436  0.00  0.00    +0.081 C 
ATOM     15  C   UNL     1      34.409 -15.435 -23.367  0.00  0.00    +0.144 C 
ATOM     16  C   UNL     1      34.011 -14.792 -21.073  0.00  0.00    +0.007 C 
BRANCH  14  19
ATOM     17  O   UNL     1      32.178 -12.991 -22.730  0.00  0.00    -0.270 OA
ATOM     18  N   UNL     1      34.274 -12.324 -23.460  0.00  0.00    -0.299 N 
ATOM     19  C   UNL     1      33.387 -13.239 -22.883  0.00  0.00    +0.248 C 
ATOM     20  C   UNL     1      33.879 -11.015 -23.930  0.00  0.00    +0.111 C 
ATOM     21  H   UNL     1      35.219 -12.584 -23.552  0.00  0.00    +0.150 HD
ENDBRANCH  14  19
ENDBRANCH   8  11
BRANCH   5  22
ATOM     22  C   UNL     1      33.381 -21.423 -19.284  0.00  0.00    +0.068 C 
BRANCH  22  24
ATOM     23  N   UNL     1      32.150 -24.091 -14.447  0.00  0.00    -0.248 NA
ATOM     24  C   UNL     1      33.067 -22.128 -18.008  0.00  0.00    -0.038 C 
ATOM     25  C   UNL     1      34.086 -22.711 -17.260  0.00  0.00    +0.050 C 
ATOM     26  C   UNL     1      33.794 -23.376 -16.058  0.00  0.00    -0.004 C 
ATOM     27  C   UNL     1      31.754 -22.208 -17.558  0.00  0.00    -0.028 C 
ATOM     28  C   UNL     1      32.464 -23.461 -15.594  0.00  0.00    +0.060 C 
ATOM     29  C   UNL     1      31.464 -22.869 -16.362  0.00  0.00    +0.071 C 
ATOM     30  C   UNL     1      34.800 -23.970 -15.285  0.00  0.00    -0.001 C 
ATOM     31  C   UNL     1      34.479 -24.621 -14.101  0.00  0.00    +0.020 C 
ATOM     32  C   UNL     1      33.151 -24.652 -13.730  0.00  0.00    +0.098 C 
ENDBRANCH  22  24
ENDBRANCH   5  22
TORSDOF 4
ENDMDL
