MODEL 1
REMARK VINA RESULT:     -14.1      0.000      0.000
REMARK  Name = 89670174
REMARK  4 active torsions:
REMARK  status: ('A' for Active; 'I' for Inactive)
REMARK    1  A    between atoms: C_3  and  C_13
REMARK    2  A    between atoms: C_9  and  O_26
REMARK    3  A    between atoms: C_18  and  C_25
REMARK    4  A    between atoms: O_26  and  C_30
REMARK                            x       y       z     vdW  Elec       q    Type
REMARK                         _______ _______ _______ _____ _____    ______ ____
ROOT
ATOM      1  O   UNL     1      34.977 -19.552 -23.669  0.00  0.00    -0.479 OA
ATOM      2  C   UNL     1      35.312 -18.744 -21.386  0.00  0.00    +0.072 C 
ATOM      3  C   UNL     1      34.239 -19.810 -21.224  0.00  0.00    +0.085 C 
ATOM      4  C   UNL     1      35.301 -19.971 -22.290  0.00  0.00    +0.174 C 
ATOM      5  C   UNL     1      35.129 -17.639 -22.362  0.00  0.00    +0.018 C 
ATOM      6  C   UNL     1      34.953 -18.166 -23.648  0.00  0.00    +0.135 C 
ATOM      7  C   UNL     1      35.112 -16.265 -22.181  0.00  0.00    +0.036 C 
ATOM      8  C   UNL     1      34.755 -17.374 -24.762  0.00  0.00    +0.040 C 
ATOM      9  C   UNL     1      34.916 -15.442 -23.295  0.00  0.00    +0.145 C 
ATOM     10  C   UNL     1      34.739 -15.993 -24.576  0.00  0.00    +0.041 C 
ENDROOT
BRANCH   3  13
ATOM     11  N   UNL     1      35.379 -21.009 -19.290  0.00  0.00    -0.318 N 
ATOM     12  N   UNL     1      33.184 -21.283 -19.507  0.00  0.00    -0.318 N 
ATOM     13  C   UNL     1      34.253 -20.705 -20.004  0.00  0.00    +0.148 C 
ATOM     14  C   UNL     1      35.010 -21.838 -18.262  0.00  0.00    +0.059 C 
ATOM     15  C   UNL     1      33.636 -21.994 -18.418  0.00  0.00    +0.059 C 
ATOM     16  C   UNL     1      35.740 -22.447 -17.240  0.00  0.00    +0.019 C 
ATOM     17  C   UNL     1      32.931 -22.802 -17.511  0.00  0.00    +0.016 C 
ATOM     18  C   UNL     1      35.022 -23.248 -16.345  0.00  0.00    +0.073 C 
ATOM     19  C   UNL     1      33.642 -23.423 -16.477  0.00  0.00    +0.005 C 
ATOM     20  H   UNL     1      36.290 -20.689 -19.480  0.00  0.00    +0.148 HD
ATOM     21  H   UNL     1      32.259 -21.221 -19.839  0.00  0.00    +0.148 HD
BRANCH  18  25
ATOM     22  F   UNL     1      35.347 -25.214 -15.023  0.00  0.00    -0.166 F 
ATOM     23  F   UNL     1      37.095 -23.993 -15.414  0.00  0.00    -0.166 F 
ATOM     24  F   UNL     1      35.570 -23.291 -14.033  0.00  0.00    -0.166 F 
ATOM     25  C   UNL     1      35.745 -23.924 -15.228  0.00  0.00    +0.419 C 
ENDBRANCH  18  25
ENDBRANCH   3  13
BRANCH   9  26
ATOM     26  O   UNL     1      34.895 -14.067 -23.135  0.00  0.00    -0.454 OA
BRANCH  26  30
ATOM     27  O   UNL     1      31.949  -8.456 -23.151  0.00  0.00    -0.275 OA
ATOM     28  N   UNL     1      31.867 -10.478 -22.065  0.00  0.00    -0.270 N 
ATOM     29  N   UNL     1      31.788 -12.511 -20.859  0.00  0.00    -0.229 NA
ATOM     30  C   UNL     1      33.891 -13.533 -22.385  0.00  0.00    +0.146 C 
ATOM     31  C   UNL     1      33.422 -12.239 -22.619  0.00  0.00    +0.045 C 
ATOM     32  C   UNL     1      33.943 -11.411 -23.753  0.00  0.00    +0.042 C 
ATOM     33  C   UNL     1      33.321 -14.304 -21.378  0.00  0.00    +0.058 C 
ATOM     34  C   UNL     1      32.373 -11.770 -21.830  0.00  0.00    +0.133 C 
ATOM     35  C   UNL     1      33.819  -9.928 -23.441  0.00  0.00    +0.090 C 
ATOM     36  C   UNL     1      32.449  -9.554 -22.910  0.00  0.00    +0.227 C 
ATOM     37  C   UNL     1      32.280 -13.753 -20.654  0.00  0.00    +0.103 C 
ATOM     38  H   UNL     1      31.043 -10.214 -21.596  0.00  0.00    +0.156 HD
ENDBRANCH  26  30
ENDBRANCH   9  26
TORSDOF 4
ENDMDL
MODEL 2
REMARK VINA RESULT:     -13.7      5.827     11.333
REMARK  Name = 89670174
REMARK  4 active torsions:
REMARK  status: ('A' for Active; 'I' for Inactive)
REMARK    1  A    between atoms: C_3  and  C_13
REMARK    2  A    between atoms: C_9  and  O_26
REMARK    3  A    between atoms: C_18  and  C_25
REMARK    4  A    between atoms: O_26  and  C_30
REMARK                            x       y       z     vdW  Elec       q    Type
REMARK                         _______ _______ _______ _____ _____    ______ ____
ROOT
ATOM      1  O   UNL     1      37.149 -19.706 -20.005  0.00  0.00    -0.479 OA
ATOM      2  C   UNL     1      34.956 -19.563 -21.077  0.00  0.00    +0.072 C 
ATOM      3  C   UNL     1      35.244 -18.124 -20.681  0.00  0.00    +0.085 C 
ATOM      4  C   UNL     1      36.385 -19.035 -21.077  0.00  0.00    +0.174 C 
ATOM      5  C   UNL     1      35.027 -20.648 -20.065  0.00  0.00    +0.018 C 
ATOM      6  C   UNL     1      36.308 -20.683 -19.497  0.00  0.00    +0.135 C 
ATOM      7  C   UNL     1      34.070 -21.557 -19.643  0.00  0.00    +0.036 C 
ATOM      8  C   UNL     1      36.669 -21.589 -18.519  0.00  0.00    +0.040 C 
ATOM      9  C   UNL     1      34.413 -22.487 -18.656  0.00  0.00    +0.145 C 
ATOM     10  C   UNL     1      35.704 -22.502 -18.098  0.00  0.00    +0.041 C 
ENDROOT
BRANCH   3  13
ATOM     11  N   UNL     1      34.734 -17.111 -22.959  0.00  0.00    -0.318 N 
ATOM     12  N   UNL     1      34.502 -15.793 -21.184  0.00  0.00    -0.318 N 
ATOM     13  C   UNL     1      34.823 -16.997 -21.599  0.00  0.00    +0.148 C 
ATOM     14  C   UNL     1      34.327 -15.898 -23.454  0.00  0.00    +0.059 C 
ATOM     15  C   UNL     1      34.188 -15.093 -22.327  0.00  0.00    +0.059 C 
ATOM     16  C   UNL     1      34.076 -15.450 -24.752  0.00  0.00    +0.019 C 
ATOM     17  C   UNL     1      33.775 -13.759 -22.484  0.00  0.00    +0.016 C 
ATOM     18  C   UNL     1      33.666 -14.120 -24.890  0.00  0.00    +0.073 C 
ATOM     19  C   UNL     1      33.518 -13.288 -23.778  0.00  0.00    +0.005 C 
ATOM     20  H   UNL     1      34.928 -17.918 -23.488  0.00  0.00    +0.148 HD
ATOM     21  H   UNL     1      34.486 -15.463 -20.257  0.00  0.00    +0.148 HD
BRANCH  18  25
ATOM     22  F   UNL     1      34.158 -14.133 -27.230  0.00  0.00    -0.166 F 
ATOM     23  F   UNL     1      32.093 -13.788 -26.662  0.00  0.00    -0.166 F 
ATOM     24  F   UNL     1      33.581 -12.236 -26.337  0.00  0.00    -0.166 F 
ATOM     25  C   UNL     1      33.379 -13.583 -26.253  0.00  0.00    +0.419 C 
ENDBRANCH  18  25
ENDBRANCH   3  13
BRANCH   9  26
ATOM     26  O   UNL     1      33.471 -23.402 -18.220  0.00  0.00    -0.454 OA
BRANCH  26  30
ATOM     27  O   UNL     1      35.288 -24.419 -12.233  0.00  0.00    -0.275 OA
ATOM     28  N   UNL     1      33.532 -23.514 -13.405  0.00  0.00    -0.270 N 
ATOM     29  N   UNL     1      31.660 -22.642 -14.559  0.00  0.00    -0.229 NA
ATOM     30  C   UNL     1      32.884 -23.179 -17.011  0.00  0.00    +0.146 C 
ATOM     31  C   UNL     1      33.535 -23.503 -15.819  0.00  0.00    +0.045 C 
ATOM     32  C   UNL     1      34.936 -24.033 -15.811  0.00  0.00    +0.042 C 
ATOM     33  C   UNL     1      31.618 -22.605 -16.974  0.00  0.00    +0.058 C 
ATOM     34  C   UNL     1      32.884 -23.220 -14.620  0.00  0.00    +0.133 C 
ATOM     35  C   UNL     1      35.182 -24.893 -14.581  0.00  0.00    +0.090 C 
ATOM     36  C   UNL     1      34.706 -24.234 -13.302  0.00  0.00    +0.227 C 
ATOM     37  C   UNL     1      31.058 -22.357 -15.735  0.00  0.00    +0.103 C 
ATOM     38  H   UNL     1      33.121 -23.186 -12.573  0.00  0.00    +0.156 HD
ENDBRANCH  26  30
ENDBRANCH   9  26
TORSDOF 4
ENDMDL
MODEL 3
REMARK VINA RESULT:     -13.6      5.954     11.458
REMARK  Name = 89670174
REMARK  4 active torsions:
REMARK  status: ('A' for Active; 'I' for Inactive)
REMARK    1  A    between atoms: C_3  and  C_13
REMARK    2  A    between atoms: C_9  and  O_26
REMARK    3  A    between atoms: C_18  and  C_25
REMARK    4  A    between atoms: O_26  and  C_30
REMARK                            x       y       z     vdW  Elec       q    Type
REMARK                         _______ _______ _______ _____ _____    ______ ____
ROOT
ATOM      1  O   UNL     1      37.187 -19.790 -20.629  0.00  0.00    -0.479 OA
ATOM      2  C   UNL     1      34.849 -19.365 -21.203  0.00  0.00    +0.072 C 
ATOM      3  C   UNL     1      35.416 -17.969 -20.997  0.00  0.00    +0.085 C 
ATOM      4  C   UNL     1      36.300 -19.062 -21.559  0.00  0.00    +0.174 C 
ATOM      5  C   UNL     1      34.999 -20.398 -20.147  0.00  0.00    +0.018 C 
ATOM      6  C   UNL     1      36.357 -20.602 -19.872  0.00  0.00    +0.135 C 
ATOM      7  C   UNL     1      34.046 -21.129 -19.454  0.00  0.00    +0.036 C 
ATOM      8  C   UNL     1      36.804 -21.504 -18.926  0.00  0.00    +0.040 C 
ATOM      9  C   UNL     1      34.475 -22.052 -18.493  0.00  0.00    +0.145 C 
ATOM     10  C   UNL     1      35.843 -22.237 -18.232  0.00  0.00    +0.041 C 
ENDROOT
BRANCH   3  13
ATOM     11  N   UNL     1      34.816 -16.940 -23.246  0.00  0.00    -0.318 N 
ATOM     12  N   UNL     1      34.647 -15.638 -21.453  0.00  0.00    -0.318 N 
ATOM     13  C   UNL     1      34.957 -16.837 -21.890  0.00  0.00    +0.148 C 
ATOM     14  C   UNL     1      34.386 -15.724 -23.715  0.00  0.00    +0.059 C 
ATOM     15  C   UNL     1      34.288 -14.929 -22.577  0.00  0.00    +0.059 C 
ATOM     16  C   UNL     1      34.083 -15.267 -24.999  0.00  0.00    +0.019 C 
ATOM     17  C   UNL     1      33.865 -13.596 -22.708  0.00  0.00    +0.016 C 
ATOM     18  C   UNL     1      33.664 -13.937 -25.110  0.00  0.00    +0.073 C 
ATOM     19  C   UNL     1      33.556 -13.115 -23.986  0.00  0.00    +0.005 C 
ATOM     20  H   UNL     1      34.992 -17.742 -23.789  0.00  0.00    +0.148 HD
ATOM     21  H   UNL     1      34.666 -15.315 -20.523  0.00  0.00    +0.148 HD
BRANCH  18  25
ATOM     22  F   UNL     1      34.130 -13.856 -27.454  0.00  0.00    -0.166 F 
ATOM     23  F   UNL     1      32.052 -13.682 -26.859  0.00  0.00    -0.166 F 
ATOM     24  F   UNL     1      33.422 -12.031 -26.508  0.00  0.00    -0.166 F 
ATOM     25  C   UNL     1      33.323 -13.390 -26.456  0.00  0.00    +0.419 C 
ENDBRANCH  18  25
ENDBRANCH   3  13
BRANCH   9  26
ATOM     26  O   UNL     1      33.540 -22.790 -17.789  0.00  0.00    -0.454 OA
BRANCH  26  30
ATOM     27  O   UNL     1      30.030 -24.323 -12.739  0.00  0.00    -0.275 OA
ATOM     28  N   UNL     1      32.235 -24.148 -13.356  0.00  0.00    -0.270 N 
ATOM     29  N   UNL     1      34.522 -23.907 -13.911  0.00  0.00    -0.229 NA
ATOM     30  C   UNL     1      33.843 -23.138 -16.507  0.00  0.00    +0.146 C 
ATOM     31  C   UNL     1      32.841 -23.439 -15.583  0.00  0.00    +0.045 C 
ATOM     32  C   UNL     1      31.396 -23.472 -15.977  0.00  0.00    +0.042 C 
ATOM     33  C   UNL     1      35.178 -23.205 -16.127  0.00  0.00    +0.058 C 
ATOM     34  C   UNL     1      33.228 -23.815 -14.297  0.00  0.00    +0.133 C 
ATOM     35  C   UNL     1      30.503 -23.165 -14.784  0.00  0.00    +0.090 C 
ATOM     36  C   UNL     1      30.881 -23.960 -13.551  0.00  0.00    +0.227 C 
ATOM     37  C   UNL     1      35.461 -23.594 -14.830  0.00  0.00    +0.103 C 
ATOM     38  H   UNL     1      32.526 -24.540 -12.501  0.00  0.00    +0.156 HD
ENDBRANCH  26  30
ENDBRANCH   9  26
TORSDOF 4
ENDMDL
MODEL 4
REMARK VINA RESULT:     -13.0      5.590     11.228
REMARK  Name = 89670174
REMARK  4 active torsions:
REMARK  status: ('A' for Active; 'I' for Inactive)
REMARK    1  A    between atoms: C_3  and  C_13
REMARK    2  A    between atoms: C_9  and  O_26
REMARK    3  A    between atoms: C_18  and  C_25
REMARK    4  A    between atoms: O_26  and  C_30
REMARK                            x       y       z     vdW  Elec       q    Type
REMARK                         _______ _______ _______ _____ _____    ______ ____
ROOT
ATOM      1  O   UNL     1      36.508 -19.446 -21.436  0.00  0.00    -0.479 OA
ATOM      2  C   UNL     1      34.213 -18.694 -21.053  0.00  0.00    +0.072 C 
ATOM      3  C   UNL     1      35.039 -17.445 -20.787  0.00  0.00    +0.085 C 
ATOM      4  C   UNL     1      35.501 -18.440 -21.828  0.00  0.00    +0.174 C 
ATOM      5  C   UNL     1      34.524 -19.962 -20.345  0.00  0.00    +0.018 C 
ATOM      6  C   UNL     1      35.845 -20.343 -20.612  0.00  0.00    +0.135 C 
ATOM      7  C   UNL     1      33.739 -20.755 -19.521  0.00  0.00    +0.036 C 
ATOM      8  C   UNL     1      36.418 -21.484 -20.084  0.00  0.00    +0.040 C 
ATOM      9  C   UNL     1      34.297 -21.917 -18.977  0.00  0.00    +0.145 C 
ATOM     10  C   UNL     1      35.626 -22.278 -19.257  0.00  0.00    +0.041 C 
ENDROOT
BRANCH   3  13
ATOM     11  N   UNL     1      33.650 -15.335 -20.470  0.00  0.00    -0.318 N 
ATOM     12  N   UNL     1      34.819 -15.512 -22.352  0.00  0.00    -0.318 N 
ATOM     13  C   UNL     1      34.509 -16.094 -21.216  0.00  0.00    +0.148 C 
ATOM     14  C   UNL     1      33.390 -14.186 -21.172  0.00  0.00    +0.059 C 
ATOM     15  C   UNL     1      34.131 -14.319 -22.342  0.00  0.00    +0.059 C 
ATOM     16  C   UNL     1      32.594 -13.074 -20.891  0.00  0.00    +0.019 C 
ATOM     17  C   UNL     1      34.088 -13.294 -23.302  0.00  0.00    +0.016 C 
ATOM     18  C   UNL     1      32.562 -12.063 -21.857  0.00  0.00    +0.073 C 
ATOM     19  C   UNL     1      33.295 -12.169 -23.041  0.00  0.00    +0.005 C 
ATOM     20  H   UNL     1      33.284 -15.571 -19.587  0.00  0.00    +0.148 HD
ATOM     21  H   UNL     1      35.416 -15.853 -23.058  0.00  0.00    +0.148 HD
BRANCH  18  25
ATOM     22  F   UNL     1      30.388 -11.089 -21.655  0.00  0.00    -0.166 F 
ATOM     23  F   UNL     1      31.953 -10.268 -20.398  0.00  0.00    -0.166 F 
ATOM     24  F   UNL     1      31.956  -9.867 -22.535  0.00  0.00    -0.166 F 
ATOM     25  C   UNL     1      31.731 -10.847 -21.614  0.00  0.00    +0.419 C 
ENDBRANCH  18  25
ENDBRANCH   3  13
BRANCH   9  26
ATOM     26  O   UNL     1      33.531 -22.720 -18.151  0.00  0.00    -0.454 OA
BRANCH  26  30
ATOM     27  O   UNL     1      30.662 -24.262 -12.714  0.00  0.00    -0.275 OA
ATOM     28  N   UNL     1      32.771 -23.879 -13.538  0.00  0.00    -0.270 N 
ATOM     29  N   UNL     1      34.958 -23.418 -14.312  0.00  0.00    -0.229 NA
ATOM     30  C   UNL     1      33.978 -22.932 -16.881  0.00  0.00    +0.146 C 
ATOM     31  C   UNL     1      33.100 -23.276 -15.852  0.00  0.00    +0.045 C 
ATOM     32  C   UNL     1      31.642 -23.507 -16.111  0.00  0.00    +0.042 C 
ATOM     33  C   UNL     1      35.339 -22.814 -16.620  0.00  0.00    +0.058 C 
ATOM     34  C   UNL     1      33.634 -23.506 -14.585  0.00  0.00    +0.133 C 
ATOM     35  C   UNL     1      30.820 -23.216 -14.865  0.00  0.00    +0.090 C 
ATOM     36  C   UNL     1      31.393 -23.866 -13.621  0.00  0.00    +0.227 C 
ATOM     37  C   UNL     1      35.773 -23.069 -15.332  0.00  0.00    +0.103 C 
ATOM     38  H   UNL     1      33.176 -24.169 -12.689  0.00  0.00    +0.156 HD
ENDBRANCH  26  30
ENDBRANCH   9  26
TORSDOF 4
ENDMDL
MODEL 5
REMARK VINA RESULT:     -13.0      2.085      3.341
REMARK  Name = 89670174
REMARK  4 active torsions:
REMARK  status: ('A' for Active; 'I' for Inactive)
REMARK    1  A    between atoms: C_3  and  C_13
REMARK    2  A    between atoms: C_9  and  O_26
REMARK    3  A    between atoms: C_18  and  C_25
REMARK    4  A    between atoms: O_26  and  C_30
REMARK                            x       y       z     vdW  Elec       q    Type
REMARK                         _______ _______ _______ _____ _____    ______ ____
ROOT
ATOM      1  O   UNL     1      35.672 -15.637 -23.272  0.00  0.00    -0.479 OA
ATOM      2  C   UNL     1      34.428 -16.080 -21.215  0.00  0.00    +0.072 C 
ATOM      3  C   UNL     1      34.447 -17.433 -21.909  0.00  0.00    +0.085 C 
ATOM      4  C   UNL     1      35.621 -16.492 -22.069  0.00  0.00    +0.174 C 
ATOM      5  C   UNL     1      33.935 -14.877 -21.933  0.00  0.00    +0.018 C 
ATOM      6  C   UNL     1      34.693 -14.672 -23.093  0.00  0.00    +0.135 C 
ATOM      7  C   UNL     1      32.905 -13.999 -21.629  0.00  0.00    +0.036 C 
ATOM      8  C   UNL     1      34.461 -13.628 -23.967  0.00  0.00    +0.040 C 
ATOM      9  C   UNL     1      32.653 -12.932 -22.497  0.00  0.00    +0.145 C 
ATOM     10  C   UNL     1      33.425 -12.748 -23.657  0.00  0.00    +0.041 C 
ENDROOT
BRANCH   3  13
ATOM     11  N   UNL     1      33.547 -19.384 -20.544  0.00  0.00    -0.318 N 
ATOM     12  N   UNL     1      35.751 -19.252 -20.802  0.00  0.00    -0.318 N 
ATOM     13  C   UNL     1      34.597 -18.693 -21.085  0.00  0.00    +0.148 C 
ATOM     14  C   UNL     1      34.061 -20.462 -19.868  0.00  0.00    +0.059 C 
ATOM     15  C   UNL     1      35.437 -20.358 -20.044  0.00  0.00    +0.059 C 
ATOM     16  C   UNL     1      33.456 -21.487 -19.140  0.00  0.00    +0.019 C 
ATOM     17  C   UNL     1      36.277 -21.325 -19.467  0.00  0.00    +0.016 C 
ATOM     18  C   UNL     1      34.307 -22.442 -18.572  0.00  0.00    +0.073 C 
ATOM     19  C   UNL     1      35.692 -22.363 -18.732  0.00  0.00    +0.005 C 
ATOM     20  H   UNL     1      32.595 -19.150 -20.625  0.00  0.00    +0.148 HD
ATOM     21  H   UNL     1      36.647 -18.948 -21.074  0.00  0.00    +0.148 HD
BRANCH  18  25
ATOM     22  F   UNL     1      34.432 -23.871 -16.659  0.00  0.00    -0.166 F 
ATOM     23  F   UNL     1      32.450 -23.322 -17.348  0.00  0.00    -0.166 F 
ATOM     24  F   UNL     1      33.648 -24.724 -18.500  0.00  0.00    -0.166 F 
ATOM     25  C   UNL     1      33.721 -23.565 -17.784  0.00  0.00    +0.419 C 
ENDBRANCH  18  25
ENDBRANCH   3  13
BRANCH   9  26
ATOM     26  O   UNL     1      31.628 -12.046 -22.212  0.00  0.00    -0.454 OA
BRANCH  26  30
ATOM     27  O   UNL     1      32.701  -5.815 -21.768  0.00  0.00    -0.275 OA
ATOM     28  N   UNL     1      32.354  -7.637 -20.414  0.00  0.00    -0.270 N 
ATOM     29  N   UNL     1      32.081  -9.490 -18.969  0.00  0.00    -0.229 NA
ATOM     30  C   UNL     1      31.800 -11.196 -21.161  0.00  0.00    +0.146 C 
ATOM     31  C   UNL     1      32.019  -9.832 -21.361  0.00  0.00    +0.045 C 
ATOM     32  C   UNL     1      31.996  -9.228 -22.731  0.00  0.00    +0.042 C 
ATOM     33  C   UNL     1      31.739 -11.706 -19.869  0.00  0.00    +0.058 C 
ATOM     34  C   UNL     1      32.157  -9.020 -20.237  0.00  0.00    +0.133 C 
ATOM     35  C   UNL     1      32.863  -7.980 -22.786  0.00  0.00    +0.090 C 
ATOM     36  C   UNL     1      32.601  -7.034 -21.631  0.00  0.00    +0.227 C 
ATOM     37  C   UNL     1      31.881 -10.818 -18.818  0.00  0.00    +0.103 C 
ATOM     38  H   UNL     1      32.313  -7.061 -19.616  0.00  0.00    +0.156 HD
ENDBRANCH  26  30
ENDBRANCH   9  26
TORSDOF 4
ENDMDL
MODEL 6
REMARK VINA RESULT:     -12.7      2.676      4.528
REMARK  Name = 89670174
REMARK  4 active torsions:
REMARK  status: ('A' for Active; 'I' for Inactive)
REMARK    1  A    between atoms: C_3  and  C_13
REMARK    2  A    between atoms: C_9  and  O_26
REMARK    3  A    between atoms: C_18  and  C_25
REMARK    4  A    between atoms: O_26  and  C_30
REMARK                            x       y       z     vdW  Elec       q    Type
REMARK                         _______ _______ _______ _____ _____    ______ ____
ROOT
ATOM      1  O   UNL     1      33.067 -22.074 -19.594  0.00  0.00    -0.479 OA
ATOM      2  C   UNL     1      35.419 -21.961 -18.935  0.00  0.00    +0.072 C 
ATOM      3  C   UNL     1      34.692 -22.104 -17.607  0.00  0.00    +0.085 C 
ATOM      4  C   UNL     1      34.131 -22.771 -18.844  0.00  0.00    +0.174 C 
ATOM      5  C   UNL     1      35.040 -20.883 -19.885  0.00  0.00    +0.018 C 
ATOM      6  C   UNL     1      33.688 -21.010 -20.230  0.00  0.00    +0.135 C 
ATOM      7  C   UNL     1      35.789 -19.853 -20.431  0.00  0.00    +0.036 C 
ATOM      8  C   UNL     1      33.051 -20.143 -21.096  0.00  0.00    +0.040 C 
ATOM      9  C   UNL     1      35.167 -18.963 -21.313  0.00  0.00    +0.145 C 
ATOM     10  C   UNL     1      33.808 -19.108 -21.644  0.00  0.00    +0.041 C 
ENDROOT
BRANCH   3  13
ATOM     11  N   UNL     1      36.553 -22.739 -15.991  0.00  0.00    -0.318 N 
ATOM     12  N   UNL     1      34.695 -23.959 -15.936  0.00  0.00    -0.318 N 
ATOM     13  C   UNL     1      35.303 -22.944 -16.507  0.00  0.00    +0.148 C 
ATOM     14  C   UNL     1      36.764 -23.686 -15.021  0.00  0.00    +0.059 C 
ATOM     15  C   UNL     1      35.591 -24.434 -15.005  0.00  0.00    +0.059 C 
ATOM     16  C   UNL     1      37.850 -23.943 -14.182  0.00  0.00    +0.019 C 
ATOM     17  C   UNL     1      35.475 -25.507 -14.105  0.00  0.00    +0.016 C 
ATOM     18  C   UNL     1      37.717 -25.014 -13.292  0.00  0.00    +0.073 C 
ATOM     19  C   UNL     1      36.552 -25.783 -13.253  0.00  0.00    +0.005 C 
ATOM     20  H   UNL     1      37.187 -22.039 -16.267  0.00  0.00    +0.148 HD
ATOM     21  H   UNL     1      33.794 -24.305 -16.130  0.00  0.00    +0.148 HD
BRANCH  18  25
ATOM     22  F   UNL     1      38.627 -26.459 -11.619  0.00  0.00    -0.166 F 
ATOM     23  F   UNL     1      40.029 -25.556 -13.004  0.00  0.00    -0.166 F 
ATOM     24  F   UNL     1      39.085 -24.339 -11.470  0.00  0.00    -0.166 F 
ATOM     25  C   UNL     1      38.842 -25.338 -12.367  0.00  0.00    +0.419 C 
ENDBRANCH  18  25
ENDBRANCH   3  13
BRANCH   9  26
ATOM     26  O   UNL     1      35.897 -17.927 -21.868  0.00  0.00    -0.454 OA
BRANCH  26  30
ATOM     27  O   UNL     1      32.331 -12.803 -20.772  0.00  0.00    -0.275 OA
ATOM     28  N   UNL     1      33.181 -14.006 -22.534  0.00  0.00    -0.270 N 
ATOM     29  N   UNL     1      33.962 -15.250 -24.388  0.00  0.00    -0.229 NA
ATOM     30  C   UNL     1      35.239 -17.051 -22.678  0.00  0.00    +0.146 C 
ATOM     31  C   UNL     1      34.517 -15.979 -22.151  0.00  0.00    +0.045 C 
ATOM     32  C   UNL     1      34.498 -15.696 -20.680  0.00  0.00    +0.042 C 
ATOM     33  C   UNL     1      35.306 -17.230 -24.055  0.00  0.00    +0.058 C 
ATOM     34  C   UNL     1      33.893 -15.108 -23.043  0.00  0.00    +0.133 C 
ATOM     35  C   UNL     1      33.218 -14.977 -20.284  0.00  0.00    +0.090 C 
ATOM     36  C   UNL     1      32.896 -13.811 -21.197  0.00  0.00    +0.227 C 
ATOM     37  C   UNL     1      34.659 -16.308 -24.858  0.00  0.00    +0.103 C 
ATOM     38  H   UNL     1      32.864 -13.328 -23.174  0.00  0.00    +0.156 HD
ENDBRANCH  26  30
ENDBRANCH   9  26
TORSDOF 4
ENDMDL
MODEL 7
REMARK VINA RESULT:     -12.4      8.566     14.259
REMARK  Name = 89670174
REMARK  4 active torsions:
REMARK  status: ('A' for Active; 'I' for Inactive)
REMARK    1  A    between atoms: C_3  and  C_13
REMARK    2  A    between atoms: C_9  and  O_26
REMARK    3  A    between atoms: C_18  and  C_25
REMARK    4  A    between atoms: O_26  and  C_30
REMARK                            x       y       z     vdW  Elec       q    Type
REMARK                         _______ _______ _______ _____ _____    ______ ____
ROOT
ATOM      1  O   UNL     1      32.324  -8.144 -19.709  0.00  0.00    -0.479 OA
ATOM      2  C   UNL     1      32.794  -8.450 -22.089  0.00  0.00    +0.072 C 
ATOM      3  C   UNL     1      31.881  -7.235 -22.068  0.00  0.00    +0.085 C 
ATOM      4  C   UNL     1      32.838  -7.473 -20.920  0.00  0.00    +0.174 C 
ATOM      5  C   UNL     1      32.380  -9.711 -21.422  0.00  0.00    +0.018 C 
ATOM      6  C   UNL     1      32.136  -9.471 -20.063  0.00  0.00    +0.135 C 
ATOM      7  C   UNL     1      32.216 -10.992 -21.927  0.00  0.00    +0.036 C 
ATOM      8  C   UNL     1      31.729 -10.459 -19.188  0.00  0.00    +0.040 C 
ATOM      9  C   UNL     1      31.808 -12.010 -21.059  0.00  0.00    +0.145 C 
ATOM     10  C   UNL     1      31.567 -11.745 -19.700  0.00  0.00    +0.041 C 
ENDROOT
BRANCH   3  13
ATOM     11  N   UNL     1      33.002  -6.161 -24.085  0.00  0.00    -0.318 N 
ATOM     12  N   UNL     1      31.530  -4.930 -22.962  0.00  0.00    -0.318 N 
ATOM     13  C   UNL     1      32.128  -6.097 -23.034  0.00  0.00    +0.148 C 
ATOM     14  C   UNL     1      32.963  -4.953 -24.734  0.00  0.00    +0.059 C 
ATOM     15  C   UNL     1      32.038  -4.202 -24.015  0.00  0.00    +0.059 C 
ATOM     16  C   UNL     1      33.639  -4.468 -25.855  0.00  0.00    +0.019 C 
ATOM     17  C   UNL     1      31.757  -2.888 -24.423  0.00  0.00    +0.016 C 
ATOM     18  C   UNL     1      33.348  -3.157 -26.247  0.00  0.00    +0.073 C 
ATOM     19  C   UNL     1      32.423  -2.380 -25.545  0.00  0.00    +0.005 C 
ATOM     20  H   UNL     1      33.558  -6.934 -24.331  0.00  0.00    +0.148 HD
ATOM     21  H   UNL     1      30.863  -4.638 -22.300  0.00  0.00    +0.148 HD
BRANCH  18  25
ATOM     22  F   UNL     1      35.115  -1.808 -27.126  0.00  0.00    -0.166 F 
ATOM     23  F   UNL     1      34.512  -3.526 -28.304  0.00  0.00    -0.166 F 
ATOM     24  F   UNL     1      33.215  -1.786 -28.183  0.00  0.00    -0.166 F 
ATOM     25  C   UNL     1      34.036  -2.583 -27.440  0.00  0.00    +0.419 C 
ENDBRANCH  18  25
ENDBRANCH   3  13
BRANCH   9  26
ATOM     26  O   UNL     1      31.637 -13.295 -21.545  0.00  0.00    -0.454 OA
BRANCH  26  30
ATOM     27  O   UNL     1      35.536 -15.978 -25.761  0.00  0.00    -0.275 OA
ATOM     28  N   UNL     1      35.207 -15.877 -23.490  0.00  0.00    -0.270 N 
ATOM     29  N   UNL     1      34.869 -15.875 -21.149  0.00  0.00    -0.229 NA
ATOM     30  C   UNL     1      32.686 -14.157 -21.436  0.00  0.00    +0.146 C 
ATOM     31  C   UNL     1      33.388 -14.589 -22.563  0.00  0.00    +0.045 C 
ATOM     32  C   UNL     1      33.074 -14.064 -23.930  0.00  0.00    +0.042 C 
ATOM     33  C   UNL     1      33.065 -14.598 -20.173  0.00  0.00    +0.058 C 
ATOM     34  C   UNL     1      34.469 -15.449 -22.371  0.00  0.00    +0.133 C 
ATOM     35  C   UNL     1      33.447 -15.080 -24.998  0.00  0.00    +0.090 C 
ATOM     36  C   UNL     1      34.837 -15.652 -24.801  0.00  0.00    +0.227 C 
ATOM     37  C   UNL     1      34.154 -15.446 -20.085  0.00  0.00    +0.103 C 
ATOM     38  H   UNL     1      36.044 -16.370 -23.328  0.00  0.00    +0.156 HD
ENDBRANCH  26  30
ENDBRANCH   9  26
TORSDOF 4
ENDMDL
MODEL 8
REMARK VINA RESULT:     -12.2      3.097      4.806
REMARK  Name = 89670174
REMARK  4 active torsions:
REMARK  status: ('A' for Active; 'I' for Inactive)
REMARK    1  A    between atoms: C_3  and  C_13
REMARK    2  A    between atoms: C_9  and  O_26
REMARK    3  A    between atoms: C_18  and  C_25
REMARK    4  A    between atoms: O_26  and  C_30
REMARK                            x       y       z     vdW  Elec       q    Type
REMARK                         _______ _______ _______ _____ _____    ______ ____
ROOT
ATOM      1  O   UNL     1      32.883 -22.426 -19.323  0.00  0.00    -0.479 OA
ATOM      2  C   UNL     1      35.155 -22.120 -18.472  0.00  0.00    +0.072 C 
ATOM      3  C   UNL     1      34.317 -22.212 -17.205  0.00  0.00    +0.085 C 
ATOM      4  C   UNL     1      33.911 -23.000 -18.431  0.00  0.00    +0.174 C 
ATOM      5  C   UNL     1      34.805 -21.139 -19.531  0.00  0.00    +0.018 C 
ATOM      6  C   UNL     1      33.500 -21.374 -19.983  0.00  0.00    +0.135 C 
ATOM      7  C   UNL     1      35.543 -20.106 -20.088  0.00  0.00    +0.036 C 
ATOM      8  C   UNL     1      32.898 -20.613 -20.966  0.00  0.00    +0.040 C 
ATOM      9  C   UNL     1      34.956 -19.323 -21.088  0.00  0.00    +0.145 C 
ATOM     10  C   UNL     1      33.644 -19.575 -21.523  0.00  0.00    +0.041 C 
ENDROOT
BRANCH   3  13
ATOM     11  N   UNL     1      36.167 -23.349 -15.878  0.00  0.00    -0.318 N 
ATOM     12  N   UNL     1      34.160 -23.230 -14.931  0.00  0.00    -0.318 N 
ATOM     13  C   UNL     1      34.870 -22.931 -15.994  0.00  0.00    +0.148 C 
ATOM     14  C   UNL     1      36.302 -23.957 -14.656  0.00  0.00    +0.059 C 
ATOM     15  C   UNL     1      35.037 -23.870 -14.084  0.00  0.00    +0.059 C 
ATOM     16  C   UNL     1      37.391 -24.558 -14.022  0.00  0.00    +0.019 C 
ATOM     17  C   UNL     1      34.825 -24.409 -12.804  0.00  0.00    +0.016 C 
ATOM     18  C   UNL     1      37.162 -25.090 -12.748  0.00  0.00    +0.073 C 
ATOM     19  C   UNL     1      35.903 -25.016 -12.148  0.00  0.00    +0.005 C 
ATOM     20  H   UNL     1      36.877 -23.234 -16.550  0.00  0.00    +0.148 HD
ATOM     21  H   UNL     1      33.208 -23.037 -14.772  0.00  0.00    +0.148 HD
BRANCH  18  25
ATOM     22  F   UNL     1      37.917 -26.869 -11.341  0.00  0.00    -0.166 F 
ATOM     23  F   UNL     1      39.313 -26.134 -12.829  0.00  0.00    -0.166 F 
ATOM     24  F   UNL     1      38.851 -24.922 -11.084  0.00  0.00    -0.166 F 
ATOM     25  C   UNL     1      38.288 -25.743 -12.017  0.00  0.00    +0.419 C 
ENDBRANCH  18  25
ENDBRANCH   3  13
BRANCH   9  26
ATOM     26  O   UNL     1      35.676 -18.286 -21.655  0.00  0.00    -0.454 OA
BRANCH  26  30
ATOM     27  O   UNL     1      33.489 -14.674 -26.382  0.00  0.00    -0.275 OA
ATOM     28  N   UNL     1      33.634 -14.667 -24.090  0.00  0.00    -0.270 N 
ATOM     29  N   UNL     1      33.826 -14.567 -21.734  0.00  0.00    -0.229 NA
ATOM     30  C   UNL     1      35.086 -17.058 -21.702  0.00  0.00    +0.146 C 
ATOM     31  C   UNL     1      34.689 -16.492 -22.914  0.00  0.00    +0.045 C 
ATOM     32  C   UNL     1      34.817 -17.239 -24.207  0.00  0.00    +0.042 C 
ATOM     33  C   UNL     1      34.870 -16.371 -20.513  0.00  0.00    +0.058 C 
ATOM     34  C   UNL     1      34.066 -15.246 -22.882  0.00  0.00    +0.133 C 
ATOM     35  C   UNL     1      34.962 -16.277 -25.375  0.00  0.00    +0.090 C 
ATOM     36  C   UNL     1      33.937 -15.160 -25.343  0.00  0.00    +0.227 C 
ATOM     37  C   UNL     1      34.238 -15.143 -20.583  0.00  0.00    +0.103 C 
ATOM     38  H   UNL     1      33.078 -13.856 -24.039  0.00  0.00    +0.156 HD
ENDBRANCH  26  30
ENDBRANCH   9  26
TORSDOF 4
ENDMDL
MODEL 9
REMARK VINA RESULT:     -12.2      6.531     12.444
REMARK  Name = 89670174
REMARK  4 active torsions:
REMARK  status: ('A' for Active; 'I' for Inactive)
REMARK    1  A    between atoms: C_3  and  C_13
REMARK    2  A    between atoms: C_9  and  O_26
REMARK    3  A    between atoms: C_18  and  C_25
REMARK    4  A    between atoms: O_26  and  C_30
REMARK                            x       y       z     vdW  Elec       q    Type
REMARK                         _______ _______ _______ _____ _____    ______ ____
ROOT
ATOM      1  O   UNL     1      31.345 -23.650 -16.168  0.00  0.00    -0.479 OA
ATOM      2  C   UNL     1      33.490 -22.498 -15.949  0.00  0.00    +0.072 C 
ATOM      3  C   UNL     1      33.489 -22.961 -17.398  0.00  0.00    +0.085 C 
ATOM      4  C   UNL     1      32.186 -22.575 -16.733  0.00  0.00    +0.174 C 
ATOM      5  C   UNL     1      33.249 -23.470 -14.852  0.00  0.00    +0.018 C 
ATOM      6  C   UNL     1      32.004 -24.086 -15.030  0.00  0.00    +0.135 C 
ATOM      7  C   UNL     1      34.033 -23.819 -13.763  0.00  0.00    +0.036 C 
ATOM      8  C   UNL     1      31.510 -25.043 -14.164  0.00  0.00    +0.040 C 
ATOM      9  C   UNL     1      33.553 -24.783 -12.870  0.00  0.00    +0.145 C 
ATOM     10  C   UNL     1      32.301 -25.390 -13.069  0.00  0.00    +0.041 C 
ENDROOT
BRANCH   3  13
ATOM     11  N   UNL     1      33.344 -21.362 -19.373  0.00  0.00    -0.318 N 
ATOM     12  N   UNL     1      35.374 -21.887 -18.635  0.00  0.00    -0.318 N 
ATOM     13  C   UNL     1      34.084 -22.070 -18.467  0.00  0.00    +0.148 C 
ATOM     14  C   UNL     1      34.215 -20.675 -20.179  0.00  0.00    +0.059 C 
ATOM     15  C   UNL     1      35.476 -21.019 -19.699  0.00  0.00    +0.059 C 
ATOM     16  C   UNL     1      34.015 -19.809 -21.255  0.00  0.00    +0.019 C 
ATOM     17  C   UNL     1      36.615 -20.476 -20.316  0.00  0.00    +0.016 C 
ATOM     18  C   UNL     1      35.160 -19.278 -21.858  0.00  0.00    +0.073 C 
ATOM     19  C   UNL     1      36.438 -19.605 -21.397  0.00  0.00    +0.005 C 
ATOM     20  H   UNL     1      32.362 -21.348 -19.435  0.00  0.00    +0.148 HD
ATOM     21  H   UNL     1      36.109 -22.284 -18.114  0.00  0.00    +0.148 HD
BRANCH  18  25
ATOM     22  F   UNL     1      34.280 -18.861 -24.041  0.00  0.00    -0.166 F 
ATOM     23  F   UNL     1      34.392 -17.171 -22.688  0.00  0.00    -0.166 F 
ATOM     24  F   UNL     1      36.211 -17.988 -23.554  0.00  0.00    -0.166 F 
ATOM     25  C   UNL     1      35.011 -18.343 -23.011  0.00  0.00    +0.419 C 
ENDBRANCH  18  25
ENDBRANCH   3  13
BRANCH   9  26
ATOM     26  O   UNL     1      34.320 -25.146 -11.777  0.00  0.00    -0.454 OA
BRANCH  26  30
ATOM     27  O   UNL     1      39.778 -26.582 -14.663  0.00  0.00    -0.275 OA
ATOM     28  N   UNL     1      38.935 -25.069 -13.155  0.00  0.00    -0.270 N 
ATOM     29  N   UNL     1      38.142 -23.535 -11.538  0.00  0.00    -0.229 NA
ATOM     30  C   UNL     1      35.584 -24.644 -11.697  0.00  0.00    +0.146 C 
ATOM     31  C   UNL     1      36.620 -25.162 -12.476  0.00  0.00    +0.045 C 
ATOM     32  C   UNL     1      36.375 -26.236 -13.491  0.00  0.00    +0.042 C 
ATOM     33  C   UNL     1      35.833 -23.586 -10.829  0.00  0.00    +0.058 C 
ATOM     34  C   UNL     1      37.881 -24.579 -12.361  0.00  0.00    +0.133 C 
ATOM     35  C   UNL     1      37.629 -27.066 -13.715  0.00  0.00    +0.090 C 
ATOM     36  C   UNL     1      38.865 -26.213 -13.924  0.00  0.00    +0.227 C 
ATOM     37  C   UNL     1      37.116 -23.071 -10.791  0.00  0.00    +0.103 C 
ATOM     38  H   UNL     1      39.779 -24.562 -13.163  0.00  0.00    +0.156 HD
ENDBRANCH  26  30
ENDBRANCH   9  26
TORSDOF 4
ENDMDL
