MODEL 1
REMARK VINA RESULT:     -11.2      0.000      0.000
REMARK  Name = 16040294
REMARK  4 active torsions:
REMARK  status: ('A' for Active; 'I' for Inactive)
REMARK    1  A    between atoms: N_6  and  C_21
REMARK    2  A    between atoms: C_7  and  C_30
REMARK    3  A    between atoms: C_24  and  C_27
REMARK    4  A    between atoms: C_27  and  C_29
REMARK                            x       y       z     vdW  Elec       q    Type
REMARK                         _______ _______ _______ _____ _____    ______ ____
ROOT
ATOM      1  N   UNL     1      35.116 -22.419 -19.303  0.00  0.00    -0.239 N 
ATOM      2  N   UNL     1      34.439 -22.930 -18.261  0.00  0.00    -0.166 NA
ATOM      3  N   UNL     1      32.368 -22.242 -17.265  0.00  0.00    -0.271 N 
ATOM      4  N   UNL     1      33.225 -23.667 -15.600  0.00  0.00    -0.312 NA
ATOM      5  N   UNL     1      31.743 -24.893 -14.147  0.00  0.00    -0.332 NA
ATOM      6  N   UNL     1      34.071 -25.088 -13.941  0.00  0.00    -0.238 N 
ATOM      7  C   UNL     1      34.514 -21.335 -19.874  0.00  0.00    +0.045 C 
ATOM      8  C   UNL     1      33.364 -21.124 -19.154  0.00  0.00    +0.048 C 
ATOM      9  C   UNL     1      33.404 -22.131 -18.206  0.00  0.00    +0.152 C 
ATOM     10  C   UNL     1      32.136 -23.148 -16.199  0.00  0.00    +0.201 C 
ATOM     11  C   UNL     1      30.829 -23.450 -15.832  0.00  0.00    +0.072 C 
ATOM     12  C   UNL     1      30.678 -24.355 -14.768  0.00  0.00    +0.131 C 
ATOM     13  C   UNL     1      32.959 -24.519 -14.597  0.00  0.00    +0.204 C 
ATOM     14  C   UNL     1      29.708 -22.894 -16.473  0.00  0.00    +0.006 C 
ATOM     15  C   UNL     1      29.383 -24.681 -14.371  0.00  0.00    +0.086 C 
ATOM     16  C   UNL     1      28.426 -23.238 -16.055  0.00  0.00    -0.004 C 
ATOM     17  C   UNL     1      28.264 -24.132 -15.004  0.00  0.00    -0.019 C 
ATOM     18  H   UNL     1      35.968 -22.793 -19.626  0.00  0.00    +0.174 HD
ATOM     19  H   UNL     1      31.666 -21.560 -17.365  0.00  0.00    +0.156 HD
ATOM     20  H   UNL     1      33.829 -25.707 -13.215  0.00  0.00    +0.166 HD
ENDROOT
BRANCH   6  21
ATOM     21  C   UNL     1      35.460 -24.944 -14.123  0.00  0.00    +0.058 C 
ATOM     22  C   UNL     1      36.096 -23.757 -13.754  0.00  0.00    +0.015 C 
ATOM     23  C   UNL     1      36.206 -25.989 -14.673  0.00  0.00    +0.015 C 
ATOM     24  C   UNL     1      38.215 -24.660 -14.483  0.00  0.00    -0.007 C 
ATOM     25  C   UNL     1      37.471 -23.615 -13.934  0.00  0.00    -0.002 C 
ATOM     26  C   UNL     1      37.581 -25.847 -14.853  0.00  0.00    -0.002 C 
BRANCH  24  27
ATOM     27  C   UNL     1      39.685 -24.508 -14.677  0.00  0.00    +0.132 C 
BRANCH  27  29
ATOM     28  N   UNL     1      41.040 -26.638 -13.925  0.00  0.00    -0.196 NA
ATOM     29  C   UNL     1      40.439 -25.703 -14.256  0.00  0.00    +0.078 C 
ENDBRANCH  27  29
ENDBRANCH  24  27
ENDBRANCH   6  21
BRANCH   7  30
ATOM     30  C   UNL     1      35.023 -20.534 -21.065  0.00  0.00    +0.037 C 
ATOM     31  C   UNL     1      36.179 -19.585 -20.872  0.00  0.00    +0.006 C 
ATOM     32  C   UNL     1      34.798 -19.043 -21.097  0.00  0.00    +0.006 C 
ENDBRANCH   7  30
TORSDOF 4
ENDMDL
MODEL 2
REMARK VINA RESULT:     -10.8      1.812      6.073
REMARK  Name = 16040294
REMARK  4 active torsions:
REMARK  status: ('A' for Active; 'I' for Inactive)
REMARK    1  A    between atoms: N_6  and  C_21
REMARK    2  A    between atoms: C_7  and  C_30
REMARK    3  A    between atoms: C_24  and  C_27
REMARK    4  A    between atoms: C_27  and  C_29
REMARK                            x       y       z     vdW  Elec       q    Type
REMARK                         _______ _______ _______ _____ _____    ______ ____
ROOT
ATOM      1  N   UNL     1      32.004 -23.120 -14.518  0.00  0.00    -0.239 N 
ATOM      2  N   UNL     1      33.008 -22.741 -15.327  0.00  0.00    -0.166 NA
ATOM      3  N   UNL     1      33.092 -22.558 -17.717  0.00  0.00    -0.271 N 
ATOM      4  N   UNL     1      35.380 -22.483 -17.171  0.00  0.00    -0.312 NA
ATOM      5  N   UNL     1      36.938 -21.278 -18.560  0.00  0.00    -0.332 NA
ATOM      6  N   UNL     1      37.659 -22.404 -16.633  0.00  0.00    -0.238 N 
ATOM      7  C   UNL     1      30.857 -23.449 -15.179  0.00  0.00    +0.045 C 
ATOM      8  C   UNL     1      31.130 -23.274 -16.513  0.00  0.00    +0.048 C 
ATOM      9  C   UNL     1      32.447 -22.847 -16.505  0.00  0.00    +0.152 C 
ATOM     10  C   UNL     1      34.404 -22.112 -18.020  0.00  0.00    +0.201 C 
ATOM     11  C   UNL     1      34.614 -21.330 -19.152  0.00  0.00    +0.072 C 
ATOM     12  C   UNL     1      35.938 -20.925 -19.387  0.00  0.00    +0.131 C 
ATOM     13  C   UNL     1      36.605 -22.038 -17.497  0.00  0.00    +0.204 C 
ATOM     14  C   UNL     1      33.577 -20.955 -20.024  0.00  0.00    +0.006 C 
ATOM     15  C   UNL     1      36.188 -20.142 -20.512  0.00  0.00    +0.086 C 
ATOM     16  C   UNL     1      33.856 -20.172 -21.140  0.00  0.00    -0.004 C 
ATOM     17  C   UNL     1      35.162 -19.765 -21.384  0.00  0.00    -0.019 C 
ATOM     18  H   UNL     1      32.088 -23.155 -13.537  0.00  0.00    +0.174 HD
ATOM     19  H   UNL     1      32.526 -22.691 -18.511  0.00  0.00    +0.156 HD
ATOM     20  H   UNL     1      38.536 -22.055 -16.909  0.00  0.00    +0.166 HD
ENDROOT
BRANCH   6  21
ATOM     21  C   UNL     1      37.700 -23.170 -15.453  0.00  0.00    +0.058 C 
ATOM     22  C   UNL     1      38.700 -24.128 -15.273  0.00  0.00    +0.015 C 
ATOM     23  C   UNL     1      36.742 -22.974 -14.456  0.00  0.00    +0.015 C 
ATOM     24  C   UNL     1      37.782 -24.688 -13.110  0.00  0.00    -0.007 C 
ATOM     25  C   UNL     1      38.741 -24.887 -14.104  0.00  0.00    -0.002 C 
ATOM     26  C   UNL     1      36.782 -23.732 -13.287  0.00  0.00    -0.002 C 
BRANCH  24  27
ATOM     27  C   UNL     1      37.825 -25.500 -11.860  0.00  0.00    +0.132 C 
BRANCH  27  29
ATOM     28  N   UNL     1      35.633 -25.273 -10.418  0.00  0.00    -0.196 NA
ATOM     29  C   UNL     1      36.597 -25.369 -11.056  0.00  0.00    +0.078 C 
ENDBRANCH  27  29
ENDBRANCH  24  27
ENDBRANCH   6  21
BRANCH   7  30
ATOM     30  C   UNL     1      29.547 -23.914 -14.555  0.00  0.00    +0.037 C 
ATOM     31  C   UNL     1      29.321 -25.388 -14.334  0.00  0.00    +0.006 C 
ATOM     32  C   UNL     1      28.555 -24.667 -15.404  0.00  0.00    +0.006 C 
ENDBRANCH   7  30
TORSDOF 4
ENDMDL
MODEL 3
REMARK VINA RESULT:     -10.7      1.827      6.649
REMARK  Name = 16040294
REMARK  4 active torsions:
REMARK  status: ('A' for Active; 'I' for Inactive)
REMARK    1  A    between atoms: N_6  and  C_21
REMARK    2  A    between atoms: C_7  and  C_30
REMARK    3  A    between atoms: C_24  and  C_27
REMARK    4  A    between atoms: C_27  and  C_29
REMARK                            x       y       z     vdW  Elec       q    Type
REMARK                         _______ _______ _______ _____ _____    ______ ____
ROOT
ATOM      1  N   UNL     1      37.719 -22.896 -15.569  0.00  0.00    -0.239 N 
ATOM      2  N   UNL     1      36.390 -22.871 -15.764  0.00  0.00    -0.166 NA
ATOM      3  N   UNL     1      34.705 -24.480 -15.194  0.00  0.00    -0.271 N 
ATOM      4  N   UNL     1      33.536 -23.111 -16.710  0.00  0.00    -0.312 NA
ATOM      5  N   UNL     1      31.150 -22.829 -16.526  0.00  0.00    -0.332 NA
ATOM      6  N   UNL     1      32.367 -21.749 -18.216  0.00  0.00    -0.238 N 
ATOM      7  C   UNL     1      38.164 -24.026 -14.947  0.00  0.00    +0.045 C 
ATOM      8  C   UNL     1      37.047 -24.792 -14.719  0.00  0.00    +0.048 C 
ATOM      9  C   UNL     1      36.029 -24.016 -15.244  0.00  0.00    +0.152 C 
ATOM     10  C   UNL     1      33.478 -23.923 -15.638  0.00  0.00    +0.201 C 
ATOM     11  C   UNL     1      32.303 -24.234 -14.961  0.00  0.00    +0.072 C 
ATOM     12  C   UNL     1      31.129 -23.645 -15.458  0.00  0.00    +0.131 C 
ATOM     13  C   UNL     1      32.353 -22.606 -17.095  0.00  0.00    +0.204 C 
ATOM     14  C   UNL     1      32.269 -25.086 -13.843  0.00  0.00    +0.006 C 
ATOM     15  C   UNL     1      29.932 -23.934 -14.806  0.00  0.00    +0.086 C 
ATOM     16  C   UNL     1      31.058 -25.357 -13.213  0.00  0.00    -0.004 C 
ATOM     17  C   UNL     1      29.889 -24.780 -13.694  0.00  0.00    -0.019 C 
ATOM     18  H   UNL     1      38.318 -22.165 -15.849  0.00  0.00    +0.174 HD
ATOM     19  H   UNL     1      34.608 -25.362 -14.770  0.00  0.00    +0.156 HD
ATOM     20  H   UNL     1      31.479 -21.402 -18.460  0.00  0.00    +0.166 HD
ENDROOT
BRANCH   6  21
ATOM     21  C   UNL     1      33.403 -21.292 -19.051  0.00  0.00    +0.058 C 
ATOM     22  C   UNL     1      34.708 -21.753 -18.866  0.00  0.00    +0.015 C 
ATOM     23  C   UNL     1      33.130 -20.376 -20.069  0.00  0.00    +0.015 C 
ATOM     24  C   UNL     1      35.459 -20.386 -20.711  0.00  0.00    -0.007 C 
ATOM     25  C   UNL     1      35.735 -21.300 -19.694  0.00  0.00    -0.002 C 
ATOM     26  C   UNL     1      34.156 -19.923 -20.898  0.00  0.00    -0.002 C 
BRANCH  24  27
ATOM     27  C   UNL     1      36.556 -19.901 -21.596  0.00  0.00    +0.132 C 
BRANCH  27  29
ATOM     28  N   UNL     1      35.939 -17.661 -22.837  0.00  0.00    -0.196 NA
ATOM     29  C   UNL     1      36.214 -18.645 -22.288  0.00  0.00    +0.078 C 
ENDBRANCH  27  29
ENDBRANCH  24  27
ENDBRANCH   6  21
BRANCH   7  30
ATOM     30  C   UNL     1      39.605 -24.358 -14.583  0.00  0.00    +0.037 C 
ATOM     31  C   UNL     1      40.166 -25.705 -14.960  0.00  0.00    +0.006 C 
ATOM     32  C   UNL     1      39.876 -25.393 -13.521  0.00  0.00    +0.006 C 
ENDBRANCH   7  30
TORSDOF 4
ENDMDL
MODEL 4
REMARK VINA RESULT:     -10.2      2.013      7.035
REMARK  Name = 16040294
REMARK  4 active torsions:
REMARK  status: ('A' for Active; 'I' for Inactive)
REMARK    1  A    between atoms: N_6  and  C_21
REMARK    2  A    between atoms: C_7  and  C_30
REMARK    3  A    between atoms: C_24  and  C_27
REMARK    4  A    between atoms: C_27  and  C_29
REMARK                            x       y       z     vdW  Elec       q    Type
REMARK                         _______ _______ _______ _____ _____    ______ ____
ROOT
ATOM      1  N   UNL     1      33.467 -21.303 -18.666  0.00  0.00    -0.239 N 
ATOM      2  N   UNL     1      33.442 -21.926 -17.476  0.00  0.00    -0.166 NA
ATOM      3  N   UNL     1      35.035 -23.406 -16.462  0.00  0.00    -0.271 N 
ATOM      4  N   UNL     1      33.142 -23.779 -15.115  0.00  0.00    -0.312 NA
ATOM      5  N   UNL     1      33.383 -24.418 -12.804  0.00  0.00    -0.332 NA
ATOM      6  N   UNL     1      31.261 -24.150 -13.768  0.00  0.00    -0.238 N 
ATOM      7  C   UNL     1      34.584 -21.567 -19.404  0.00  0.00    +0.045 C 
ATOM      8  C   UNL     1      35.342 -22.422 -18.641  0.00  0.00    +0.048 C 
ATOM      9  C   UNL     1      34.575 -22.580 -17.500  0.00  0.00    +0.152 C 
ATOM     10  C   UNL     1      34.485 -23.755 -15.203  0.00  0.00    +0.201 C 
ATOM     11  C   UNL     1      35.338 -24.049 -14.144  0.00  0.00    +0.072 C 
ATOM     12  C   UNL     1      34.722 -24.385 -12.927  0.00  0.00    +0.131 C 
ATOM     13  C   UNL     1      32.666 -24.113 -13.905  0.00  0.00    +0.204 C 
ATOM     14  C   UNL     1      36.739 -24.018 -14.260  0.00  0.00    +0.006 C 
ATOM     15  C   UNL     1      35.544 -24.686 -11.844  0.00  0.00    +0.086 C 
ATOM     16  C   UNL     1      37.535 -24.323 -13.161  0.00  0.00    -0.004 C 
ATOM     17  C   UNL     1      36.938 -24.657 -11.952  0.00  0.00    -0.019 C 
ATOM     18  H   UNL     1      32.745 -20.709 -18.978  0.00  0.00    +0.174 HD
ATOM     19  H   UNL     1      35.907 -23.824 -16.644  0.00  0.00    +0.156 HD
ATOM     20  H   UNL     1      30.958 -24.398 -12.865  0.00  0.00    +0.166 HD
ENDROOT
BRANCH   6  21
ATOM     21  C   UNL     1      30.210 -23.900 -14.670  0.00  0.00    +0.058 C 
ATOM     22  C   UNL     1      29.716 -24.930 -15.473  0.00  0.00    +0.015 C 
ATOM     23  C   UNL     1      29.657 -22.621 -14.764  0.00  0.00    +0.015 C 
ATOM     24  C   UNL     1      28.123 -23.404 -16.457  0.00  0.00    -0.007 C 
ATOM     25  C   UNL     1      28.674 -24.682 -16.366  0.00  0.00    -0.002 C 
ATOM     26  C   UNL     1      28.615 -22.374 -15.657  0.00  0.00    -0.002 C 
BRANCH  24  27
ATOM     27  C   UNL     1      27.009 -23.138 -17.413  0.00  0.00    +0.132 C 
BRANCH  27  29
ATOM     28  N   UNL     1      26.265 -20.612 -17.434  0.00  0.00    -0.196 NA
ATOM     29  C   UNL     1      26.592 -21.725 -17.419  0.00  0.00    +0.078 C 
ENDBRANCH  27  29
ENDBRANCH  24  27
ENDBRANCH   6  21
BRANCH   7  30
ATOM     30  C   UNL     1      34.913 -21.020 -20.786  0.00  0.00    +0.037 C 
ATOM     31  C   UNL     1      35.798 -19.805 -20.905  0.00  0.00    +0.006 C 
ATOM     32  C   UNL     1      34.333 -19.694 -21.210  0.00  0.00    +0.006 C 
ENDBRANCH   7  30
TORSDOF 4
ENDMDL
