MODEL 1
REMARK VINA RESULT:     -11.6      0.000      0.000
REMARK  Name = 11659487
REMARK  5 active torsions:
REMARK  status: ('A' for Active; 'I' for Inactive)
REMARK    1  A    between atoms: C_1  and  C_15
REMARK    2  A    between atoms: C_2  and  C_7
REMARK    3  A    between atoms: C_10  and  O_13
REMARK    4  A    between atoms: C_15  and  C_16
REMARK    5  A    between atoms: C_16  and  C_18
REMARK                            x       y       z     vdW  Elec       q    Type
REMARK                         _______ _______ _______ _____ _____    ______ ____
ROOT
ATOM      1  C   UNL     1      34.788 -20.425 -20.183  0.00  0.00    -0.022 C 
ATOM      2  C   UNL     1      35.424 -18.412 -21.357  0.00  0.00    -0.000 C 
ATOM      3  C   UNL     1      34.433 -19.269 -20.878  0.00  0.00    -0.004 C 
ATOM      4  C   UNL     1      36.134 -20.725 -19.970  0.00  0.00    -0.004 C 
ATOM      5  C   UNL     1      36.769 -18.711 -21.144  0.00  0.00    -0.000 C 
ATOM      6  C   UNL     1      37.125 -19.868 -20.450  0.00  0.00    -0.000 C 
ENDROOT
BRANCH   2   7
ATOM      7  C   UNL     1      35.056 -17.212 -22.076  0.00  0.00    +0.003 C 
ATOM      8  C   UNL     1      34.980 -17.228 -23.469  0.00  0.00    +0.037 C 
ATOM      9  C   UNL     1      34.774 -16.039 -21.377  0.00  0.00    +0.000 C 
ATOM     10  C   UNL     1      34.625 -16.071 -24.161  0.00  0.00    +0.139 C 
ATOM     11  C   UNL     1      34.419 -14.881 -22.069  0.00  0.00    +0.003 C 
ATOM     12  C   UNL     1      34.343 -14.897 -23.462  0.00  0.00    +0.037 C 
BRANCH  10  13
ATOM     13  O   UNL     1      34.551 -16.086 -25.521  0.00  0.00    -0.471 OA
ATOM     14  C   UNL     1      33.732 -15.095 -26.139  0.00  0.00    +0.252 C 
ENDBRANCH  10  13
ENDBRANCH   2   7
BRANCH   1  15
ATOM     15  C   UNL     1      33.730 -21.342 -19.669  0.00  0.00    +0.034 C 
BRANCH  15  16
ATOM     16  C   UNL     1      34.276 -22.553 -18.886  0.00  0.00    +0.064 C 
BRANCH  16  18
ATOM     17  N   UNL     1      32.217 -22.636 -17.613  0.00  0.00    -0.396 NA
ATOM     18  C   UNL     1      33.552 -22.792 -17.582  0.00  0.00    +0.110 C 
ATOM     19  C   UNL     1      34.287 -23.144 -16.472  0.00  0.00    +0.023 C 
ATOM     20  C   UNL     1      33.590 -23.357 -15.287  0.00  0.00    -0.015 C 
ATOM     21  C   UNL     1      31.574 -22.850 -16.444  0.00  0.00    +0.158 C 
ATOM     22  C   UNL     1      32.208 -23.209 -15.264  0.00  0.00    +0.100 C 
ATOM     23  N   UNL     1      30.165 -22.704 -16.404  0.00  0.00    -0.336 N 
ATOM     24  H   UNL     1      29.674 -22.450 -17.218  0.00  0.00    +0.144 HD
ATOM     25  H   UNL     1      29.678 -22.856 -15.561  0.00  0.00    +0.144 HD
ENDBRANCH  16  18
ENDBRANCH  15  16
ENDBRANCH   1  15
TORSDOF 5
ENDMDL
MODEL 2
REMARK VINA RESULT:     -11.5      4.461      9.128
REMARK  Name = 11659487
REMARK  5 active torsions:
REMARK  status: ('A' for Active; 'I' for Inactive)
REMARK    1  A    between atoms: C_1  and  C_15
REMARK    2  A    between atoms: C_2  and  C_7
REMARK    3  A    between atoms: C_10  and  O_13
REMARK    4  A    between atoms: C_15  and  C_16
REMARK    5  A    between atoms: C_16  and  C_18
REMARK                            x       y       z     vdW  Elec       q    Type
REMARK                         _______ _______ _______ _____ _____    ______ ____
ROOT
ATOM      1  C   UNL     1      34.936 -17.020 -22.232  0.00  0.00    -0.022 C 
ATOM      2  C   UNL     1      34.959 -19.329 -21.521  0.00  0.00    -0.000 C 
ATOM      3  C   UNL     1      34.942 -17.969 -21.210  0.00  0.00    -0.004 C 
ATOM      4  C   UNL     1      34.949 -17.431 -23.565  0.00  0.00    -0.004 C 
ATOM      5  C   UNL     1      34.972 -19.740 -22.853  0.00  0.00    -0.000 C 
ATOM      6  C   UNL     1      34.967 -18.791 -23.876  0.00  0.00    -0.000 C 
ENDROOT
BRANCH   2   7
ATOM      7  C   UNL     1      34.964 -20.313 -20.460  0.00  0.00    +0.003 C 
ATOM      8  C   UNL     1      33.759 -20.798 -19.954  0.00  0.00    +0.037 C 
ATOM      9  C   UNL     1      36.174 -20.778 -19.946  0.00  0.00    +0.000 C 
ATOM     10  C   UNL     1      33.764 -21.748 -18.931  0.00  0.00    +0.139 C 
ATOM     11  C   UNL     1      36.179 -21.727 -18.924  0.00  0.00    +0.003 C 
ATOM     12  C   UNL     1      34.973 -22.212 -18.417  0.00  0.00    +0.037 C 
BRANCH  10  13
ATOM     13  O   UNL     1      32.587 -22.221 -18.436  0.00  0.00    -0.471 OA
ATOM     14  C   UNL     1      32.627 -22.854 -17.159  0.00  0.00    +0.252 C 
ENDBRANCH  10  13
ENDBRANCH   2   7
BRANCH   1  15
ATOM     15  C   UNL     1      34.917 -15.566 -21.901  0.00  0.00    +0.034 C 
BRANCH  15  16
ATOM     16  C   UNL     1      33.586 -14.863 -22.238  0.00  0.00    +0.064 C 
BRANCH  16  18
ATOM     17  N   UNL     1      34.153 -12.722 -23.218  0.00  0.00    -0.396 NA
ATOM     18  C   UNL     1      33.680 -13.960 -23.444  0.00  0.00    +0.110 C 
ATOM     19  C   UNL     1      33.284 -14.450 -24.670  0.00  0.00    +0.023 C 
ATOM     20  C   UNL     1      33.383 -13.593 -25.761  0.00  0.00    -0.015 C 
ATOM     21  C   UNL     1      34.234 -11.918 -24.301  0.00  0.00    +0.158 C 
ATOM     22  C   UNL     1      33.866 -12.301 -25.581  0.00  0.00    +0.100 C 
ATOM     23  N   UNL     1      34.726 -10.599 -24.135  0.00  0.00    -0.336 N 
ATOM     24  H   UNL     1      34.999 -10.285 -23.244  0.00  0.00    +0.144 HD
ATOM     25  H   UNL     1      34.793  -9.998 -24.912  0.00  0.00    +0.144 HD
ENDBRANCH  16  18
ENDBRANCH  15  16
ENDBRANCH   1  15
TORSDOF 5
ENDMDL
MODEL 3
REMARK VINA RESULT:     -11.4      1.192      1.673
REMARK  Name = 11659487
REMARK  5 active torsions:
REMARK  status: ('A' for Active; 'I' for Inactive)
REMARK    1  A    between atoms: C_1  and  C_15
REMARK    2  A    between atoms: C_2  and  C_7
REMARK    3  A    between atoms: C_10  and  O_13
REMARK    4  A    between atoms: C_15  and  C_16
REMARK    5  A    between atoms: C_16  and  C_18
REMARK                            x       y       z     vdW  Elec       q    Type
REMARK                         _______ _______ _______ _____ _____    ______ ____
ROOT
ATOM      1  C   UNL     1      34.613 -20.872 -19.863  0.00  0.00    -0.022 C 
ATOM      2  C   UNL     1      35.420 -19.045 -21.222  0.00  0.00    -0.000 C 
ATOM      3  C   UNL     1      34.360 -19.805 -20.724  0.00  0.00    -0.004 C 
ATOM      4  C   UNL     1      35.924 -21.182 -19.501  0.00  0.00    -0.004 C 
ATOM      5  C   UNL     1      36.731 -19.354 -20.860  0.00  0.00    -0.000 C 
ATOM      6  C   UNL     1      36.983 -20.422 -19.999  0.00  0.00    -0.000 C 
ENDROOT
BRANCH   2   7
ATOM      7  C   UNL     1      35.158 -17.936 -22.114  0.00  0.00    +0.003 C 
ATOM      8  C   UNL     1      34.975 -16.654 -21.598  0.00  0.00    +0.037 C 
ATOM      9  C   UNL     1      35.091 -18.149 -23.490  0.00  0.00    +0.000 C 
ATOM     10  C   UNL     1      34.723 -15.585 -22.458  0.00  0.00    +0.139 C 
ATOM     11  C   UNL     1      34.839 -17.081 -24.351  0.00  0.00    +0.003 C 
ATOM     12  C   UNL     1      34.656 -15.798 -23.834  0.00  0.00    +0.037 C 
BRANCH  10  13
ATOM     13  O   UNL     1      34.543 -14.333 -21.954  0.00  0.00    -0.471 OA
ATOM     14  C   UNL     1      34.215 -13.300 -22.881  0.00  0.00    +0.252 C 
ENDBRANCH  10  13
ENDBRANCH   2   7
BRANCH   1  15
ATOM     15  C   UNL     1      33.481 -21.685 -19.330  0.00  0.00    +0.034 C 
BRANCH  15  16
ATOM     16  C   UNL     1      33.918 -22.838 -18.405  0.00  0.00    +0.064 C 
BRANCH  16  18
ATOM     17  N   UNL     1      31.754 -22.750 -17.321  0.00  0.00    -0.396 NA
ATOM     18  C   UNL     1      33.074 -22.953 -17.159  0.00  0.00    +0.110 C 
ATOM     19  C   UNL     1      33.693 -23.248 -15.964  0.00  0.00    +0.023 C 
ATOM     20  C   UNL     1      32.887 -23.347 -14.835  0.00  0.00    -0.015 C 
ATOM     21  C   UNL     1      31.003 -22.853 -16.203  0.00  0.00    +0.158 C 
ATOM     22  C   UNL     1      31.515 -23.147 -14.948  0.00  0.00    +0.100 C 
ATOM     23  N   UNL     1      29.604 -22.653 -16.301  0.00  0.00    -0.336 N 
ATOM     24  H   UNL     1      29.197 -22.442 -17.171  0.00  0.00    +0.144 HD
ATOM     25  H   UNL     1      29.039 -22.724 -15.497  0.00  0.00    +0.144 HD
ENDBRANCH  16  18
ENDBRANCH  15  16
ENDBRANCH   1  15
TORSDOF 5
ENDMDL
MODEL 4
REMARK VINA RESULT:     -11.3      4.499      8.431
REMARK  Name = 11659487
REMARK  5 active torsions:
REMARK  status: ('A' for Active; 'I' for Inactive)
REMARK    1  A    between atoms: C_1  and  C_15
REMARK    2  A    between atoms: C_2  and  C_7
REMARK    3  A    between atoms: C_10  and  O_13
REMARK    4  A    between atoms: C_15  and  C_16
REMARK    5  A    between atoms: C_16  and  C_18
REMARK                            x       y       z     vdW  Elec       q    Type
REMARK                         _______ _______ _______ _____ _____    ______ ____
ROOT
ATOM      1  C   UNL     1      34.901 -16.776 -22.351  0.00  0.00    -0.022 C 
ATOM      2  C   UNL     1      34.990 -19.098 -21.687  0.00  0.00    -0.000 C 
ATOM      3  C   UNL     1      34.961 -17.744 -21.349  0.00  0.00    -0.004 C 
ATOM      4  C   UNL     1      34.873 -17.162 -23.692  0.00  0.00    -0.004 C 
ATOM      5  C   UNL     1      34.962 -19.483 -23.026  0.00  0.00    -0.000 C 
ATOM      6  C   UNL     1      34.904 -18.515 -24.029  0.00  0.00    -0.000 C 
ENDROOT
BRANCH   2   7
ATOM      7  C   UNL     1      35.050 -20.101 -20.647  0.00  0.00    +0.003 C 
ATOM      8  C   UNL     1      33.873 -20.644 -20.132  0.00  0.00    +0.037 C 
ATOM      9  C   UNL     1      36.285 -20.528 -20.160  0.00  0.00    +0.000 C 
ATOM     10  C   UNL     1      33.931 -21.612 -19.129  0.00  0.00    +0.139 C 
ATOM     11  C   UNL     1      36.344 -21.496 -19.157  0.00  0.00    +0.003 C 
ATOM     12  C   UNL     1      35.166 -22.039 -18.642  0.00  0.00    +0.037 C 
BRANCH  10  13
ATOM     13  O   UNL     1      32.782 -22.141 -18.626  0.00  0.00    -0.471 OA
ATOM     14  C   UNL     1      32.875 -22.833 -17.382  0.00  0.00    +0.252 C 
ENDBRANCH  10  13
ENDBRANCH   2   7
BRANCH   1  15
ATOM     15  C   UNL     1      34.869 -15.329 -21.991  0.00  0.00    +0.034 C 
BRANCH  15  16
ATOM     16  C   UNL     1      33.808 -14.515 -22.758  0.00  0.00    +0.064 C 
BRANCH  16  18
ATOM     17  N   UNL     1      32.793 -12.349 -22.377  0.00  0.00    -0.396 NA
ATOM     18  C   UNL     1      33.028 -13.574 -21.873  0.00  0.00    +0.110 C 
ATOM     19  C   UNL     1      32.617 -14.017 -20.635  0.00  0.00    +0.023 C 
ATOM     20  C   UNL     1      31.900 -13.125 -19.844  0.00  0.00    -0.015 C 
ATOM     21  C   UNL     1      32.095 -11.511 -21.581  0.00  0.00    +0.158 C 
ATOM     22  C   UNL     1      31.630 -11.847 -20.318  0.00  0.00    +0.100 C 
ATOM     23  N   UNL     1      31.810 -10.204 -22.050  0.00  0.00    -0.336 N 
ATOM     24  H   UNL     1      32.121  -9.923 -22.940  0.00  0.00    +0.144 HD
ATOM     25  H   UNL     1      31.302  -9.578 -21.484  0.00  0.00    +0.144 HD
ENDBRANCH  16  18
ENDBRANCH  15  16
ENDBRANCH   1  15
TORSDOF 5
ENDMDL
MODEL 5
REMARK VINA RESULT:     -11.1      2.989      5.080
REMARK  Name = 11659487
REMARK  5 active torsions:
REMARK  status: ('A' for Active; 'I' for Inactive)
REMARK    1  A    between atoms: C_1  and  C_15
REMARK    2  A    between atoms: C_2  and  C_7
REMARK    3  A    between atoms: C_10  and  O_13
REMARK    4  A    between atoms: C_15  and  C_16
REMARK    5  A    between atoms: C_16  and  C_18
REMARK                            x       y       z     vdW  Elec       q    Type
REMARK                         _______ _______ _______ _____ _____    ______ ____
ROOT
ATOM      1  C   UNL     1      35.135 -16.758 -22.148  0.00  0.00    -0.022 C 
ATOM      2  C   UNL     1      33.792 -14.766 -22.411  0.00  0.00    -0.000 C 
ATOM      3  C   UNL     1      34.463 -15.672 -21.588  0.00  0.00    -0.004 C 
ATOM      4  C   UNL     1      35.136 -16.939 -23.532  0.00  0.00    -0.004 C 
ATOM      5  C   UNL     1      33.793 -14.947 -23.793  0.00  0.00    -0.000 C 
ATOM      6  C   UNL     1      34.465 -16.033 -24.354  0.00  0.00    -0.000 C 
ENDROOT
BRANCH   2   7
ATOM      7  C   UNL     1      33.097 -13.639 -21.829  0.00  0.00    +0.003 C 
ATOM      8  C   UNL     1      33.056 -12.420 -22.505  0.00  0.00    +0.037 C 
ATOM      9  C   UNL     1      32.464 -13.772 -20.593  0.00  0.00    +0.000 C 
ATOM     10  C   UNL     1      32.385 -11.333 -21.944  0.00  0.00    +0.139 C 
ATOM     11  C   UNL     1      31.793 -12.686 -20.032  0.00  0.00    +0.003 C 
ATOM     12  C   UNL     1      31.753 -11.466 -20.708  0.00  0.00    +0.037 C 
BRANCH  10  13
ATOM     13  O   UNL     1      32.346 -10.142 -22.603  0.00  0.00    -0.471 OA
ATOM     14  C   UNL     1      32.050  -8.981 -21.830  0.00  0.00    +0.252 C 
ENDBRANCH  10  13
ENDBRANCH   2   7
BRANCH   1  15
ATOM     15  C   UNL     1      35.852 -17.726 -21.270  0.00  0.00    +0.034 C 
BRANCH  15  16
ATOM     16  C   UNL     1      35.737 -19.194 -21.729  0.00  0.00    +0.064 C 
BRANCH  16  18
ATOM     17  N   UNL     1      35.831 -20.773 -19.895  0.00  0.00    -0.396 NA
ATOM     18  C   UNL     1      35.035 -20.077 -20.726  0.00  0.00    +0.110 C 
ATOM     19  C   UNL     1      33.658 -20.114 -20.726  0.00  0.00    +0.023 C 
ATOM     20  C   UNL     1      33.042 -20.937 -19.790  0.00  0.00    -0.015 C 
ATOM     21  C   UNL     1      35.197 -21.562 -19.000  0.00  0.00    +0.158 C 
ATOM     22  C   UNL     1      33.819 -21.678 -18.906  0.00  0.00    +0.100 C 
ATOM     23  N   UNL     1      35.974 -22.323 -18.091  0.00  0.00    -0.336 N 
ATOM     24  H   UNL     1      36.957 -22.271 -18.122  0.00  0.00    +0.144 HD
ATOM     25  H   UNL     1      35.532 -22.904 -17.431  0.00  0.00    +0.144 HD
ENDBRANCH  16  18
ENDBRANCH  15  16
ENDBRANCH   1  15
TORSDOF 5
ENDMDL
MODEL 6
REMARK VINA RESULT:     -11.1      1.654      2.514
REMARK  Name = 11659487
REMARK  5 active torsions:
REMARK  status: ('A' for Active; 'I' for Inactive)
REMARK    1  A    between atoms: C_1  and  C_15
REMARK    2  A    between atoms: C_2  and  C_7
REMARK    3  A    between atoms: C_10  and  O_13
REMARK    4  A    between atoms: C_15  and  C_16
REMARK    5  A    between atoms: C_16  and  C_18
REMARK                            x       y       z     vdW  Elec       q    Type
REMARK                         _______ _______ _______ _____ _____    ______ ____
ROOT
ATOM      1  C   UNL     1      34.494 -21.171 -19.542  0.00  0.00    -0.022 C 
ATOM      2  C   UNL     1      35.385 -19.413 -20.939  0.00  0.00    -0.000 C 
ATOM      3  C   UNL     1      34.291 -20.107 -20.421  0.00  0.00    -0.004 C 
ATOM      4  C   UNL     1      35.790 -21.542 -19.184  0.00  0.00    -0.004 C 
ATOM      5  C   UNL     1      36.680 -19.783 -20.580  0.00  0.00    -0.000 C 
ATOM      6  C   UNL     1      36.883 -20.848 -19.703  0.00  0.00    -0.000 C 
ENDROOT
BRANCH   2   7
ATOM      7  C   UNL     1      35.174 -18.308 -21.849  0.00  0.00    +0.003 C 
ATOM      8  C   UNL     1      35.030 -17.013 -21.352  0.00  0.00    +0.037 C 
ATOM      9  C   UNL     1      35.117 -18.537 -23.223  0.00  0.00    +0.000 C 
ATOM     10  C   UNL     1      34.828 -15.947 -22.230  0.00  0.00    +0.139 C 
ATOM     11  C   UNL     1      34.914 -17.473 -24.101  0.00  0.00    +0.003 C 
ATOM     12  C   UNL     1      34.770 -16.177 -23.604  0.00  0.00    +0.037 C 
BRANCH  10  13
ATOM     13  O   UNL     1      34.687 -14.682 -21.745  0.00  0.00    -0.471 OA
ATOM     14  C   UNL     1      33.754 -14.494 -20.683  0.00  0.00    +0.252 C 
ENDBRANCH  10  13
ENDBRANCH   2   7
BRANCH   1  15
ATOM     15  C   UNL     1      33.326 -21.914 -18.987  0.00  0.00    +0.034 C 
BRANCH  15  16
ATOM     16  C   UNL     1      33.707 -23.181 -18.195  0.00  0.00    +0.064 C 
BRANCH  16  18
ATOM     17  N   UNL     1      34.093 -23.410 -15.815  0.00  0.00    -0.396 NA
ATOM     18  C   UNL     1      33.185 -23.174 -16.778  0.00  0.00    +0.110 C 
ATOM     19  C   UNL     1      31.845 -22.935 -16.567  0.00  0.00    +0.023 C 
ATOM     20  C   UNL     1      31.397 -22.935 -15.251  0.00  0.00    -0.015 C 
ATOM     21  C   UNL     1      33.621 -23.404 -14.549  0.00  0.00    +0.158 C 
ATOM     22  C   UNL     1      32.295 -23.174 -14.217  0.00  0.00    +0.100 C 
ATOM     23  N   UNL     1      34.524 -23.644 -13.484  0.00  0.00    -0.336 N 
ATOM     24  H   UNL     1      35.475 -23.813 -13.674  0.00  0.00    +0.144 HD
ATOM     25  H   UNL     1      34.200 -23.644 -12.554  0.00  0.00    +0.144 HD
ENDBRANCH  16  18
ENDBRANCH  15  16
ENDBRANCH   1  15
TORSDOF 5
ENDMDL
MODEL 7
REMARK VINA RESULT:     -10.8      2.948      4.180
REMARK  Name = 11659487
REMARK  5 active torsions:
REMARK  status: ('A' for Active; 'I' for Inactive)
REMARK    1  A    between atoms: C_1  and  C_15
REMARK    2  A    between atoms: C_2  and  C_7
REMARK    3  A    between atoms: C_10  and  O_13
REMARK    4  A    between atoms: C_15  and  C_16
REMARK    5  A    between atoms: C_16  and  C_18
REMARK                            x       y       z     vdW  Elec       q    Type
REMARK                         _______ _______ _______ _____ _____    ______ ____
ROOT
ATOM      1  C   UNL     1      35.777 -21.525 -18.872  0.00  0.00    -0.022 C 
ATOM      2  C   UNL     1      34.729 -20.113 -20.529  0.00  0.00    -0.000 C 
ATOM      3  C   UNL     1      35.876 -20.553 -19.867  0.00  0.00    -0.004 C 
ATOM      4  C   UNL     1      34.531 -22.056 -18.537  0.00  0.00    -0.004 C 
ATOM      5  C   UNL     1      33.484 -20.644 -20.194  0.00  0.00    -0.000 C 
ATOM      6  C   UNL     1      33.385 -21.615 -19.198  0.00  0.00    -0.000 C 
ENDROOT
BRANCH   2   7
ATOM      7  C   UNL     1      34.832 -19.106 -21.562  0.00  0.00    +0.003 C 
ATOM      8  C   UNL     1      34.900 -17.757 -21.218  0.00  0.00    +0.037 C 
ATOM      9  C   UNL     1      34.866 -19.485 -22.904  0.00  0.00    +0.000 C 
ATOM     10  C   UNL     1      35.000 -16.786 -22.215  0.00  0.00    +0.139 C 
ATOM     11  C   UNL     1      34.965 -18.515 -23.901  0.00  0.00    +0.003 C 
ATOM     12  C   UNL     1      35.033 -17.165 -23.556  0.00  0.00    +0.037 C 
BRANCH  10  13
ATOM     13  O   UNL     1      35.066 -15.468 -21.878  0.00  0.00    -0.471 OA
ATOM     14  C   UNL     1      34.157 -15.006 -20.880  0.00  0.00    +0.252 C 
ENDBRANCH  10  13
ENDBRANCH   2   7
BRANCH   1  15
ATOM     15  C   UNL     1      37.003 -21.997 -18.164  0.00  0.00    +0.034 C 
BRANCH  15  16
ATOM     16  C   UNL     1      37.049 -21.618 -16.670  0.00  0.00    +0.064 C 
BRANCH  16  18
ATOM     17  N   UNL     1      38.110 -23.356 -15.360  0.00  0.00    -0.396 NA
ATOM     18  C   UNL     1      36.945 -22.811 -15.751  0.00  0.00    +0.110 C 
ATOM     19  C   UNL     1      35.694 -23.256 -15.383  0.00  0.00    +0.023 C 
ATOM     20  C   UNL     1      35.633 -24.357 -14.536  0.00  0.00    -0.015 C 
ATOM     21  C   UNL     1      38.011 -24.424 -14.538  0.00  0.00    +0.158 C 
ATOM     22  C   UNL     1      36.809 -24.958 -14.101  0.00  0.00    +0.100 C 
ATOM     23  N   UNL     1      39.200 -25.048 -14.084  0.00  0.00    -0.336 N 
ATOM     24  H   UNL     1      40.076 -24.703 -14.370  0.00  0.00    +0.144 HD
ATOM     25  H   UNL     1      39.149 -25.828 -13.485  0.00  0.00    +0.144 HD
ENDBRANCH  16  18
ENDBRANCH  15  16
ENDBRANCH   1  15
TORSDOF 5
ENDMDL
MODEL 8
REMARK VINA RESULT:     -10.7      4.054      8.896
REMARK  Name = 11659487
REMARK  5 active torsions:
REMARK  status: ('A' for Active; 'I' for Inactive)
REMARK    1  A    between atoms: C_1  and  C_15
REMARK    2  A    between atoms: C_2  and  C_7
REMARK    3  A    between atoms: C_10  and  O_13
REMARK    4  A    between atoms: C_15  and  C_16
REMARK    5  A    between atoms: C_16  and  C_18
REMARK                            x       y       z     vdW  Elec       q    Type
REMARK                         _______ _______ _______ _____ _____    ______ ____
ROOT
ATOM      1  C   UNL     1      34.269 -22.733 -17.530  0.00  0.00    -0.022 C 
ATOM      2  C   UNL     1      32.502 -23.229 -15.959  0.00  0.00    -0.000 C 
ATOM      3  C   UNL     1      32.918 -22.952 -17.262  0.00  0.00    -0.004 C 
ATOM      4  C   UNL     1      35.203 -22.788 -16.496  0.00  0.00    -0.004 C 
ATOM      5  C   UNL     1      33.435 -23.285 -14.925  0.00  0.00    -0.000 C 
ATOM      6  C   UNL     1      34.787 -23.064 -15.193  0.00  0.00    -0.000 C 
ENDROOT
BRANCH   2   7
ATOM      7  C   UNL     1      31.101 -23.458 -15.681  0.00  0.00    +0.003 C 
ATOM      8  C   UNL     1      30.140 -22.565 -16.153  0.00  0.00    +0.037 C 
ATOM      9  C   UNL     1      30.710 -24.575 -14.942  0.00  0.00    +0.000 C 
ATOM     10  C   UNL     1      28.789 -22.786 -15.886  0.00  0.00    +0.139 C 
ATOM     11  C   UNL     1      29.360 -24.797 -14.674  0.00  0.00    +0.003 C 
ATOM     12  C   UNL     1      28.398 -23.903 -15.147  0.00  0.00    +0.037 C 
BRANCH  10  13
ATOM     13  O   UNL     1      27.851 -21.913 -16.347  0.00  0.00    -0.471 OA
ATOM     14  C   UNL     1      27.050 -22.342 -17.446  0.00  0.00    +0.252 C 
ENDBRANCH  10  13
ENDBRANCH   2   7
BRANCH   1  15
ATOM     15  C   UNL     1      34.715 -22.437 -18.922  0.00  0.00    +0.034 C 
BRANCH  15  16
ATOM     16  C   UNL     1      35.985 -21.565 -19.002  0.00  0.00    +0.064 C 
BRANCH  16  18
ATOM     17  N   UNL     1      37.067 -19.887 -20.373  0.00  0.00    -0.396 NA
ATOM     18  C   UNL     1      35.910 -20.503 -20.073  0.00  0.00    +0.110 C 
ATOM     19  C   UNL     1      34.691 -20.238 -20.658  0.00  0.00    +0.023 C 
ATOM     20  C   UNL     1      34.656 -19.255 -21.641  0.00  0.00    -0.015 C 
ATOM     21  C   UNL     1      36.994 -18.938 -21.331  0.00  0.00    +0.158 C 
ATOM     22  C   UNL     1      35.825 -18.587 -21.990  0.00  0.00    +0.100 C 
ATOM     23  N   UNL     1      38.176 -18.249 -21.699  0.00  0.00    -0.336 N 
ATOM     24  H   UNL     1      39.029 -18.464 -21.258  0.00  0.00    +0.144 HD
ATOM     25  H   UNL     1      38.144 -17.553 -22.396  0.00  0.00    +0.144 HD
ENDBRANCH  16  18
ENDBRANCH  15  16
ENDBRANCH   1  15
TORSDOF 5
ENDMDL
MODEL 9
REMARK VINA RESULT:     -10.5      4.363      9.704
REMARK  Name = 11659487
REMARK  5 active torsions:
REMARK  status: ('A' for Active; 'I' for Inactive)
REMARK    1  A    between atoms: C_1  and  C_15
REMARK    2  A    between atoms: C_2  and  C_7
REMARK    3  A    between atoms: C_10  and  O_13
REMARK    4  A    between atoms: C_15  and  C_16
REMARK    5  A    between atoms: C_16  and  C_18
REMARK                            x       y       z     vdW  Elec       q    Type
REMARK                         _______ _______ _______ _____ _____    ______ ____
ROOT
ATOM      1  C   UNL     1      33.399 -22.887 -17.171  0.00  0.00    -0.022 C 
ATOM      2  C   UNL     1      34.059 -23.543 -14.941  0.00  0.00    -0.000 C 
ATOM      3  C   UNL     1      34.394 -23.252 -16.265  0.00  0.00    -0.004 C 
ATOM      4  C   UNL     1      32.069 -22.815 -16.756  0.00  0.00    -0.004 C 
ATOM      5  C   UNL     1      32.730 -23.470 -14.526  0.00  0.00    -0.000 C 
ATOM      6  C   UNL     1      31.734 -23.107 -15.433  0.00  0.00    -0.000 C 
ENDROOT
BRANCH   2   7
ATOM      7  C   UNL     1      35.091 -23.920 -14.000  0.00  0.00    +0.003 C 
ATOM      8  C   UNL     1      36.426 -23.945 -14.402  0.00  0.00    +0.037 C 
ATOM      9  C   UNL     1      34.751 -24.256 -12.690  0.00  0.00    +0.000 C 
ATOM     10  C   UNL     1      37.421 -24.308 -13.495  0.00  0.00    +0.139 C 
ATOM     11  C   UNL     1      35.746 -24.619 -11.783  0.00  0.00    +0.003 C 
ATOM     12  C   UNL     1      37.082 -24.644 -12.185  0.00  0.00    +0.037 C 
BRANCH  10  13
ATOM     13  O   UNL     1      38.725 -24.332 -13.887  0.00  0.00    -0.471 OA
ATOM     14  C   UNL     1      39.468 -25.515 -13.599  0.00  0.00    +0.252 C 
ENDBRANCH  10  13
ENDBRANCH   2   7
BRANCH   1  15
ATOM     15  C   UNL     1      33.755 -22.576 -18.585  0.00  0.00    +0.034 C 
BRANCH  15  16
ATOM     16  C   UNL     1      35.198 -22.064 -18.771  0.00  0.00    +0.064 C 
BRANCH  16  18
ATOM     17  N   UNL     1      36.529 -20.397 -19.918  0.00  0.00    -0.396 NA
ATOM     18  C   UNL     1      35.301 -20.920 -19.751  0.00  0.00    +0.110 C 
ATOM     19  C   UNL     1      34.160 -20.494 -20.394  0.00  0.00    +0.023 C 
ATOM     20  C   UNL     1      34.289 -19.438 -21.290  0.00  0.00    -0.015 C 
ATOM     21  C   UNL     1      36.615 -19.373 -20.795  0.00  0.00    +0.158 C 
ATOM     22  C   UNL     1      35.536 -18.861 -21.500  0.00  0.00    +0.100 C 
ATOM     23  N   UNL     1      37.880 -18.775 -21.021  0.00  0.00    -0.336 N 
ATOM     24  H   UNL     1      38.673 -19.105 -20.542  0.00  0.00    +0.144 HD
ATOM     25  H   UNL     1      37.964 -18.027 -21.657  0.00  0.00    +0.144 HD
ENDBRANCH  16  18
ENDBRANCH  15  16
ENDBRANCH   1  15
TORSDOF 5
ENDMDL
