MODEL 1
REMARK VINA RESULT:     -11.4      0.000      0.000
REMARK  Name = 9801640
REMARK  6 active torsions:
REMARK  status: ('A' for Active; 'I' for Inactive)
REMARK    1  A    between atoms: C_1  and  C_2
REMARK    2  A    between atoms: C_1  and  C_16
REMARK    3  A    between atoms: C_2  and  N_3
REMARK    4  A    between atoms: C_7  and  C_11
REMARK    5  A    between atoms: C_16  and  C_17
REMARK    6  A    between atoms: C_17  and  N_21
REMARK                            x       y       z     vdW  Elec       q    Type
REMARK                         _______ _______ _______ _____ _____    ______ ____
ROOT
ATOM      1  C   UNL     1      33.568 -15.295 -25.203  0.00  0.00    -0.021 C 
ENDROOT
BRANCH   1   2
ATOM      2  C   UNL     1      34.861 -15.725 -24.513  0.00  0.00    -0.077 C 
BRANCH   2   3
ATOM      3  N   UNL     1      34.591 -16.783 -23.542  0.00  0.00    +0.390 N 
ATOM      4  C   UNL     1      35.080 -18.079 -24.020  0.00  0.00    -0.072 C 
ATOM      5  C   UNL     1      35.181 -16.454 -22.234  0.00  0.00    -0.051 C 
ATOM      6  C   UNL     1      34.635 -19.192 -23.060  0.00  0.00    +0.005 C 
ATOM      7  C   UNL     1      34.905 -18.862 -21.609  0.00  0.00    -0.013 C 
ATOM      8  C   UNL     1      35.158 -17.591 -21.248  0.00  0.00    -0.052 C 
ATOM      9  H   UNL     1      33.579 -16.853 -23.428  0.00  0.00    -0.079 HD
BRANCH   7  11
ATOM     10  N   UNL     1      36.073 -20.354 -20.123  0.00  0.00    -0.244 NA
ATOM     11  C   UNL     1      34.875 -19.967 -20.619  0.00  0.00    +0.077 C 
ATOM     12  C   UNL     1      33.666 -20.541 -20.255  0.00  0.00    +0.019 C 
ATOM     13  C   UNL     1      33.688 -21.574 -19.324  0.00  0.00    +0.003 C 
ATOM     14  C   UNL     1      36.055 -21.362 -19.221  0.00  0.00    +0.099 C 
ATOM     15  C   UNL     1      34.901 -21.998 -18.793  0.00  0.00    +0.021 C 
ENDBRANCH   7  11
ENDBRANCH   2   3
ENDBRANCH   1   2
BRANCH   1  16
ATOM     16  C   UNL     1      33.357 -13.782 -25.088  0.00  0.00    +0.020 C 
BRANCH  16  17
ATOM     17  C   UNL     1      34.275 -13.139 -24.054  0.00  0.00    +0.099 C 
BRANCH  17  21
ATOM     18 CL   UNL     1      35.317 -10.423 -24.462  0.00  0.00    -0.062 Cl
ATOM     19  O   UNL     1      31.868  -9.735 -22.648  0.00  0.00    -0.448 OA
ATOM     20  O   UNL     1      32.323 -13.729 -22.186  0.00  0.00    -0.269 OA
ATOM     21  N   UNL     1      33.595 -12.098 -23.270  0.00  0.00    -0.244 N 
ATOM     22  C   UNL     1      32.697 -12.557 -22.280  0.00  0.00    +0.256 C 
ATOM     23  C   UNL     1      33.870 -10.762 -23.555  0.00  0.00    +0.151 C 
ATOM     24  C   UNL     1      32.229 -11.649 -21.206  0.00  0.00    +0.088 C 
ATOM     25  C   UNL     1      31.833 -10.333 -21.421  0.00  0.00    +0.150 C 
ATOM     26  C   UNL     1      33.091  -9.715 -23.257  0.00  0.00    +0.206 C 
ATOM     27  C   UNL     1      32.125 -12.184 -19.911  0.00  0.00    +0.008 C 
ATOM     28  C   UNL     1      31.318  -9.563 -20.371  0.00  0.00    +0.038 C 
ATOM     29  C   UNL     1      31.632 -11.411 -18.858  0.00  0.00    +0.000 C 
ATOM     30  C   UNL     1      31.225 -10.101 -19.090  0.00  0.00    +0.003 C 
ENDBRANCH  17  21
ENDBRANCH  16  17
ENDBRANCH   1  16
TORSDOF 6
ENDMDL
MODEL 2
REMARK VINA RESULT:     -10.9      2.377      3.401
REMARK  Name = 9801640
REMARK  6 active torsions:
REMARK  status: ('A' for Active; 'I' for Inactive)
REMARK    1  A    between atoms: C_1  and  C_2
REMARK    2  A    between atoms: C_1  and  C_16
REMARK    3  A    between atoms: C_2  and  N_3
REMARK    4  A    between atoms: C_7  and  C_11
REMARK    5  A    between atoms: C_16  and  C_17
REMARK    6  A    between atoms: C_17  and  N_21
REMARK                            x       y       z     vdW  Elec       q    Type
REMARK                         _______ _______ _______ _____ _____    ______ ____
ROOT
ATOM      1  C   UNL     1      33.039 -13.493 -23.232  0.00  0.00    -0.021 C 
ENDROOT
BRANCH   1   2
ATOM      2  C   UNL     1      34.359 -14.232 -23.448  0.00  0.00    -0.077 C 
BRANCH   2   3
ATOM      3  N   UNL     1      34.304 -15.558 -22.836  0.00  0.00    +0.390 N 
ATOM      4  C   UNL     1      35.220 -16.487 -23.503  0.00  0.00    -0.072 C 
ATOM      5  C   UNL     1      34.599 -15.481 -21.397  0.00  0.00    -0.051 C 
ATOM      6  C   UNL     1      35.019 -17.906 -22.951  0.00  0.00    +0.005 C 
ATOM      7  C   UNL     1      34.992 -17.953 -21.440  0.00  0.00    -0.013 C 
ATOM      8  C   UNL     1      34.799 -16.820 -20.739  0.00  0.00    -0.052 C 
ATOM      9  H   UNL     1      33.356 -15.916 -22.950  0.00  0.00    -0.079 HD
BRANCH   7  11
ATOM     10  N   UNL     1      36.449 -19.598 -20.456  0.00  0.00    -0.244 NA
ATOM     11  C   UNL     1      35.176 -19.265 -20.773  0.00  0.00    +0.077 C 
ATOM     12  C   UNL     1      34.078 -20.071 -20.510  0.00  0.00    +0.019 C 
ATOM     13  C   UNL     1      34.300 -21.292 -19.884  0.00  0.00    +0.003 C 
ATOM     14  C   UNL     1      36.625 -20.794 -19.849  0.00  0.00    +0.099 C 
ATOM     15  C   UNL     1      35.595 -21.668 -19.544  0.00  0.00    +0.021 C 
ENDBRANCH   7  11
ENDBRANCH   2   3
ENDBRANCH   1   2
BRANCH   1  16
ATOM     16  C   UNL     1      33.155 -12.478 -22.091  0.00  0.00    +0.020 C 
BRANCH  16  17
ATOM     17  C   UNL     1      31.817 -11.840 -21.734  0.00  0.00    +0.099 C 
BRANCH  17  21
ATOM     18 CL   UNL     1      30.802 -11.212 -19.050  0.00  0.00    -0.062 Cl
ATOM     19  O   UNL     1      32.955  -8.003 -19.906  0.00  0.00    -0.448 OA
ATOM     20  O   UNL     1      32.752  -9.902 -23.472  0.00  0.00    -0.269 OA
ATOM     21  N   UNL     1      31.954 -10.430 -21.342  0.00  0.00    -0.244 N 
ATOM     22  C   UNL     1      32.343  -9.538 -22.367  0.00  0.00    +0.256 C 
ATOM     23  C   UNL     1      31.703 -10.079 -20.017  0.00  0.00    +0.151 C 
ATOM     24  C   UNL     1      32.174  -8.075 -22.199  0.00  0.00    +0.088 C 
ATOM     25  C   UNL     1      32.487  -7.387 -21.031  0.00  0.00    +0.150 C 
ATOM     26  C   UNL     1      32.149  -8.981 -19.394  0.00  0.00    +0.206 C 
ATOM     27  C   UNL     1      31.731  -7.346 -23.316  0.00  0.00    +0.008 C 
ATOM     28  C   UNL     1      32.384  -5.991 -20.977  0.00  0.00    +0.038 C 
ATOM     29  C   UNL     1      31.608  -5.957 -23.257  0.00  0.00    +0.000 C 
ATOM     30  C   UNL     1      31.939  -5.279 -22.087  0.00  0.00    +0.003 C 
ENDBRANCH  17  21
ENDBRANCH  16  17
ENDBRANCH   1  16
TORSDOF 6
ENDMDL
MODEL 3
REMARK VINA RESULT:     -10.7      5.769     11.278
REMARK  Name = 9801640
REMARK  6 active torsions:
REMARK  status: ('A' for Active; 'I' for Inactive)
REMARK    1  A    between atoms: C_1  and  C_2
REMARK    2  A    between atoms: C_1  and  C_16
REMARK    3  A    between atoms: C_2  and  N_3
REMARK    4  A    between atoms: C_7  and  C_11
REMARK    5  A    between atoms: C_16  and  C_17
REMARK    6  A    between atoms: C_17  and  N_21
REMARK                            x       y       z     vdW  Elec       q    Type
REMARK                         _______ _______ _______ _____ _____    ______ ____
ROOT
ATOM      1  C   UNL     1      36.857 -21.662 -17.582  0.00  0.00    -0.021 C 
ENDROOT
BRANCH   1   2
ATOM      2  C   UNL     1      36.221 -21.851 -18.958  0.00  0.00    -0.077 C 
BRANCH   2   3
ATOM      3  N   UNL     1      35.925 -20.555 -19.563  0.00  0.00    +0.390 N 
ATOM      4  C   UNL     1      37.015 -20.119 -20.441  0.00  0.00    -0.072 C 
ATOM      5  C   UNL     1      34.651 -20.601 -20.299  0.00  0.00    -0.051 C 
ATOM      6  C   UNL     1      36.752 -18.686 -20.928  0.00  0.00    +0.005 C 
ATOM      7  C   UNL     1      35.346 -18.488 -21.448  0.00  0.00    -0.013 C 
ATOM      8  C   UNL     1      34.390 -19.386 -21.148  0.00  0.00    -0.052 C 
ATOM      9  H   UNL     1      35.836 -19.871 -18.811  0.00  0.00    -0.079 HD
BRANCH   7  11
ATOM     10  N   UNL     1      34.812 -16.145 -21.603  0.00  0.00    -0.244 NA
ATOM     11  C   UNL     1      35.065 -17.291 -22.277  0.00  0.00    +0.077 C 
ATOM     12  C   UNL     1      35.071 -17.387 -23.662  0.00  0.00    +0.019 C 
ATOM     13  C   UNL     1      34.801 -16.238 -24.397  0.00  0.00    +0.003 C 
ATOM     14  C   UNL     1      34.553 -15.049 -22.352  0.00  0.00    +0.099 C 
ATOM     15  C   UNL     1      34.536 -15.043 -23.737  0.00  0.00    +0.021 C 
ENDBRANCH   7  11
ENDBRANCH   2   3
ENDBRANCH   1   2
BRANCH   1  16
ATOM     16  C   UNL     1      35.940 -22.189 -16.474  0.00  0.00    +0.020 C 
BRANCH  16  17
ATOM     17  C   UNL     1      34.845 -23.108 -17.005  0.00  0.00    +0.099 C 
BRANCH  17  21
ATOM     18 CL   UNL     1      35.965 -24.891 -14.956  0.00  0.00    -0.062 Cl
ATOM     19  O   UNL     1      32.593 -23.689 -13.270  0.00  0.00    -0.448 OA
ATOM     20  O   UNL     1      32.168 -22.419 -17.088  0.00  0.00    -0.269 OA
ATOM     21  N   UNL     1      33.895 -23.512 -15.958  0.00  0.00    -0.244 N 
ATOM     22  C   UNL     1      32.542 -23.178 -16.189  0.00  0.00    +0.256 C 
ATOM     23  C   UNL     1      34.383 -24.174 -14.834  0.00  0.00    +0.151 C 
ATOM     24  C   UNL     1      31.460 -23.824 -15.409  0.00  0.00    +0.088 C 
ATOM     25  C   UNL     1      31.514 -24.034 -14.034  0.00  0.00    +0.150 C 
ATOM     26  C   UNL     1      33.780 -24.255 -13.641  0.00  0.00    +0.206 C 
ATOM     27  C   UNL     1      30.292 -24.183 -16.103  0.00  0.00    +0.008 C 
ATOM     28  C   UNL     1      30.416 -24.570 -13.352  0.00  0.00    +0.038 C 
ATOM     29  C   UNL     1      29.204 -24.738 -15.426  0.00  0.00    +0.000 C 
ATOM     30  C   UNL     1      29.265 -24.928 -14.049  0.00  0.00    +0.003 C 
ENDBRANCH  17  21
ENDBRANCH  16  17
ENDBRANCH   1  16
TORSDOF 6
ENDMDL
MODEL 4
REMARK VINA RESULT:     -10.6      6.245     11.837
REMARK  Name = 9801640
REMARK  6 active torsions:
REMARK  status: ('A' for Active; 'I' for Inactive)
REMARK    1  A    between atoms: C_1  and  C_2
REMARK    2  A    between atoms: C_1  and  C_16
REMARK    3  A    between atoms: C_2  and  N_3
REMARK    4  A    between atoms: C_7  and  C_11
REMARK    5  A    between atoms: C_16  and  C_17
REMARK    6  A    between atoms: C_17  and  N_21
REMARK                            x       y       z     vdW  Elec       q    Type
REMARK                         _______ _______ _______ _____ _____    ______ ____
ROOT
ATOM      1  C   UNL     1      35.135 -22.335 -18.664  0.00  0.00    -0.021 C 
ENDROOT
BRANCH   1   2
ATOM      2  C   UNL     1      36.396 -21.591 -19.103  0.00  0.00    -0.077 C 
BRANCH   2   3
ATOM      3  N   UNL     1      36.042 -20.316 -19.722  0.00  0.00    +0.390 N 
ATOM      4  C   UNL     1      37.122 -19.827 -20.584  0.00  0.00    -0.072 C 
ATOM      5  C   UNL     1      34.786 -20.434 -20.479  0.00  0.00    -0.051 C 
ATOM      6  C   UNL     1      36.792 -18.413 -21.085  0.00  0.00    +0.005 C 
ATOM      7  C   UNL     1      35.387 -18.293 -21.630  0.00  0.00    -0.013 C 
ATOM      8  C   UNL     1      34.474 -19.240 -21.341  0.00  0.00    -0.052 C 
ATOM      9  H   UNL     1      35.904 -19.633 -18.976  0.00  0.00    -0.079 HD
BRANCH   7  11
ATOM     10  N   UNL     1      34.827 -15.959 -21.813  0.00  0.00    -0.244 NA
ATOM     11  C   UNL     1      35.057 -17.118 -22.472  0.00  0.00    +0.077 C 
ATOM     12  C   UNL     1      34.998 -17.247 -23.852  0.00  0.00    +0.019 C 
ATOM     13  C   UNL     1      34.684 -16.117 -24.600  0.00  0.00    +0.003 C 
ATOM     14  C   UNL     1      34.524 -14.882 -22.574  0.00  0.00    +0.099 C 
ATOM     15  C   UNL     1      34.442 -14.909 -23.956  0.00  0.00    +0.021 C 
ENDBRANCH   7  11
ENDBRANCH   2   3
ENDBRANCH   1   2
BRANCH   1  16
ATOM     16  C   UNL     1      35.004 -22.344 -17.137  0.00  0.00    +0.020 C 
BRANCH  16  17
ATOM     17  C   UNL     1      34.212 -23.541 -16.623  0.00  0.00    +0.099 C 
BRANCH  17  21
ATOM     18 CL   UNL     1      31.827 -22.745 -15.106  0.00  0.00    -0.062 Cl
ATOM     19  O   UNL     1      33.872 -24.817 -12.426  0.00  0.00    -0.448 OA
ATOM     20  O   UNL     1      36.567 -24.330 -15.405  0.00  0.00    -0.269 OA
ATOM     21  N   UNL     1      34.329 -23.707 -15.167  0.00  0.00    -0.244 N 
ATOM     22  C   UNL     1      35.620 -24.011 -14.680  0.00  0.00    +0.256 C 
ATOM     23  C   UNL     1      33.184 -23.564 -14.386  0.00  0.00    +0.151 C 
ATOM     24  C   UNL     1      35.941 -23.855 -13.242  0.00  0.00    +0.088 C 
ATOM     25  C   UNL     1      35.100 -24.260 -12.210  0.00  0.00    +0.150 C 
ATOM     26  C   UNL     1      33.001 -24.057 -13.154  0.00  0.00    +0.206 C 
ATOM     27  C   UNL     1      37.201 -23.322 -12.918  0.00  0.00    +0.008 C 
ATOM     28  C   UNL     1      35.510 -24.160 -10.876  0.00  0.00    +0.038 C 
ATOM     29  C   UNL     1      37.603 -23.202 -11.586  0.00  0.00    +0.000 C 
ATOM     30  C   UNL     1      36.758 -23.625 -10.565  0.00  0.00    +0.003 C 
ENDBRANCH  17  21
ENDBRANCH  16  17
ENDBRANCH   1  16
TORSDOF 6
ENDMDL
MODEL 5
REMARK VINA RESULT:     -10.5      3.930      9.706
REMARK  Name = 9801640
REMARK  6 active torsions:
REMARK  status: ('A' for Active; 'I' for Inactive)
REMARK    1  A    between atoms: C_1  and  C_2
REMARK    2  A    between atoms: C_1  and  C_16
REMARK    3  A    between atoms: C_2  and  N_3
REMARK    4  A    between atoms: C_7  and  C_11
REMARK    5  A    between atoms: C_16  and  C_17
REMARK    6  A    between atoms: C_17  and  N_21
REMARK                            x       y       z     vdW  Elec       q    Type
REMARK                         _______ _______ _______ _____ _____    ______ ____
ROOT
ATOM      1  C   UNL     1      36.625 -18.222 -21.733  0.00  0.00    -0.021 C 
ENDROOT
BRANCH   1   2
ATOM      2  C   UNL     1      35.400 -18.234 -22.646  0.00  0.00    -0.077 C 
BRANCH   2   3
ATOM      3  N   UNL     1      34.515 -17.117 -22.322  0.00  0.00    +0.390 N 
ATOM      4  C   UNL     1      34.865 -16.523 -21.028  0.00  0.00    -0.072 C 
ATOM      5  C   UNL     1      34.548 -16.100 -23.386  0.00  0.00    -0.051 C 
ATOM      6  C   UNL     1      33.820 -15.466 -20.639  0.00  0.00    +0.005 C 
ATOM      7  C   UNL     1      33.510 -14.502 -21.762  0.00  0.00    -0.013 C 
ATOM      8  C   UNL     1      33.856 -14.813 -23.025  0.00  0.00    -0.052 C 
ATOM      9  H   UNL     1      33.564 -17.479 -22.253  0.00  0.00    -0.079 HD
BRANCH   7  11
ATOM     10  N   UNL     1      32.815 -12.285 -22.395  0.00  0.00    -0.244 NA
ATOM     11  C   UNL     1      32.819 -13.233 -21.429  0.00  0.00    +0.077 C 
ATOM     12  C   UNL     1      32.225 -13.071 -20.185  0.00  0.00    +0.019 C 
ATOM     13  C   UNL     1      31.590 -11.863 -19.918  0.00  0.00    +0.003 C 
ATOM     14  C   UNL     1      32.188 -11.124 -22.098  0.00  0.00    +0.099 C 
ATOM     15  C   UNL     1      31.567 -10.866 -20.887  0.00  0.00    +0.021 C 
ENDBRANCH   7  11
ENDBRANCH   2   3
ENDBRANCH   1   2
BRANCH   1  16
ATOM     16  C   UNL     1      36.609 -19.415 -20.773  0.00  0.00    +0.020 C 
BRANCH  16  17
ATOM     17  C   UNL     1      35.387 -20.307 -20.965  0.00  0.00    +0.099 C 
BRANCH  17  21
ATOM     18 CL   UNL     1      32.591 -20.021 -20.113  0.00  0.00    -0.062 Cl
ATOM     19  O   UNL     1      33.800 -23.135 -17.992  0.00  0.00    -0.448 OA
ATOM     20  O   UNL     1      37.271 -21.684 -19.481  0.00  0.00    -0.269 OA
ATOM     21  N   UNL     1      35.039 -21.053 -19.747  0.00  0.00    -0.244 N 
ATOM     22  C   UNL     1      36.122 -21.617 -19.036  0.00  0.00    +0.256 C 
ATOM     23  C   UNL     1      33.696 -21.154 -19.389  0.00  0.00    +0.151 C 
ATOM     24  C   UNL     1      35.950 -22.076 -17.637  0.00  0.00    +0.088 C 
ATOM     25  C   UNL     1      34.851 -22.800 -17.187  0.00  0.00    +0.150 C 
ATOM     26  C   UNL     1      33.160 -22.086 -18.590  0.00  0.00    +0.206 C 
ATOM     27  C   UNL     1      36.998 -21.808 -16.740  0.00  0.00    +0.008 C 
ATOM     28  C   UNL     1      34.801 -23.275 -15.871  0.00  0.00    +0.038 C 
ATOM     29  C   UNL     1      36.940 -22.263 -15.421  0.00  0.00    +0.000 C 
ATOM     30  C   UNL     1      35.842 -23.000 -14.988  0.00  0.00    +0.003 C 
ENDBRANCH  17  21
ENDBRANCH  16  17
ENDBRANCH   1  16
TORSDOF 6
ENDMDL
MODEL 6
REMARK VINA RESULT:     -10.4      4.855     10.645
REMARK  Name = 9801640
REMARK  6 active torsions:
REMARK  status: ('A' for Active; 'I' for Inactive)
REMARK    1  A    between atoms: C_1  and  C_2
REMARK    2  A    between atoms: C_1  and  C_16
REMARK    3  A    between atoms: C_2  and  N_3
REMARK    4  A    between atoms: C_7  and  C_11
REMARK    5  A    between atoms: C_16  and  C_17
REMARK    6  A    between atoms: C_17  and  N_21
REMARK                            x       y       z     vdW  Elec       q    Type
REMARK                         _______ _______ _______ _____ _____    ______ ____
ROOT
ATOM      1  C   UNL     1      34.009 -20.452 -20.849  0.00  0.00    -0.021 C 
ENDROOT
BRANCH   1   2
ATOM      2  C   UNL     1      35.079 -19.365 -20.935  0.00  0.00    -0.077 C 
BRANCH   2   3
ATOM      3  N   UNL     1      34.576 -18.216 -21.684  0.00  0.00    +0.390 N 
ATOM      4  C   UNL     1      34.932 -16.956 -21.023  0.00  0.00    -0.072 C 
ATOM      5  C   UNL     1      35.075 -18.236 -23.068  0.00  0.00    -0.051 C 
ATOM      6  C   UNL     1      34.250 -15.781 -21.739  0.00  0.00    +0.005 C 
ATOM      7  C   UNL     1      34.419 -15.826 -23.241  0.00  0.00    -0.013 C 
ATOM      8  C   UNL     1      34.804 -16.971 -23.836  0.00  0.00    -0.052 C 
ATOM      9  H   UNL     1      33.558 -18.279 -21.709  0.00  0.00    -0.079 HD
BRANCH   7  11
ATOM     10  N   UNL     1      34.390 -13.423 -23.383  0.00  0.00    -0.244 NA
ATOM     11  C   UNL     1      34.145 -14.593 -24.017  0.00  0.00    +0.077 C 
ATOM     12  C   UNL     1      33.667 -14.681 -25.317  0.00  0.00    +0.019 C 
ATOM     13  C   UNL     1      33.424 -13.497 -26.005  0.00  0.00    +0.003 C 
ATOM     14  C   UNL     1      34.141 -12.293 -24.083  0.00  0.00    +0.099 C 
ATOM     15  C   UNL     1      33.663 -12.277 -25.383  0.00  0.00    +0.021 C 
ENDBRANCH   7  11
ENDBRANCH   2   3
ENDBRANCH   1   2
BRANCH   1  16
ATOM     16  C   UNL     1      33.747 -20.854 -19.394  0.00  0.00    +0.020 C 
BRANCH  16  17
ATOM     17  C   UNL     1      34.174 -22.287 -19.095  0.00  0.00    +0.099 C 
BRANCH  17  21
ATOM     18 CL   UNL     1      37.005 -21.726 -19.641  0.00  0.00    -0.062 Cl
ATOM     19  O   UNL     1      36.854 -21.512 -15.692  0.00  0.00    -0.448 OA
ATOM     20  O   UNL     1      33.265 -23.133 -16.624  0.00  0.00    -0.269 OA
ATOM     21  N   UNL     1      35.054 -22.377 -17.920  0.00  0.00    -0.244 N 
ATOM     22  C   UNL     1      34.475 -22.926 -16.754  0.00  0.00    +0.256 C 
ATOM     23  C   UNL     1      36.365 -21.920 -18.033  0.00  0.00    +0.151 C 
ATOM     24  C   UNL     1      35.327 -23.394 -15.636  0.00  0.00    +0.088 C 
ATOM     25  C   UNL     1      36.429 -22.694 -15.155  0.00  0.00    +0.150 C 
ATOM     26  C   UNL     1      37.162 -21.550 -17.023  0.00  0.00    +0.206 C 
ATOM     27  C   UNL     1      34.949 -24.585 -14.994  0.00  0.00    +0.008 C 
ATOM     28  C   UNL     1      37.134 -23.155 -14.037  0.00  0.00    +0.038 C 
ATOM     29  C   UNL     1      35.664 -25.058 -13.892  0.00  0.00    +0.000 C 
ATOM     30  C   UNL     1      36.755 -24.340 -13.411  0.00  0.00    +0.003 C 
ENDBRANCH  17  21
ENDBRANCH  16  17
ENDBRANCH   1  16
TORSDOF 6
ENDMDL
MODEL 7
REMARK VINA RESULT:     -10.4      4.021      6.499
REMARK  Name = 9801640
REMARK  6 active torsions:
REMARK  status: ('A' for Active; 'I' for Inactive)
REMARK    1  A    between atoms: C_1  and  C_2
REMARK    2  A    between atoms: C_1  and  C_16
REMARK    3  A    between atoms: C_2  and  N_3
REMARK    4  A    between atoms: C_7  and  C_11
REMARK    5  A    between atoms: C_16  and  C_17
REMARK    6  A    between atoms: C_17  and  N_21
REMARK                            x       y       z     vdW  Elec       q    Type
REMARK                         _______ _______ _______ _____ _____    ______ ____
ROOT
ATOM      1  C   UNL     1      32.090  -9.864 -20.990  0.00  0.00    -0.021 C 
ENDROOT
BRANCH   1   2
ATOM      2  C   UNL     1      30.990 -10.901 -21.214  0.00  0.00    -0.077 C 
BRANCH   2   3
ATOM      3  N   UNL     1      31.575 -12.198 -21.545  0.00  0.00    +0.390 N 
ATOM      4  C   UNL     1      32.647 -12.058 -22.536  0.00  0.00    -0.072 C 
ATOM      5  C   UNL     1      32.071 -12.871 -20.334  0.00  0.00    -0.051 C 
ATOM      6  C   UNL     1      33.127 -13.446 -22.985  0.00  0.00    +0.005 C 
ATOM      7  C   UNL     1      33.395 -14.382 -21.828  0.00  0.00    -0.013 C 
ATOM      8  C   UNL     1      32.900 -14.096 -20.609  0.00  0.00    -0.052 C 
ATOM      9  H   UNL     1      30.843 -12.777 -21.956  0.00  0.00    -0.079 HD
BRANCH   7  11
ATOM     10  N   UNL     1      34.643 -16.260 -20.986  0.00  0.00    -0.244 NA
ATOM     11  C   UNL     1      34.200 -15.601 -22.081  0.00  0.00    +0.077 C 
ATOM     12  C   UNL     1      34.460 -16.004 -23.383  0.00  0.00    +0.019 C 
ATOM     13  C   UNL     1      35.220 -17.154 -23.571  0.00  0.00    +0.003 C 
ATOM     14  C   UNL     1      35.380 -17.373 -21.208  0.00  0.00    +0.099 C 
ATOM     15  C   UNL     1      35.692 -17.856 -22.468  0.00  0.00    +0.021 C 
ENDBRANCH   7  11
ENDBRANCH   2   3
ENDBRANCH   1   2
BRANCH   1  16
ATOM     16  C   UNL     1      32.027  -8.756 -22.046  0.00  0.00    +0.020 C 
BRANCH  16  17
ATOM     17  C   UNL     1      32.779  -7.499 -21.622  0.00  0.00    +0.099 C 
BRANCH  17  21
ATOM     18 CL   UNL     1      35.352  -7.342 -23.030  0.00  0.00    -0.062 Cl
ATOM     19  O   UNL     1      32.951  -5.326 -25.444  0.00  0.00    -0.448 OA
ATOM     20  O   UNL     1      30.696  -5.746 -22.111  0.00  0.00    -0.269 OA
ATOM     21  N   UNL     1      32.832  -6.490 -22.690  0.00  0.00    -0.244 N 
ATOM     22  C   UNL     1      31.739  -5.597 -22.753  0.00  0.00    +0.256 C 
ATOM     23  C   UNL     1      33.927  -6.489 -23.552  0.00  0.00    +0.151 C 
ATOM     24  C   UNL     1      31.834  -4.340 -23.532  0.00  0.00    +0.088 C 
ATOM     25  C   UNL     1      32.398  -4.255 -24.801  0.00  0.00    +0.150 C 
ATOM     26  C   UNL     1      33.967  -5.950 -24.777  0.00  0.00    +0.206 C 
ATOM     27  C   UNL     1      31.261  -3.188 -22.968  0.00  0.00    +0.008 C 
ATOM     28  C   UNL     1      32.372  -3.050 -25.513  0.00  0.00    +0.038 C 
ATOM     29  C   UNL     1      31.254  -1.979 -23.668  0.00  0.00    +0.000 C 
ATOM     30  C   UNL     1      31.806  -1.912 -24.943  0.00  0.00    +0.003 C 
ENDBRANCH  17  21
ENDBRANCH  16  17
ENDBRANCH   1  16
TORSDOF 6
ENDMDL
MODEL 8
REMARK VINA RESULT:     -10.2      2.922      4.518
REMARK  Name = 9801640
REMARK  6 active torsions:
REMARK  status: ('A' for Active; 'I' for Inactive)
REMARK    1  A    between atoms: C_1  and  C_2
REMARK    2  A    between atoms: C_1  and  C_16
REMARK    3  A    between atoms: C_2  and  N_3
REMARK    4  A    between atoms: C_7  and  C_11
REMARK    5  A    between atoms: C_16  and  C_17
REMARK    6  A    between atoms: C_17  and  N_21
REMARK                            x       y       z     vdW  Elec       q    Type
REMARK                         _______ _______ _______ _____ _____    ______ ____
ROOT
ATOM      1  C   UNL     1      34.183 -12.411 -24.110  0.00  0.00    -0.021 C 
ENDROOT
BRANCH   1   2
ATOM      2  C   UNL     1      33.473 -12.964 -22.875  0.00  0.00    -0.077 C 
BRANCH   2   3
ATOM      3  N   UNL     1      34.181 -14.137 -22.365  0.00  0.00    +0.390 N 
ATOM      4  C   UNL     1      33.495 -14.706 -21.202  0.00  0.00    -0.072 C 
ATOM      5  C   UNL     1      34.340 -15.149 -23.421  0.00  0.00    -0.051 C 
ATOM      6  C   UNL     1      34.346 -15.828 -20.590  0.00  0.00    +0.005 C 
ATOM      7  C   UNL     1      34.855 -16.811 -21.621  0.00  0.00    -0.013 C 
ATOM      8  C   UNL     1      34.841 -16.479 -22.925  0.00  0.00    -0.052 C 
ATOM      9  H   UNL     1      35.109 -13.837 -22.066  0.00  0.00    -0.079 HD
BRANCH   7  11
ATOM     10  N   UNL     1      36.695 -18.198 -20.925  0.00  0.00    -0.244 NA
ATOM     11  C   UNL     1      35.364 -18.122 -21.151  0.00  0.00    +0.077 C 
ATOM     12  C   UNL     1      34.487 -19.183 -20.968  0.00  0.00    +0.019 C 
ATOM     13  C   UNL     1      35.011 -20.393 -20.527  0.00  0.00    +0.003 C 
ATOM     14  C   UNL     1      37.168 -19.392 -20.498  0.00  0.00    +0.099 C 
ATOM     15  C   UNL     1      36.375 -20.508 -20.286  0.00  0.00    +0.021 C 
ENDBRANCH   7  11
ENDBRANCH   2   3
ENDBRANCH   1   2
BRANCH   1  16
ATOM     16  C   UNL     1      33.977 -10.898 -24.233  0.00  0.00    +0.020 C 
BRANCH  16  17
ATOM     17  C   UNL     1      34.101 -10.178 -22.894  0.00  0.00    +0.099 C 
BRANCH  17  21
ATOM     18 CL   UNL     1      31.283 -10.155 -22.064  0.00  0.00    -0.062 Cl
ATOM     19  O   UNL     1      32.240  -6.319 -21.897  0.00  0.00    -0.448 OA
ATOM     20  O   UNL     1      35.401  -7.929 -23.842  0.00  0.00    -0.269 OA
ATOM     21  N   UNL     1      33.469  -8.851 -22.911  0.00  0.00    -0.244 N 
ATOM     22  C   UNL     1      34.215  -7.818 -23.521  0.00  0.00    +0.256 C 
ATOM     23  C   UNL     1      32.210  -8.705 -22.331  0.00  0.00    +0.151 C 
ATOM     24  C   UNL     1      33.562  -6.547 -23.915  0.00  0.00    +0.088 C 
ATOM     25  C   UNL     1      32.650  -5.863 -23.118  0.00  0.00    +0.150 C 
ATOM     26  C   UNL     1      31.670  -7.560 -21.894  0.00  0.00    +0.206 C 
ATOM     27  C   UNL     1      33.947  -5.980 -25.142  0.00  0.00    +0.008 C 
ATOM     28  C   UNL     1      32.142  -4.622 -23.520  0.00  0.00    +0.038 C 
ATOM     29  C   UNL     1      33.425  -4.752 -25.554  0.00  0.00    +0.000 C 
ATOM     30  C   UNL     1      32.525  -4.072 -24.740  0.00  0.00    +0.003 C 
ENDBRANCH  17  21
ENDBRANCH  16  17
ENDBRANCH   1  16
TORSDOF 6
ENDMDL
MODEL 9
REMARK VINA RESULT:     -10.1      3.303     10.369
REMARK  Name = 9801640
REMARK  6 active torsions:
REMARK  status: ('A' for Active; 'I' for Inactive)
REMARK    1  A    between atoms: C_1  and  C_2
REMARK    2  A    between atoms: C_1  and  C_16
REMARK    3  A    between atoms: C_2  and  N_3
REMARK    4  A    between atoms: C_7  and  C_11
REMARK    5  A    between atoms: C_16  and  C_17
REMARK    6  A    between atoms: C_17  and  N_21
REMARK                            x       y       z     vdW  Elec       q    Type
REMARK                         _______ _______ _______ _____ _____    ______ ____
ROOT
ATOM      1  C   UNL     1      31.544 -12.034 -21.412  0.00  0.00    -0.021 C 
ENDROOT
BRANCH   1   2
ATOM      2  C   UNL     1      31.797 -10.909 -20.410  0.00  0.00    -0.077 C 
BRANCH   2   3
ATOM      3  N   UNL     1      31.560  -9.610 -21.036  0.00  0.00    +0.390 N 
ATOM      4  C   UNL     1      32.262  -8.540 -20.319  0.00  0.00    -0.072 C 
ATOM      5  C   UNL     1      31.956  -9.633 -22.453  0.00  0.00    -0.051 C 
ATOM      6  C   UNL     1      31.861  -7.174 -20.896  0.00  0.00    +0.005 C 
ATOM      7  C   UNL     1      31.925  -7.130 -22.406  0.00  0.00    -0.013 C 
ATOM      8  C   UNL     1      31.971  -8.278 -23.108  0.00  0.00    -0.052 C 
ATOM      9  H   UNL     1      30.560  -9.416 -20.986  0.00  0.00    -0.079 HD
BRANCH   7  11
ATOM     10  N   UNL     1      31.159  -4.850 -22.501  0.00  0.00    -0.244 NA
ATOM     11  C   UNL     1      31.929  -5.805 -23.071  0.00  0.00    +0.077 C 
ATOM     12  C   UNL     1      32.694  -5.601 -24.211  0.00  0.00    +0.019 C 
ATOM     13  C   UNL     1      32.665  -4.342 -24.800  0.00  0.00    +0.003 C 
ATOM     14  C   UNL     1      31.156  -3.638 -23.102  0.00  0.00    +0.099 C 
ATOM     15  C   UNL     1      31.884  -3.336 -24.241  0.00  0.00    +0.021 C 
ENDBRANCH   7  11
ENDBRANCH   2   3
ENDBRANCH   1   2
BRANCH   1  16
ATOM     16  C   UNL     1      32.664 -13.078 -21.364  0.00  0.00    +0.020 C 
BRANCH  16  17
ATOM     17  C   UNL     1      33.527 -13.070 -22.621  0.00  0.00    +0.099 C 
BRANCH  17  21
ATOM     18 CL   UNL     1      32.564 -13.962 -25.249  0.00  0.00    -0.062 Cl
ATOM     19  O   UNL     1      35.431 -16.577 -24.474  0.00  0.00    -0.448 OA
ATOM     20  O   UNL     1      34.959 -14.710 -20.916  0.00  0.00    -0.269 OA
ATOM     21  N   UNL     1      33.966 -14.418 -23.009  0.00  0.00    -0.244 N 
ATOM     22  C   UNL     1      34.595 -15.179 -21.998  0.00  0.00    +0.256 C 
ATOM     23  C   UNL     1      33.744 -14.841 -24.318  0.00  0.00    +0.151 C 
ATOM     24  C   UNL     1      34.759 -16.644 -22.147  0.00  0.00    +0.088 C 
ATOM     25  C   UNL     1      35.169 -17.264 -23.323  0.00  0.00    +0.150 C 
ATOM     26  C   UNL     1      34.400 -15.819 -24.954  0.00  0.00    +0.206 C 
ATOM     27  C   UNL     1      34.545 -17.435 -21.005  0.00  0.00    +0.008 C 
ATOM     28  C   UNL     1      35.386 -18.646 -23.362  0.00  0.00    +0.038 C 
ATOM     29  C   UNL     1      34.741 -18.817 -21.048  0.00  0.00    +0.000 C 
ATOM     30  C   UNL     1      35.166 -19.421 -22.227  0.00  0.00    +0.003 C 
ENDBRANCH  17  21
ENDBRANCH  16  17
ENDBRANCH   1  16
TORSDOF 6
ENDMDL
