MODEL 1
REMARK VINA RESULT:     -11.4      0.000      0.000
REMARK  Name = 10361208
REMARK  3 active torsions:
REMARK  status: ('A' for Active; 'I' for Inactive)
REMARK    1  A    between atoms: N_1  and  C_12
REMARK    2  A    between atoms: C_10  and  C_18
REMARK    3  A    between atoms: C_21  and  C_27
REMARK                            x       y       z     vdW  Elec       q    Type
REMARK                         _______ _______ _______ _____ _____    ______ ____
ROOT
ATOM      1  N   UNL     1      35.098 -24.759 -13.651  0.00  0.00    -0.318 N 
ATOM      2  N   UNL     1      34.123 -23.679 -15.428  0.00  0.00    -0.147 NA
ATOM      3  N   UNL     1      32.949 -23.325 -16.008  0.00  0.00    -0.190 N 
ATOM      4  N   UNL     1      30.803 -23.081 -16.403  0.00  0.00    -0.127 NA
ATOM      5  N   UNL     1      31.506 -22.466 -17.418  0.00  0.00    -0.127 NA
ATOM      6  C   UNL     1      34.000 -24.356 -14.310  0.00  0.00    +0.149 C 
ATOM      7  C   UNL     1      32.660 -24.708 -13.722  0.00  0.00    +0.039 C 
ATOM      8  C   UNL     1      31.677 -23.592 -15.562  0.00  0.00    +0.187 A 
ATOM      9  C   UNL     1      31.552 -24.318 -14.363  0.00  0.00    +0.044 C 
ATOM     10  C   UNL     1      32.787 -22.623 -17.167  0.00  0.00    +0.187 A 
ATOM     11  H   UNL     1      34.985 -25.279 -12.822  0.00  0.00    +0.148 HD
ENDROOT
BRANCH   1  12
ATOM     12  C   UNL     1      36.443 -24.462 -14.106  0.00  0.00    +0.070 C 
ATOM     13  C   UNL     1      37.235 -23.771 -12.991  0.00  0.00    +0.020 C 
ATOM     14  C   UNL     1      37.135 -25.746 -14.576  0.00  0.00    +0.020 C 
ATOM     15  C   UNL     1      37.588 -24.718 -11.843  0.00  0.00    +0.002 C 
ATOM     16  C   UNL     1      37.487 -26.684 -13.422  0.00  0.00    +0.002 C 
ATOM     17  C   UNL     1      38.297 -25.971 -12.343  0.00  0.00    +0.000 C 
ENDBRANCH   1  12
BRANCH  10  18
ATOM     18  C   UNL     1      33.879 -22.136 -17.975  0.00  0.00    +0.038 C 
ATOM     19  C   UNL     1      33.623 -21.323 -19.078  0.00  0.00    +0.007 C 
ATOM     20  C   UNL     1      35.191 -22.479 -17.651  0.00  0.00    +0.003 C 
ATOM     21  C   UNL     1      34.679 -20.853 -19.858  0.00  0.00    +0.072 C 
ATOM     22  C   UNL     1      36.248 -22.010 -18.431  0.00  0.00    +0.000 C 
ATOM     23  C   UNL     1      35.991 -21.196 -19.535  0.00  0.00    +0.004 C 
BRANCH  21  27
ATOM     24  F   UNL     1      34.471 -18.647 -20.759  0.00  0.00    -0.166 F 
ATOM     25  F   UNL     1      35.278 -20.173 -22.072  0.00  0.00    -0.166 F 
ATOM     26  F   UNL     1      33.164 -20.186 -21.565  0.00  0.00    -0.166 F 
ATOM     27  C   UNL     1      34.406 -19.982 -21.038  0.00  0.00    +0.419 C 
ENDBRANCH  21  27
ENDBRANCH  10  18
TORSDOF 3
ENDMDL
MODEL 2
REMARK VINA RESULT:     -11.2      3.216      5.178
REMARK  Name = 10361208
REMARK  3 active torsions:
REMARK  status: ('A' for Active; 'I' for Inactive)
REMARK    1  A    between atoms: N_1  and  C_12
REMARK    2  A    between atoms: C_10  and  C_18
REMARK    3  A    between atoms: C_21  and  C_27
REMARK                            x       y       z     vdW  Elec       q    Type
REMARK                         _______ _______ _______ _____ _____    ______ ____
ROOT
ATOM      1  N   UNL     1      37.002 -22.978 -14.275  0.00  0.00    -0.318 N 
ATOM      2  N   UNL     1      35.068 -22.924 -15.514  0.00  0.00    -0.147 NA
ATOM      3  N   UNL     1      34.532 -22.657 -16.731  0.00  0.00    -0.190 N 
ATOM      4  N   UNL     1      34.318 -22.081 -18.839  0.00  0.00    -0.127 NA
ATOM      5  N   UNL     1      33.073 -22.419 -18.350  0.00  0.00    -0.127 NA
ATOM      6  C   UNL     1      36.367 -22.743 -15.434  0.00  0.00    +0.149 C 
ATOM      7  C   UNL     1      37.190 -22.277 -16.604  0.00  0.00    +0.039 C 
ATOM      8  C   UNL     1      35.186 -22.228 -17.861  0.00  0.00    +0.187 A 
ATOM      9  C   UNL     1      36.577 -22.036 -17.769  0.00  0.00    +0.044 C 
ATOM     10  C   UNL     1      33.220 -22.759 -17.089  0.00  0.00    +0.187 A 
ATOM     11  H   UNL     1      37.973 -22.821 -14.231  0.00  0.00    +0.148 HD
ENDROOT
BRANCH   1  12
ATOM     12  C   UNL     1      36.320 -23.451 -13.085  0.00  0.00    +0.070 C 
ATOM     13  C   UNL     1      35.939 -24.926 -13.249  0.00  0.00    +0.020 C 
ATOM     14  C   UNL     1      37.201 -23.231 -11.851  0.00  0.00    +0.020 C 
ATOM     15  C   UNL     1      37.151 -25.858 -13.203  0.00  0.00    +0.002 C 
ATOM     16  C   UNL     1      38.408 -24.169 -11.811  0.00  0.00    +0.002 C 
ATOM     17  C   UNL     1      37.990 -25.630 -11.950  0.00  0.00    +0.000 C 
ENDBRANCH   1  12
BRANCH  10  18
ATOM     18  C   UNL     1      32.171 -23.184 -16.193  0.00  0.00    +0.038 C 
ATOM     19  C   UNL     1      30.835 -23.055 -16.572  0.00  0.00    +0.007 C 
ATOM     20  C   UNL     1      32.494 -23.722 -14.948  0.00  0.00    +0.003 C 
ATOM     21  C   UNL     1      29.822 -23.465 -15.706  0.00  0.00    +0.072 C 
ATOM     22  C   UNL     1      31.481 -24.131 -14.081  0.00  0.00    +0.000 C 
ATOM     23  C   UNL     1      30.144 -24.003 -14.461  0.00  0.00    +0.004 C 
BRANCH  21  27
ATOM     24  F   UNL     1      27.545 -23.115 -15.062  0.00  0.00    -0.166 F 
ATOM     25  F   UNL     1      28.164 -22.296 -16.973  0.00  0.00    -0.166 F 
ATOM     26  F   UNL     1      27.918 -24.444 -16.742  0.00  0.00    -0.166 F 
ATOM     27  C   UNL     1      28.393 -23.330 -16.111  0.00  0.00    +0.419 C 
ENDBRANCH  21  27
ENDBRANCH  10  18
TORSDOF 3
ENDMDL
MODEL 3
REMARK VINA RESULT:     -10.5      2.357      2.920
REMARK  Name = 10361208
REMARK  3 active torsions:
REMARK  status: ('A' for Active; 'I' for Inactive)
REMARK    1  A    between atoms: N_1  and  C_12
REMARK    2  A    between atoms: C_10  and  C_18
REMARK    3  A    between atoms: C_21  and  C_27
REMARK                            x       y       z     vdW  Elec       q    Type
REMARK                         _______ _______ _______ _____ _____    ______ ____
ROOT
ATOM      1  N   UNL     1      34.744 -24.722 -12.722  0.00  0.00    -0.318 N 
ATOM      2  N   UNL     1      33.995 -23.861 -14.716  0.00  0.00    -0.147 NA
ATOM      3  N   UNL     1      32.906 -23.636 -15.494  0.00  0.00    -0.190 N 
ATOM      4  N   UNL     1      30.836 -23.572 -16.222  0.00  0.00    -0.127 NA
ATOM      5  N   UNL     1      31.653 -22.997 -17.174  0.00  0.00    -0.127 NA
ATOM      6  C   UNL     1      33.740 -24.451 -13.571  0.00  0.00    +0.149 C 
ATOM      7  C   UNL     1      32.346 -24.843 -13.158  0.00  0.00    +0.039 C 
ATOM      8  C   UNL     1      31.598 -23.951 -15.217  0.00  0.00    +0.187 A 
ATOM      9  C   UNL     1      31.330 -24.583 -13.989  0.00  0.00    +0.044 C 
ATOM     10  C   UNL     1      32.886 -23.045 -16.723  0.00  0.00    +0.187 A 
ATOM     11  H   UNL     1      34.534 -25.179 -11.875  0.00  0.00    +0.148 HD
ENDROOT
BRANCH   1  12
ATOM     12  C   UNL     1      36.125 -24.373 -12.999  0.00  0.00    +0.070 C 
ATOM     13  C   UNL     1      37.046 -24.996 -11.945  0.00  0.00    +0.020 C 
ATOM     14  C   UNL     1      36.506 -24.819 -14.414  0.00  0.00    +0.020 C 
ATOM     15  C   UNL     1      37.162 -26.515 -12.085  0.00  0.00    +0.002 C 
ATOM     16  C   UNL     1      36.624 -26.338 -14.545  0.00  0.00    +0.002 C 
ATOM     17  C   UNL     1      37.568 -26.921 -13.498  0.00  0.00    +0.000 C 
ENDBRANCH   1  12
BRANCH  10  18
ATOM     18  C   UNL     1      34.061 -22.553 -17.401  0.00  0.00    +0.038 C 
ATOM     19  C   UNL     1      35.242 -22.343 -16.689  0.00  0.00    +0.007 C 
ATOM     20  C   UNL     1      34.014 -22.286 -18.769  0.00  0.00    +0.003 C 
ATOM     21  C   UNL     1      36.376 -21.866 -17.345  0.00  0.00    +0.072 C 
ATOM     22  C   UNL     1      35.149 -21.809 -19.426  0.00  0.00    +0.000 C 
ATOM     23  C   UNL     1      36.330 -21.599 -18.713  0.00  0.00    +0.004 C 
BRANCH  21  27
ATOM     24  F   UNL     1      38.577 -22.617 -16.782  0.00  0.00    -0.166 F 
ATOM     25  F   UNL     1      38.270 -20.473 -16.903  0.00  0.00    -0.166 F 
ATOM     26  F   UNL     1      37.439 -21.595 -15.236  0.00  0.00    -0.166 F 
ATOM     27  C   UNL     1      37.640 -21.643 -16.585  0.00  0.00    +0.419 C 
ENDBRANCH  21  27
ENDBRANCH  10  18
TORSDOF 3
ENDMDL
MODEL 4
REMARK VINA RESULT:     -10.5      4.304      7.253
REMARK  Name = 10361208
REMARK  3 active torsions:
REMARK  status: ('A' for Active; 'I' for Inactive)
REMARK    1  A    between atoms: N_1  and  C_12
REMARK    2  A    between atoms: C_10  and  C_18
REMARK    3  A    between atoms: C_21  and  C_27
REMARK                            x       y       z     vdW  Elec       q    Type
REMARK                         _______ _______ _______ _____ _____    ______ ____
ROOT
ATOM      1  N   UNL     1      31.714 -23.178 -16.776  0.00  0.00    -0.318 N 
ATOM      2  N   UNL     1      33.973 -23.021 -16.392  0.00  0.00    -0.147 NA
ATOM      3  N   UNL     1      35.163 -22.607 -16.896  0.00  0.00    -0.190 N 
ATOM      4  N   UNL     1      36.684 -21.755 -18.231  0.00  0.00    -0.127 NA
ATOM      5  N   UNL     1      37.308 -22.198 -17.083  0.00  0.00    -0.127 NA
ATOM      6  C   UNL     1      32.941 -22.807 -17.175  0.00  0.00    +0.149 C 
ATOM      7  C   UNL     1      33.073 -22.154 -18.525  0.00  0.00    +0.039 C 
ATOM      8  C   UNL     1      35.397 -22.003 -18.108  0.00  0.00    +0.187 A 
ATOM      9  C   UNL     1      34.287 -21.778 -18.943  0.00  0.00    +0.044 C 
ATOM     10  C   UNL     1      36.385 -22.705 -16.297  0.00  0.00    +0.187 A 
ATOM     11  H   UNL     1      30.955 -23.024 -17.384  0.00  0.00    +0.148 HD
ENDROOT
BRANCH   1  12
ATOM     12  C   UNL     1      31.458 -23.796 -15.488  0.00  0.00    +0.070 C 
ATOM     13  C   UNL     1      30.894 -22.760 -14.511  0.00  0.00    +0.020 C 
ATOM     14  C   UNL     1      30.509 -24.987 -15.656  0.00  0.00    +0.020 C 
ATOM     15  C   UNL     1      29.462 -22.343 -14.852  0.00  0.00    +0.002 C 
ATOM     16  C   UNL     1      29.079 -24.561 -15.993  0.00  0.00    +0.002 C 
ATOM     17  C   UNL     1      28.540 -23.550 -14.986  0.00  0.00    +0.000 C 
ENDBRANCH   1  12
BRANCH  10  18
ATOM     18  C   UNL     1      36.600 -23.283 -14.993  0.00  0.00    +0.038 C 
ATOM     19  C   UNL     1      37.651 -24.177 -14.790  0.00  0.00    +0.007 C 
ATOM     20  C   UNL     1      35.755 -22.949 -13.936  0.00  0.00    +0.003 C 
ATOM     21  C   UNL     1      37.858 -24.735 -13.529  0.00  0.00    +0.072 C 
ATOM     22  C   UNL     1      35.960 -23.507 -12.674  0.00  0.00    +0.000 C 
ATOM     23  C   UNL     1      37.013 -24.401 -12.471  0.00  0.00    +0.004 C 
BRANCH  21  27
ATOM     24  F   UNL     1      39.042 -26.689 -14.238  0.00  0.00    -0.166 F 
ATOM     25  F   UNL     1      40.214 -25.100 -13.341  0.00  0.00    -0.166 F 
ATOM     26  F   UNL     1      38.910 -26.318 -12.099  0.00  0.00    -0.166 F 
ATOM     27  C   UNL     1      38.983 -25.689 -13.309  0.00  0.00    +0.419 C 
ENDBRANCH  21  27
ENDBRANCH  10  18
TORSDOF 3
ENDMDL
MODEL 5
REMARK VINA RESULT:     -10.0      2.186      5.052
REMARK  Name = 10361208
REMARK  3 active torsions:
REMARK  status: ('A' for Active; 'I' for Inactive)
REMARK    1  A    between atoms: N_1  and  C_12
REMARK    2  A    between atoms: C_10  and  C_18
REMARK    3  A    between atoms: C_21  and  C_27
REMARK                            x       y       z     vdW  Elec       q    Type
REMARK                         _______ _______ _______ _____ _____    ______ ____
ROOT
ATOM      1  N   UNL     1      32.279 -24.542 -13.839  0.00  0.00    -0.318 N 
ATOM      2  N   UNL     1      34.311 -23.674 -14.467  0.00  0.00    -0.147 NA
ATOM      3  N   UNL     1      35.583 -23.416 -14.071  0.00  0.00    -0.190 N 
ATOM      4  N   UNL     1      37.405 -23.279 -12.855  0.00  0.00    -0.127 NA
ATOM      5  N   UNL     1      37.670 -22.748 -14.101  0.00  0.00    -0.127 NA
ATOM      6  C   UNL     1      33.556 -24.242 -13.555  0.00  0.00    +0.149 C 
ATOM      7  C   UNL     1      34.067 -24.577 -12.179  0.00  0.00    +0.039 C 
ATOM      8  C   UNL     1      36.151 -23.678 -12.848  0.00  0.00    +0.187 A 
ATOM      9  C   UNL     1      35.337 -24.286 -11.874  0.00  0.00    +0.044 C 
ATOM     10  C   UNL     1      36.570 -22.837 -14.814  0.00  0.00    +0.187 A 
ATOM     11  H   UNL     1      31.724 -24.952 -13.136  0.00  0.00    +0.148 HD
ENDROOT
BRANCH   1  12
ATOM     12  C   UNL     1      31.680 -24.286 -15.135  0.00  0.00    +0.070 C 
ATOM     13  C   UNL     1      30.571 -25.306 -15.412  0.00  0.00    +0.020 C 
ATOM     14  C   UNL     1      31.152 -22.850 -15.197  0.00  0.00    +0.020 C 
ATOM     15  C   UNL     1      29.333 -25.084 -14.541  0.00  0.00    +0.002 C 
ATOM     16  C   UNL     1      29.912 -22.637 -14.327  0.00  0.00    +0.002 C 
ATOM     17  C   UNL     1      28.819 -23.653 -14.647  0.00  0.00    +0.000 C 
ENDBRANCH   1  12
BRANCH  10  18
ATOM     18  C   UNL     1      36.402 -22.399 -16.179  0.00  0.00    +0.038 C 
ATOM     19  C   UNL     1      35.218 -22.679 -16.861  0.00  0.00    +0.007 C 
ATOM     20  C   UNL     1      37.425 -21.696 -16.815  0.00  0.00    +0.003 C 
ATOM     21  C   UNL     1      35.057 -22.256 -18.180  0.00  0.00    +0.072 C 
ATOM     22  C   UNL     1      37.265 -21.273 -18.134  0.00  0.00    +0.000 C 
ATOM     23  C   UNL     1      36.080 -21.553 -18.817  0.00  0.00    +0.004 C 
BRANCH  21  27
ATOM     24  F   UNL     1      33.465 -21.612 -19.845  0.00  0.00    -0.166 F 
ATOM     25  F   UNL     1      33.817 -23.737 -19.590  0.00  0.00    -0.166 F 
ATOM     26  F   UNL     1      32.712 -22.632 -18.079  0.00  0.00    -0.166 F 
ATOM     27  C   UNL     1      33.791 -22.553 -18.911  0.00  0.00    +0.419 C 
ENDBRANCH  21  27
ENDBRANCH  10  18
TORSDOF 3
ENDMDL
MODEL 6
REMARK VINA RESULT:      -9.9      1.884      4.610
REMARK  Name = 10361208
REMARK  3 active torsions:
REMARK  status: ('A' for Active; 'I' for Inactive)
REMARK    1  A    between atoms: N_1  and  C_12
REMARK    2  A    between atoms: C_10  and  C_18
REMARK    3  A    between atoms: C_21  and  C_27
REMARK                            x       y       z     vdW  Elec       q    Type
REMARK                         _______ _______ _______ _____ _____    ______ ____
ROOT
ATOM      1  N   UNL     1      32.796 -24.013 -14.686  0.00  0.00    -0.318 N 
ATOM      2  N   UNL     1      34.230 -23.026 -16.184  0.00  0.00    -0.147 NA
ATOM      3  N   UNL     1      35.527 -22.753 -16.471  0.00  0.00    -0.190 N 
ATOM      4  N   UNL     1      37.716 -22.646 -16.346  0.00  0.00    -0.127 NA
ATOM      5  N   UNL     1      37.313 -22.009 -17.502  0.00  0.00    -0.127 NA
ATOM      6  C   UNL     1      34.042 -23.690 -15.067  0.00  0.00    +0.149 C 
ATOM      7  C   UNL     1      35.181 -24.114 -14.179  0.00  0.00    +0.039 C 
ATOM      8  C   UNL     1      36.638 -23.090 -15.736  0.00  0.00    +0.187 A 
ATOM      9  C   UNL     1      36.431 -23.801 -14.539  0.00  0.00    +0.044 C 
ATOM     10  C   UNL     1      36.002 -22.082 -17.559  0.00  0.00    +0.187 A 
ATOM     11  H   UNL     1      32.674 -24.498 -13.837  0.00  0.00    +0.148 HD
ENDROOT
BRANCH   1  12
ATOM     12  C   UNL     1      31.621 -23.680 -15.469  0.00  0.00    +0.070 C 
ATOM     13  C   UNL     1      30.881 -24.957 -15.877  0.00  0.00    +0.020 C 
ATOM     14  C   UNL     1      30.713 -22.732 -14.677  0.00  0.00    +0.020 C 
ATOM     15  C   UNL     1      30.184 -25.639 -14.700  0.00  0.00    +0.002 C 
ATOM     16  C   UNL     1      30.017 -23.423 -13.504  0.00  0.00    +0.002 C 
ATOM     17  C   UNL     1      29.270 -24.676 -13.951  0.00  0.00    +0.000 C 
ENDBRANCH   1  12
BRANCH  10  18
ATOM     18  C   UNL     1      35.164 -21.545 -18.605  0.00  0.00    +0.038 C 
ATOM     19  C   UNL     1      35.712 -20.708 -19.577  0.00  0.00    +0.007 C 
ATOM     20  C   UNL     1      33.807 -21.862 -18.640  0.00  0.00    +0.003 C 
ATOM     21  C   UNL     1      34.901 -20.189 -20.586  0.00  0.00    +0.072 C 
ATOM     22  C   UNL     1      32.996 -21.342 -19.650  0.00  0.00    +0.000 C 
ATOM     23  C   UNL     1      33.544 -20.506 -20.623  0.00  0.00    +0.004 C 
BRANCH  21  27
ATOM     24  F   UNL     1      34.948 -18.041 -21.637  0.00  0.00    -0.166 F 
ATOM     25  F   UNL     1      36.831 -19.107 -21.495  0.00  0.00    -0.166 F 
ATOM     26  F   UNL     1      35.308 -19.779 -22.893  0.00  0.00    -0.166 F 
ATOM     27  C   UNL     1      35.485 -19.296 -21.629  0.00  0.00    +0.419 C 
ENDBRANCH  21  27
ENDBRANCH  10  18
TORSDOF 3
ENDMDL
MODEL 7
REMARK VINA RESULT:      -9.8     10.684     13.930
REMARK  Name = 10361208
REMARK  3 active torsions:
REMARK  status: ('A' for Active; 'I' for Inactive)
REMARK    1  A    between atoms: N_1  and  C_12
REMARK    2  A    between atoms: C_10  and  C_18
REMARK    3  A    between atoms: C_21  and  C_27
REMARK                            x       y       z     vdW  Elec       q    Type
REMARK                         _______ _______ _______ _____ _____    ______ ____
ROOT
ATOM      1  N   UNL     1      32.295  -9.355 -22.051  0.00  0.00    -0.318 N 
ATOM      2  N   UNL     1      32.613 -11.627 -21.923  0.00  0.00    -0.147 NA
ATOM      3  N   UNL     1      32.475 -12.729 -21.144  0.00  0.00    -0.190 N 
ATOM      4  N   UNL     1      32.001 -14.047 -19.453  0.00  0.00    -0.127 NA
ATOM      5  N   UNL     1      32.539 -14.813 -20.467  0.00  0.00    -0.127 NA
ATOM      6  C   UNL     1      32.205 -10.508 -21.369  0.00  0.00    +0.149 C 
ATOM      7  C   UNL     1      31.629 -10.459 -19.979  0.00  0.00    +0.039 C 
ATOM      8  C   UNL     1      31.967 -12.798 -19.870  0.00  0.00    +0.187 A 
ATOM      9  C   UNL     1      31.531 -11.597 -19.281  0.00  0.00    +0.044 C 
ATOM     10  C   UNL     1      32.817 -14.009 -21.469  0.00  0.00    +0.187 A 
ATOM     11  H   UNL     1      31.999  -8.525 -21.612  0.00  0.00    +0.148 HD
ENDROOT
BRANCH   1  12
ATOM     12  C   UNL     1      32.812  -9.279 -23.404  0.00  0.00    +0.070 C 
ATOM     13  C   UNL     1      32.067  -8.195 -24.190  0.00  0.00    +0.020 C 
ATOM     14  C   UNL     1      34.321  -9.019 -23.377  0.00  0.00    +0.020 C 
ATOM     15  C   UNL     1      32.424  -6.781 -23.731  0.00  0.00    +0.002 C 
ATOM     16  C   UNL     1      34.669  -7.602 -22.920  0.00  0.00    +0.002 C 
ATOM     17  C   UNL     1      33.931  -6.548 -23.741  0.00  0.00    +0.000 C 
ENDBRANCH   1  12
BRANCH  10  18
ATOM     18  C   UNL     1      33.395 -14.394 -22.735  0.00  0.00    +0.038 C 
ATOM     19  C   UNL     1      33.086 -13.676 -23.890  0.00  0.00    +0.007 C 
ATOM     20  C   UNL     1      34.260 -15.485 -22.801  0.00  0.00    +0.003 C 
ATOM     21  C   UNL     1      33.644 -14.049 -25.112  0.00  0.00    +0.072 C 
ATOM     22  C   UNL     1      34.818 -15.859 -24.024  0.00  0.00    +0.000 C 
ATOM     23  C   UNL     1      34.510 -15.140 -25.180  0.00  0.00    +0.004 C 
BRANCH  21  27
ATOM     24  F   UNL     1      34.112 -13.594 -27.413  0.00  0.00    -0.166 F 
ATOM     25  F   UNL     1      32.039 -13.473 -26.788  0.00  0.00    -0.166 F 
ATOM     26  F   UNL     1      33.447 -11.933 -26.178  0.00  0.00    -0.166 F 
ATOM     27  C   UNL     1      33.317 -13.281 -26.348  0.00  0.00    +0.419 C 
ENDBRANCH  21  27
ENDBRANCH  10  18
TORSDOF 3
ENDMDL
MODEL 8
REMARK VINA RESULT:      -9.8     11.761     14.729
REMARK  Name = 10361208
REMARK  3 active torsions:
REMARK  status: ('A' for Active; 'I' for Inactive)
REMARK    1  A    between atoms: N_1  and  C_12
REMARK    2  A    between atoms: C_10  and  C_18
REMARK    3  A    between atoms: C_21  and  C_27
REMARK                            x       y       z     vdW  Elec       q    Type
REMARK                         _______ _______ _______ _____ _____    ______ ____
ROOT
ATOM      1  N   UNL     1      31.731  -8.264 -20.916  0.00  0.00    -0.318 N 
ATOM      2  N   UNL     1      32.253 -10.428 -21.485  0.00  0.00    -0.147 NA
ATOM      3  N   UNL     1      32.263 -11.719 -21.068  0.00  0.00    -0.190 N 
ATOM      4  N   UNL     1      32.016 -13.517 -19.832  0.00  0.00    -0.127 NA
ATOM      5  N   UNL     1      32.551 -13.891 -21.048  0.00  0.00    -0.127 NA
ATOM      6  C   UNL     1      31.786  -9.570 -20.608  0.00  0.00    +0.149 C 
ATOM      7  C   UNL     1      31.300  -9.991 -19.246  0.00  0.00    +0.039 C 
ATOM      8  C   UNL     1      31.846 -12.212 -19.855  0.00  0.00    +0.187 A 
ATOM      9  C   UNL     1      31.347 -11.288 -18.918  0.00  0.00    +0.044 C 
ATOM     10  C   UNL     1      32.692 -12.804 -21.773  0.00  0.00    +0.187 A 
ATOM     11  H   UNL     1      31.392  -7.635 -20.238  0.00  0.00    +0.148 HD
ENDROOT
BRANCH   1  12
ATOM     12  C   UNL     1      32.149  -7.741 -22.202  0.00  0.00    +0.070 C 
ATOM     13  C   UNL     1      30.923  -7.380 -23.047  0.00  0.00    +0.020 C 
ATOM     14  C   UNL     1      33.072  -6.534 -22.004  0.00  0.00    +0.020 C 
ATOM     15  C   UNL     1      30.190  -6.143 -22.525  0.00  0.00    +0.002 C 
ATOM     16  C   UNL     1      32.330  -5.301 -21.487  0.00  0.00    +0.002 C 
ATOM     17  C   UNL     1      31.131  -4.955 -22.365  0.00  0.00    +0.000 C 
ENDBRANCH   1  12
BRANCH  10  18
ATOM     18  C   UNL     1      33.217 -12.738 -23.116  0.00  0.00    +0.038 C 
ATOM     19  C   UNL     1      33.170 -13.862 -23.940  0.00  0.00    +0.007 C 
ATOM     20  C   UNL     1      33.773 -11.550 -23.588  0.00  0.00    +0.003 C 
ATOM     21  C   UNL     1      33.678 -13.798 -25.237  0.00  0.00    +0.072 C 
ATOM     22  C   UNL     1      34.282 -11.484 -24.885  0.00  0.00    +0.000 C 
ATOM     23  C   UNL     1      34.234 -12.610 -25.710  0.00  0.00    +0.004 C 
BRANCH  21  27
ATOM     24  F   UNL     1      34.319 -16.069 -25.629  0.00  0.00    -0.166 F 
ATOM     25  F   UNL     1      32.361 -15.463 -26.339  0.00  0.00    -0.166 F 
ATOM     26  F   UNL     1      34.150 -14.762 -27.359  0.00  0.00    -0.166 F 
ATOM     27  C   UNL     1      33.627 -14.999 -26.120  0.00  0.00    +0.419 C 
ENDBRANCH  21  27
ENDBRANCH  10  18
TORSDOF 3
ENDMDL
MODEL 9
REMARK VINA RESULT:      -9.6      4.095      6.948
REMARK  Name = 10361208
REMARK  3 active torsions:
REMARK  status: ('A' for Active; 'I' for Inactive)
REMARK    1  A    between atoms: N_1  and  C_12
REMARK    2  A    between atoms: C_10  and  C_18
REMARK    3  A    between atoms: C_21  and  C_27
REMARK                            x       y       z     vdW  Elec       q    Type
REMARK                         _______ _______ _______ _____ _____    ______ ____
ROOT
ATOM      1  N   UNL     1      31.767 -23.105 -16.784  0.00  0.00    -0.318 N 
ATOM      2  N   UNL     1      34.049 -22.962 -16.555  0.00  0.00    -0.147 NA
ATOM      3  N   UNL     1      35.200 -22.527 -17.126  0.00  0.00    -0.190 N 
ATOM      4  N   UNL     1      36.625 -21.622 -18.530  0.00  0.00    -0.127 NA
ATOM      5  N   UNL     1      37.328 -22.111 -17.448  0.00  0.00    -0.127 NA
ATOM      6  C   UNL     1      32.964 -22.718 -17.254  0.00  0.00    +0.149 C 
ATOM      7  C   UNL     1      33.001 -22.012 -18.583  0.00  0.00    +0.039 C 
ATOM      8  C   UNL     1      35.349 -21.876 -18.326  0.00  0.00    +0.187 A 
ATOM      9  C   UNL     1      34.184 -21.619 -19.071  0.00  0.00    +0.044 C 
ATOM     10  C   UNL     1      36.461 -22.649 -16.619  0.00  0.00    +0.187 A 
ATOM     11  H   UNL     1      30.967 -22.928 -17.331  0.00  0.00    +0.148 HD
ENDROOT
BRANCH   1  12
ATOM     12  C   UNL     1      31.602 -23.774 -15.508  0.00  0.00    +0.070 C 
ATOM     13  C   UNL     1      31.072 -22.788 -14.462  0.00  0.00    +0.020 C 
ATOM     14  C   UNL     1      30.672 -24.982 -15.664  0.00  0.00    +0.020 C 
ATOM     15  C   UNL     1      29.614 -22.395 -14.704  0.00  0.00    +0.002 C 
ATOM     16  C   UNL     1      29.216 -24.581 -15.901  0.00  0.00    +0.002 C 
ATOM     17  C   UNL     1      28.714 -23.620 -14.829  0.00  0.00    +0.000 C 
ENDBRANCH   1  12
BRANCH  10  18
ATOM     18  C   UNL     1      36.767 -23.279 -15.357  0.00  0.00    +0.038 C 
ATOM     19  C   UNL     1      35.794 -23.356 -14.362  0.00  0.00    +0.007 C 
ATOM     20  C   UNL     1      38.038 -23.808 -15.134  0.00  0.00    +0.003 C 
ATOM     21  C   UNL     1      36.090 -23.964 -13.142  0.00  0.00    +0.072 C 
ATOM     22  C   UNL     1      38.335 -24.416 -13.914  0.00  0.00    +0.000 C 
ATOM     23  C   UNL     1      37.361 -24.494 -12.918  0.00  0.00    +0.004 C 
BRANCH  21  27
ATOM     24  F   UNL     1      34.943 -25.289 -11.514  0.00  0.00    -0.166 F 
ATOM     25  F   UNL     1      35.268 -23.200 -11.031  0.00  0.00    -0.166 F 
ATOM     26  F   UNL     1      33.801 -23.748 -12.539  0.00  0.00    -0.166 F 
ATOM     27  C   UNL     1      35.050 -24.049 -12.077  0.00  0.00    +0.419 C 
ENDBRANCH  21  27
ENDBRANCH  10  18
TORSDOF 3
ENDMDL
