MODEL 1
REMARK VINA RESULT:     -11.9      0.000      0.000
REMARK  Name = 25243828
REMARK  6 active torsions:
REMARK  status: ('A' for Active; 'I' for Inactive)
REMARK    1  A    between atoms: C_1  and  C_18
REMARK    2  A    between atoms: C_4  and  O_7
REMARK    3  A    between atoms: O_7  and  C_9
REMARK    4  A    between atoms: C_11  and  C_17
REMARK    5  A    between atoms: C_18  and  C_21
REMARK    6  A    between atoms: C_26  and  O_27
REMARK                            x       y       z     vdW  Elec       q    Type
REMARK                         _______ _______ _______ _____ _____    ______ ____
ROOT
ATOM      1  C   UNL     1      33.965 -23.464 -14.767  0.00  0.00    -0.019 C 
ATOM      2  C   UNL     1      34.131 -23.599 -16.145  0.00  0.00    +0.033 C 
ATOM      3  C   UNL     1      32.734 -23.061 -14.249  0.00  0.00    -0.004 C 
ATOM      4  C   UNL     1      33.067 -23.329 -17.006  0.00  0.00    +0.147 C 
ATOM      5  C   UNL     1      31.670 -22.791 -15.109  0.00  0.00    +0.003 C 
ATOM      6  C   UNL     1      31.836 -22.925 -16.488  0.00  0.00    +0.038 C 
ENDROOT
BRANCH   4   7
ATOM      7  O   UNL     1      33.229 -23.458 -18.351  0.00  0.00    -0.436 OA
BRANCH   7   9
ATOM      8  N   UNL     1      32.826 -21.525 -19.593  0.00  0.00    -0.210 NA
ATOM      9  C   UNL     1      33.729 -22.370 -19.047  0.00  0.00    +0.230 C 
ATOM     10  C   UNL     1      35.101 -22.207 -19.143  0.00  0.00    +0.058 C 
ATOM     11  C   UNL     1      34.680 -20.213 -20.421  0.00  0.00    +0.091 C 
ATOM     12  C   UNL     1      35.578 -21.104 -19.845  0.00  0.00    +0.010 C 
ATOM     13  C   UNL     1      33.326 -20.465 -20.268  0.00  0.00    +0.106 C 
BRANCH  11  17
ATOM     14  F   UNL     1      34.604 -17.847 -20.765  0.00  0.00    -0.166 F 
ATOM     15  F   UNL     1      36.510 -18.828 -21.096  0.00  0.00    -0.166 F 
ATOM     16  F   UNL     1      34.885 -19.105 -22.515  0.00  0.00    -0.166 F 
ATOM     17  C   UNL     1      35.159 -19.026 -21.179  0.00  0.00    +0.420 C 
ENDBRANCH  11  17
ENDBRANCH   7   9
ENDBRANCH   4   7
BRANCH   1  18
ATOM     18  C   UNL     1      35.111 -23.753 -13.838  0.00  0.00    +0.027 C 
BRANCH  18  21
ATOM     19  O   UNL     1      41.192 -24.685 -14.202  0.00  0.00    -0.226 OA
ATOM     20  N   UNL     1      39.010 -25.380 -14.615  0.00  0.00    -0.246 N 
ATOM     21  C   UNL     1      36.273 -24.423 -14.568  0.00  0.00    +0.008 C 
ATOM     22  C   UNL     1      37.468 -23.464 -14.692  0.00  0.00    +0.022 C 
ATOM     23  C   UNL     1      36.695 -25.716 -13.852  0.00  0.00    +0.022 C 
ATOM     24  C   UNL     1      38.667 -24.154 -15.340  0.00  0.00    +0.097 C 
ATOM     25  C   UNL     1      37.909 -26.349 -14.529  0.00  0.00    +0.097 C 
ATOM     26  C   UNL     1      40.300 -25.527 -14.094  0.00  0.00    +0.402 C 
BRANCH  26  27
ATOM     27  O   UNL     1      40.553 -26.686 -13.422  0.00  0.00    -0.466 OA
ATOM     28  H   UNL     1      40.265 -27.504 -13.775  0.00  0.00    +0.297 HD
ENDBRANCH  26  27
ENDBRANCH  18  21
ENDBRANCH   1  18
TORSDOF 6
ENDMDL
MODEL 2
REMARK VINA RESULT:     -11.0      3.478      5.909
REMARK  Name = 25243828
REMARK  6 active torsions:
REMARK  status: ('A' for Active; 'I' for Inactive)
REMARK    1  A    between atoms: C_1  and  C_18
REMARK    2  A    between atoms: C_4  and  O_7
REMARK    3  A    between atoms: O_7  and  C_9
REMARK    4  A    between atoms: C_11  and  C_17
REMARK    5  A    between atoms: C_18  and  C_21
REMARK    6  A    between atoms: C_26  and  O_27
REMARK                            x       y       z     vdW  Elec       q    Type
REMARK                         _______ _______ _______ _____ _____    ______ ____
ROOT
ATOM      1  C   UNL     1      33.510 -23.987 -14.561  0.00  0.00    -0.019 C 
ATOM      2  C   UNL     1      33.074 -23.959 -15.885  0.00  0.00    +0.033 C 
ATOM      3  C   UNL     1      34.729 -23.402 -14.215  0.00  0.00    -0.004 C 
ATOM      4  C   UNL     1      33.857 -23.347 -16.864  0.00  0.00    +0.147 C 
ATOM      5  C   UNL     1      35.512 -22.791 -15.194  0.00  0.00    +0.003 C 
ATOM      6  C   UNL     1      35.075 -22.762 -16.519  0.00  0.00    +0.038 C 
ENDROOT
BRANCH   4   7
ATOM      7  O   UNL     1      33.433 -23.321 -18.157  0.00  0.00    -0.436 OA
BRANCH   7   9
ATOM      8  N   UNL     1      32.900 -21.457 -19.454  0.00  0.00    -0.210 NA
ATOM      9  C   UNL     1      33.857 -22.270 -18.953  0.00  0.00    +0.230 C 
ATOM     10  C   UNL     1      35.213 -22.110 -19.188  0.00  0.00    +0.058 C 
ATOM     11  C   UNL     1      34.658 -20.187 -20.522  0.00  0.00    +0.091 C 
ATOM     12  C   UNL     1      35.613 -21.045 -19.989  0.00  0.00    +0.010 C 
ATOM     13  C   UNL     1      33.327 -20.433 -20.228  0.00  0.00    +0.106 C 
BRANCH  11  17
ATOM     14  F   UNL     1      34.619 -17.828 -20.923  0.00  0.00    -0.166 F 
ATOM     15  F   UNL     1      36.407 -18.899 -21.523  0.00  0.00    -0.166 F 
ATOM     16  F   UNL     1      34.567 -19.140 -22.655  0.00  0.00    -0.166 F 
ATOM     17  C   UNL     1      35.054 -19.040 -21.384  0.00  0.00    +0.420 C 
ENDBRANCH  11  17
ENDBRANCH   7   9
ENDBRANCH   4   7
BRANCH   1  18
ATOM     18  C   UNL     1      32.668 -24.648 -13.504  0.00  0.00    +0.027 C 
BRANCH  18  21
ATOM     19  O   UNL     1      28.248 -22.103 -16.962  0.00  0.00    -0.226 OA
ATOM     20  N   UNL     1      28.914 -23.594 -15.304  0.00  0.00    -0.246 N 
ATOM     21  C   UNL     1      31.193 -24.282 -13.649  0.00  0.00    +0.008 C 
ATOM     22  C   UNL     1      31.033 -22.887 -14.274  0.00  0.00    +0.022 C 
ATOM     23  C   UNL     1      30.449 -25.334 -14.488  0.00  0.00    +0.022 C 
ATOM     24  C   UNL     1      29.561 -22.549 -14.507  0.00  0.00    +0.097 C 
ATOM     25  C   UNL     1      28.991 -24.934 -14.707  0.00  0.00    +0.097 C 
ATOM     26  C   UNL     1      28.293 -23.247 -16.508  0.00  0.00    +0.402 C 
BRANCH  26  27
ATOM     27  O   UNL     1      27.716 -24.265 -17.209  0.00  0.00    -0.466 OA
ATOM     28  H   UNL     1      27.316 -24.979 -16.752  0.00  0.00    +0.297 HD
ENDBRANCH  26  27
ENDBRANCH  18  21
ENDBRANCH   1  18
TORSDOF 6
ENDMDL
MODEL 3
REMARK VINA RESULT:     -11.0      4.956      8.610
REMARK  Name = 25243828
REMARK  6 active torsions:
REMARK  status: ('A' for Active; 'I' for Inactive)
REMARK    1  A    between atoms: C_1  and  C_18
REMARK    2  A    between atoms: C_4  and  O_7
REMARK    3  A    between atoms: O_7  and  C_9
REMARK    4  A    between atoms: C_11  and  C_17
REMARK    5  A    between atoms: C_18  and  C_21
REMARK    6  A    between atoms: C_26  and  O_27
REMARK                            x       y       z     vdW  Elec       q    Type
REMARK                         _______ _______ _______ _____ _____    ______ ____
ROOT
ATOM      1  C   UNL     1      35.528 -18.460 -22.044  0.00  0.00    -0.019 C 
ATOM      2  C   UNL     1      35.641 -17.073 -22.129  0.00  0.00    +0.033 C 
ATOM      3  C   UNL     1      35.000 -19.184 -23.114  0.00  0.00    -0.004 C 
ATOM      4  C   UNL     1      35.225 -16.409 -23.283  0.00  0.00    +0.147 C 
ATOM      5  C   UNL     1      34.584 -18.520 -24.267  0.00  0.00    +0.003 C 
ATOM      6  C   UNL     1      34.697 -17.132 -24.353  0.00  0.00    +0.038 C 
ENDROOT
BRANCH   4   7
ATOM      7  O   UNL     1      35.333 -15.054 -23.365  0.00  0.00    -0.436 OA
BRANCH   7   9
ATOM      8  N   UNL     1      33.934 -13.192 -23.246  0.00  0.00    -0.210 NA
ATOM      9  C   UNL     1      34.435 -14.291 -22.639  0.00  0.00    +0.230 C 
ATOM     10  C   UNL     1      34.101 -14.687 -21.354  0.00  0.00    +0.058 C 
ATOM     11  C   UNL     1      32.658 -12.766 -21.238  0.00  0.00    +0.091 C 
ATOM     12  C   UNL     1      33.194 -13.905 -20.647  0.00  0.00    +0.010 C 
ATOM     13  C   UNL     1      33.056 -12.456 -22.528  0.00  0.00    +0.106 C 
BRANCH  11  17
ATOM     14  F   UNL     1      32.052 -10.592 -20.445  0.00  0.00    -0.166 F 
ATOM     15  F   UNL     1      30.435 -11.902 -21.056  0.00  0.00    -0.166 F 
ATOM     16  F   UNL     1      31.511 -12.296 -19.208  0.00  0.00    -0.166 F 
ATOM     17  C   UNL     1      31.687 -11.908 -20.506  0.00  0.00    +0.420 C 
ENDBRANCH  11  17
ENDBRANCH   7   9
ENDBRANCH   4   7
BRANCH   1  18
ATOM     18  C   UNL     1      35.974 -19.178 -20.800  0.00  0.00    +0.027 C 
BRANCH  18  21
ATOM     19  O   UNL     1      33.730 -23.290 -16.796  0.00  0.00    -0.226 OA
ATOM     20  N   UNL     1      33.639 -22.216 -18.858  0.00  0.00    -0.246 N 
ATOM     21  C   UNL     1      35.184 -20.466 -20.579  0.00  0.00    +0.008 C 
ATOM     22  C   UNL     1      35.846 -21.336 -19.499  0.00  0.00    +0.022 C 
ATOM     23  C   UNL     1      33.727 -20.154 -20.198  0.00  0.00    +0.022 C 
ATOM     24  C   UNL     1      35.014 -22.584 -19.205  0.00  0.00    +0.097 C 
ATOM     25  C   UNL     1      32.951 -21.435 -19.895  0.00  0.00    +0.097 C 
ATOM     26  C   UNL     1      33.113 -22.626 -17.629  0.00  0.00    +0.402 C 
BRANCH  26  27
ATOM     27  O   UNL     1      31.831 -22.244 -17.361  0.00  0.00    -0.466 OA
ATOM     28  H   UNL     1      31.670 -21.499 -16.817  0.00  0.00    +0.297 HD
ENDBRANCH  26  27
ENDBRANCH  18  21
ENDBRANCH   1  18
TORSDOF 6
ENDMDL
MODEL 4
REMARK VINA RESULT:     -11.0      3.571      5.441
REMARK  Name = 25243828
REMARK  6 active torsions:
REMARK  status: ('A' for Active; 'I' for Inactive)
REMARK    1  A    between atoms: C_1  and  C_18
REMARK    2  A    between atoms: C_4  and  O_7
REMARK    3  A    between atoms: O_7  and  C_9
REMARK    4  A    between atoms: C_11  and  C_17
REMARK    5  A    between atoms: C_18  and  C_21
REMARK    6  A    between atoms: C_26  and  O_27
REMARK                            x       y       z     vdW  Elec       q    Type
REMARK                         _______ _______ _______ _____ _____    ______ ____
ROOT
ATOM      1  C   UNL     1      34.636 -21.861 -19.020  0.00  0.00    -0.019 C 
ATOM      2  C   UNL     1      35.544 -21.040 -19.688  0.00  0.00    +0.033 C 
ATOM      3  C   UNL     1      33.266 -21.706 -19.234  0.00  0.00    -0.004 C 
ATOM      4  C   UNL     1      35.082 -20.063 -20.570  0.00  0.00    +0.147 C 
ATOM      5  C   UNL     1      32.804 -20.729 -20.116  0.00  0.00    +0.003 C 
ATOM      6  C   UNL     1      33.712 -19.907 -20.785  0.00  0.00    +0.038 C 
ENDROOT
BRANCH   4   7
ATOM      7  O   UNL     1      35.967 -19.260 -21.221  0.00  0.00    -0.436 OA
BRANCH   7   9
ATOM      8  N   UNL     1      35.158 -17.098 -20.882  0.00  0.00    -0.210 NA
ATOM      9  C   UNL     1      35.489 -18.075 -21.756  0.00  0.00    +0.230 C 
ATOM     10  C   UNL     1      35.380 -17.955 -23.132  0.00  0.00    +0.058 C 
ATOM     11  C   UNL     1      34.549 -15.726 -22.776  0.00  0.00    +0.091 C 
ATOM     12  C   UNL     1      34.900 -16.753 -23.644  0.00  0.00    +0.010 C 
ATOM     13  C   UNL     1      34.695 -15.946 -21.416  0.00  0.00    +0.106 C 
BRANCH  11  17
ATOM     14  F   UNL     1      33.779 -14.434 -24.637  0.00  0.00    -0.166 F 
ATOM     15  F   UNL     1      32.855 -14.037 -22.715  0.00  0.00    -0.166 F 
ATOM     16  F   UNL     1      34.898 -13.395 -23.091  0.00  0.00    -0.166 F 
ATOM     17  C   UNL     1      34.031 -14.430 -23.293  0.00  0.00    +0.420 C 
ENDBRANCH  11  17
ENDBRANCH   7   9
ENDBRANCH   4   7
BRANCH   1  18
ATOM     18  C   UNL     1      35.132 -22.913 -18.067  0.00  0.00    +0.027 C 
BRANCH  18  21
ATOM     19  O   UNL     1      32.436 -25.067 -12.961  0.00  0.00    -0.226 OA
ATOM     20  N   UNL     1      33.898 -23.590 -14.008  0.00  0.00    -0.246 N 
ATOM     21  C   UNL     1      34.671 -22.640 -16.637  0.00  0.00    +0.008 C 
ATOM     22  C   UNL     1      33.296 -23.274 -16.373  0.00  0.00    +0.022 C 
ATOM     23  C   UNL     1      35.704 -23.157 -15.622  0.00  0.00    +0.022 C 
ATOM     24  C   UNL     1      32.867 -23.085 -14.919  0.00  0.00    +0.097 C 
ATOM     25  C   UNL     1      35.213 -22.961 -14.188  0.00  0.00    +0.097 C 
ATOM     26  C   UNL     1      33.560 -24.578 -13.078  0.00  0.00    +0.402 C 
BRANCH  26  27
ATOM     27  O   UNL     1      34.565 -25.014 -12.265  0.00  0.00    -0.466 OA
ATOM     28  H   UNL     1      34.361 -25.408 -11.440  0.00  0.00    +0.297 HD
ENDBRANCH  26  27
ENDBRANCH  18  21
ENDBRANCH   1  18
TORSDOF 6
ENDMDL
MODEL 5
REMARK VINA RESULT:     -10.8      6.203     11.244
REMARK  Name = 25243828
REMARK  6 active torsions:
REMARK  status: ('A' for Active; 'I' for Inactive)
REMARK    1  A    between atoms: C_1  and  C_18
REMARK    2  A    between atoms: C_4  and  O_7
REMARK    3  A    between atoms: O_7  and  C_9
REMARK    4  A    between atoms: C_11  and  C_17
REMARK    5  A    between atoms: C_18  and  C_21
REMARK    6  A    between atoms: C_26  and  O_27
REMARK                            x       y       z     vdW  Elec       q    Type
REMARK                         _______ _______ _______ _____ _____    ______ ____
ROOT
ATOM      1  C   UNL     1      34.844 -16.418 -21.607  0.00  0.00    -0.019 C 
ATOM      2  C   UNL     1      35.475 -17.486 -20.970  0.00  0.00    +0.033 C 
ATOM      3  C   UNL     1      34.575 -16.481 -22.975  0.00  0.00    -0.004 C 
ATOM      4  C   UNL     1      35.839 -18.618 -21.701  0.00  0.00    +0.147 C 
ATOM      5  C   UNL     1      34.939 -17.612 -23.705  0.00  0.00    +0.003 C 
ATOM      6  C   UNL     1      35.570 -18.681 -23.068  0.00  0.00    +0.038 C 
ENDROOT
BRANCH   4   7
ATOM      7  O   UNL     1      36.457 -19.659 -21.081  0.00  0.00    -0.436 OA
BRANCH   7   9
ATOM      8  N   UNL     1      36.371 -21.138 -19.278  0.00  0.00    -0.210 NA
ATOM      9  C   UNL     1      35.700 -20.438 -20.221  0.00  0.00    +0.230 C 
ATOM     10  C   UNL     1      34.323 -20.458 -20.369  0.00  0.00    +0.058 C 
ATOM     11  C   UNL     1      34.240 -21.980 -18.508  0.00  0.00    +0.091 C 
ATOM     12  C   UNL     1      33.585 -21.246 -19.491  0.00  0.00    +0.010 C 
ATOM     13  C   UNL     1      35.621 -21.893 -18.444  0.00  0.00    +0.106 C 
BRANCH  11  17
ATOM     14  F   UNL     1      34.002 -22.851 -16.293  0.00  0.00    -0.166 F 
ATOM     15  F   UNL     1      32.176 -22.450 -17.393  0.00  0.00    -0.166 F 
ATOM     16  F   UNL     1      33.426 -24.142 -17.944  0.00  0.00    -0.166 F 
ATOM     17  C   UNL     1      33.479 -22.834 -17.556  0.00  0.00    +0.420 C 
ENDBRANCH  11  17
ENDBRANCH   7   9
ENDBRANCH   4   7
BRANCH   1  18
ATOM     18  C   UNL     1      34.452 -15.197 -20.821  0.00  0.00    +0.027 C 
BRANCH  18  21
ATOM     19  O   UNL     1      31.688  -9.712 -21.317  0.00  0.00    -0.226 OA
ATOM     20  N   UNL     1      32.534 -11.647 -22.294  0.00  0.00    -0.246 N 
ATOM     21  C   UNL     1      33.518 -14.290 -21.618  0.00  0.00    +0.008 C 
ATOM     22  C   UNL     1      32.586 -13.505 -20.681  0.00  0.00    +0.022 C 
ATOM     23  C   UNL     1      34.320 -13.326 -22.509  0.00  0.00    +0.022 C 
ATOM     24  C   UNL     1      31.709 -12.528 -21.463  0.00  0.00    +0.097 C 
ATOM     25  C   UNL     1      33.394 -12.360 -23.247  0.00  0.00    +0.097 C 
ATOM     26  C   UNL     1      32.435 -10.262 -22.127  0.00  0.00    +0.402 C 
BRANCH  26  27
ATOM     27  O   UNL     1      33.235  -9.497 -22.923  0.00  0.00    -0.466 OA
ATOM     28  H   UNL     1      34.157  -9.661 -22.956  0.00  0.00    +0.297 HD
ENDBRANCH  26  27
ENDBRANCH  18  21
ENDBRANCH   1  18
TORSDOF 6
ENDMDL
MODEL 6
REMARK VINA RESULT:     -10.6      3.488      5.298
REMARK  Name = 25243828
REMARK  6 active torsions:
REMARK  status: ('A' for Active; 'I' for Inactive)
REMARK    1  A    between atoms: C_1  and  C_18
REMARK    2  A    between atoms: C_4  and  O_7
REMARK    3  A    between atoms: O_7  and  C_9
REMARK    4  A    between atoms: C_11  and  C_17
REMARK    5  A    between atoms: C_18  and  C_21
REMARK    6  A    between atoms: C_26  and  O_27
REMARK                            x       y       z     vdW  Elec       q    Type
REMARK                         _______ _______ _______ _____ _____    ______ ____
ROOT
ATOM      1  C   UNL     1      35.065 -21.493 -19.439  0.00  0.00    -0.019 C 
ATOM      2  C   UNL     1      35.824 -20.601 -20.195  0.00  0.00    +0.033 C 
ATOM      3  C   UNL     1      33.673 -21.395 -19.434  0.00  0.00    -0.004 C 
ATOM      4  C   UNL     1      35.192 -19.609 -20.945  0.00  0.00    +0.147 C 
ATOM      5  C   UNL     1      33.041 -20.403 -20.184  0.00  0.00    +0.003 C 
ATOM      6  C   UNL     1      33.801 -19.510 -20.940  0.00  0.00    +0.038 C 
ENDROOT
BRANCH   4   7
ATOM      7  O   UNL     1      35.933 -18.736 -21.681  0.00  0.00    -0.436 OA
BRANCH   7   9
ATOM      8  N   UNL     1      35.158 -17.341 -23.383  0.00  0.00    -0.210 NA
ATOM      9  C   UNL     1      35.337 -17.544 -22.058  0.00  0.00    +0.230 C 
ATOM     10  C   UNL     1      34.961 -16.641 -21.078  0.00  0.00    +0.058 C 
ATOM     11  C   UNL     1      34.161 -15.208 -22.837  0.00  0.00    +0.091 C 
ATOM     12  C   UNL     1      34.361 -15.453 -21.483  0.00  0.00    +0.010 C 
ATOM     13  C   UNL     1      34.573 -16.175 -23.739  0.00  0.00    +0.106 C 
BRANCH  11  17
ATOM     14  F   UNL     1      34.372 -12.874 -23.317  0.00  0.00    -0.166 F 
ATOM     15  F   UNL     1      33.023 -14.018 -24.572  0.00  0.00    -0.166 F 
ATOM     16  F   UNL     1      32.472 -13.565 -22.518  0.00  0.00    -0.166 F 
ATOM     17  C   UNL     1      33.524 -13.946 -23.301  0.00  0.00    +0.420 C 
ENDBRANCH  11  17
ENDBRANCH   7   9
ENDBRANCH   4   7
BRANCH   1  18
ATOM     18  C   UNL     1      35.745 -22.562 -18.628  0.00  0.00    +0.027 C 
BRANCH  18  21
ATOM     19  O   UNL     1      35.954 -24.464 -12.771  0.00  0.00    -0.226 OA
ATOM     20  N   UNL     1      36.426 -22.870 -14.398  0.00  0.00    -0.246 N 
ATOM     21  C   UNL     1      35.822 -22.185 -17.151  0.00  0.00    +0.008 C 
ATOM     22  C   UNL     1      34.889 -23.071 -16.310  0.00  0.00    +0.022 C 
ATOM     23  C   UNL     1      37.267 -22.286 -16.636  0.00  0.00    +0.022 C 
ATOM     24  C   UNL     1      35.026 -22.763 -14.819  0.00  0.00    +0.097 C 
ATOM     25  C   UNL     1      37.340 -21.990 -15.139  0.00  0.00    +0.097 C 
ATOM     26  C   UNL     1      36.762 -23.752 -13.367  0.00  0.00    +0.402 C 
BRANCH  26  27
ATOM     27  O   UNL     1      38.082 -23.813 -13.028  0.00  0.00    -0.466 OA
ATOM     28  H   UNL     1      38.739 -23.649 -13.674  0.00  0.00    +0.297 HD
ENDBRANCH  26  27
ENDBRANCH  18  21
ENDBRANCH   1  18
TORSDOF 6
ENDMDL
MODEL 7
REMARK VINA RESULT:     -10.2      7.153     12.134
REMARK  Name = 25243828
REMARK  6 active torsions:
REMARK  status: ('A' for Active; 'I' for Inactive)
REMARK    1  A    between atoms: C_1  and  C_18
REMARK    2  A    between atoms: C_4  and  O_7
REMARK    3  A    between atoms: O_7  and  C_9
REMARK    4  A    between atoms: C_11  and  C_17
REMARK    5  A    between atoms: C_18  and  C_21
REMARK    6  A    between atoms: C_26  and  O_27
REMARK                            x       y       z     vdW  Elec       q    Type
REMARK                         _______ _______ _______ _____ _____    ______ ____
ROOT
ATOM      1  C   UNL     1      33.568 -14.623 -22.331  0.00  0.00    -0.019 C 
ATOM      2  C   UNL     1      34.477 -15.678 -22.391  0.00  0.00    +0.033 C 
ATOM      3  C   UNL     1      33.030 -14.097 -23.506  0.00  0.00    -0.004 C 
ATOM      4  C   UNL     1      34.851 -16.208 -23.627  0.00  0.00    +0.147 C 
ATOM      5  C   UNL     1      33.403 -14.626 -24.742  0.00  0.00    +0.003 C 
ATOM      6  C   UNL     1      34.313 -15.682 -24.802  0.00  0.00    +0.038 C 
ENDROOT
BRANCH   4   7
ATOM      7  O   UNL     1      35.740 -17.236 -23.687  0.00  0.00    -0.436 OA
BRANCH   7   9
ATOM      8  N   UNL     1      34.580 -18.961 -22.629  0.00  0.00    -0.210 NA
ATOM      9  C   UNL     1      35.689 -18.191 -22.686  0.00  0.00    +0.230 C 
ATOM     10  C   UNL     1      36.759 -18.306 -21.812  0.00  0.00    +0.058 C 
ATOM     11  C   UNL     1      35.559 -20.086 -20.727  0.00  0.00    +0.091 C 
ATOM     12  C   UNL     1      36.685 -19.275 -20.817  0.00  0.00    +0.010 C 
ATOM     13  C   UNL     1      34.543 -19.891 -21.648  0.00  0.00    +0.106 C 
BRANCH  11  17
ATOM     14  F   UNL     1      36.315 -20.952 -18.629  0.00  0.00    -0.166 F 
ATOM     15  F   UNL     1      34.211 -21.201 -19.095  0.00  0.00    -0.166 F 
ATOM     16  F   UNL     1      35.702 -22.387 -20.143  0.00  0.00    -0.166 F 
ATOM     17  C   UNL     1      35.449 -21.130 -19.672  0.00  0.00    +0.420 C 
ENDBRANCH  11  17
ENDBRANCH   7   9
ENDBRANCH   4   7
BRANCH   1  18
ATOM     18  C   UNL     1      33.165 -14.050 -21.000  0.00  0.00    +0.027 C 
BRANCH  18  21
ATOM     19  O   UNL     1      31.836  -8.325 -19.149  0.00  0.00    -0.226 OA
ATOM     20  N   UNL     1      31.829  -9.973 -20.791  0.00  0.00    -0.246 N 
ATOM     21  C   UNL     1      32.285 -12.813 -21.162  0.00  0.00    +0.008 C 
ATOM     22  C   UNL     1      31.915 -12.221 -19.793  0.00  0.00    +0.022 C 
ATOM     23  C   UNL     1      32.984 -11.756 -22.033  0.00  0.00    +0.022 C 
ATOM     24  C   UNL     1      31.111 -10.931 -19.946  0.00  0.00    +0.097 C 
ATOM     25  C   UNL     1      32.145 -10.483 -22.132  0.00  0.00    +0.097 C 
ATOM     26  C   UNL     1      32.133  -8.707 -20.281  0.00  0.00    +0.402 C 
BRANCH  26  27
ATOM     27  O   UNL     1      32.810  -7.865 -21.113  0.00  0.00    -0.466 OA
ATOM     28  H   UNL     1      32.587  -6.956 -21.141  0.00  0.00    +0.297 HD
ENDBRANCH  26  27
ENDBRANCH  18  21
ENDBRANCH   1  18
TORSDOF 6
ENDMDL
MODEL 8
REMARK VINA RESULT:     -10.0      4.157      7.351
REMARK  Name = 25243828
REMARK  6 active torsions:
REMARK  status: ('A' for Active; 'I' for Inactive)
REMARK    1  A    between atoms: C_1  and  C_18
REMARK    2  A    between atoms: C_4  and  O_7
REMARK    3  A    between atoms: O_7  and  C_9
REMARK    4  A    between atoms: C_11  and  C_17
REMARK    5  A    between atoms: C_18  and  C_21
REMARK    6  A    between atoms: C_26  and  O_27
REMARK                            x       y       z     vdW  Elec       q    Type
REMARK                         _______ _______ _______ _____ _____    ______ ____
ROOT
ATOM      1  C   UNL     1      36.433 -23.349 -14.913  0.00  0.00    -0.019 C 
ATOM      2  C   UNL     1      35.219 -23.318 -14.227  0.00  0.00    +0.033 C 
ATOM      3  C   UNL     1      37.297 -24.433 -14.756  0.00  0.00    -0.004 C 
ATOM      4  C   UNL     1      34.870 -24.372 -13.381  0.00  0.00    +0.147 C 
ATOM      5  C   UNL     1      36.948 -25.486 -13.911  0.00  0.00    +0.003 C 
ATOM      6  C   UNL     1      35.734 -25.456 -13.224  0.00  0.00    +0.038 C 
ENDROOT
BRANCH   4   7
ATOM      7  O   UNL     1      33.687 -24.342 -12.709  0.00  0.00    -0.436 OA
BRANCH   7   9
ATOM      8  N   UNL     1      31.819 -25.329 -13.696  0.00  0.00    -0.210 NA
ATOM      9  C   UNL     1      32.527 -24.204 -13.452  0.00  0.00    +0.230 C 
ATOM     10  C   UNL     1      32.159 -22.944 -13.895  0.00  0.00    +0.058 C 
ATOM     11  C   UNL     1      30.233 -23.966 -14.909  0.00  0.00    +0.091 C 
ATOM     12  C   UNL     1      30.988 -22.831 -14.637  0.00  0.00    +0.010 C 
ATOM     13  C   UNL     1      30.687 -25.181 -14.421  0.00  0.00    +0.106 C 
BRANCH  11  17
ATOM     14  F   UNL     1      29.059 -23.036 -16.775  0.00  0.00    -0.166 F 
ATOM     15  F   UNL     1      28.570 -25.076 -16.223  0.00  0.00    -0.166 F 
ATOM     16  F   UNL     1      27.917 -23.426 -14.967  0.00  0.00    -0.166 F 
ATOM     17  C   UNL     1      28.976 -23.879 -15.701  0.00  0.00    +0.420 C 
ENDBRANCH  11  17
ENDBRANCH   7   9
ENDBRANCH   4   7
BRANCH   1  18
ATOM     18  C   UNL     1      36.812 -22.213 -15.823  0.00  0.00    +0.027 C 
BRANCH  18  21
ATOM     19  O   UNL     1      32.556 -20.692 -20.012  0.00  0.00    -0.226 OA
ATOM     20  N   UNL     1      34.679 -21.482 -19.479  0.00  0.00    -0.246 N 
ATOM     21  C   UNL     1      36.259 -22.412 -17.233  0.00  0.00    +0.008 C 
ATOM     22  C   UNL     1      34.723 -22.451 -17.218  0.00  0.00    +0.022 C 
ATOM     23  C   UNL     1      36.759 -21.306 -18.177  0.00  0.00    +0.022 C 
ATOM     24  C   UNL     1      34.157 -22.559 -18.633  0.00  0.00    +0.097 C 
ATOM     25  C   UNL     1      36.145 -21.451 -19.568  0.00  0.00    +0.097 C 
ATOM     26  C   UNL     1      33.781 -20.617 -20.113  0.00  0.00    +0.402 C 
BRANCH  26  27
ATOM     27  O   UNL     1      34.328 -19.630 -20.879  0.00  0.00    -0.466 OA
ATOM     28  H   UNL     1      35.219 -19.698 -21.162  0.00  0.00    +0.297 HD
ENDBRANCH  26  27
ENDBRANCH  18  21
ENDBRANCH   1  18
TORSDOF 6
ENDMDL
MODEL 9
REMARK VINA RESULT:      -9.9     10.632     14.269
REMARK  Name = 25243828
REMARK  6 active torsions:
REMARK  status: ('A' for Active; 'I' for Inactive)
REMARK    1  A    between atoms: C_1  and  C_18
REMARK    2  A    between atoms: C_4  and  O_7
REMARK    3  A    between atoms: O_7  and  C_9
REMARK    4  A    between atoms: C_11  and  C_17
REMARK    5  A    between atoms: C_18  and  C_21
REMARK    6  A    between atoms: C_26  and  O_27
REMARK                            x       y       z     vdW  Elec       q    Type
REMARK                         _______ _______ _______ _____ _____    ______ ____
ROOT
ATOM      1  C   UNL     1      32.019 -12.157 -20.626  0.00  0.00    -0.019 C 
ATOM      2  C   UNL     1      32.279 -11.434 -21.790  0.00  0.00    +0.033 C 
ATOM      3  C   UNL     1      31.681 -11.489 -19.449  0.00  0.00    -0.004 C 
ATOM      4  C   UNL     1      32.202 -10.041 -21.777  0.00  0.00    +0.147 C 
ATOM      5  C   UNL     1      31.604 -10.096 -19.436  0.00  0.00    +0.003 C 
ATOM      6  C   UNL     1      31.864  -9.371 -20.600  0.00  0.00    +0.038 C 
ENDROOT
BRANCH   4   7
ATOM      7  O   UNL     1      32.458  -9.334 -22.911  0.00  0.00    -0.436 OA
BRANCH   7   9
ATOM      8  N   UNL     1      30.813  -7.680 -22.925  0.00  0.00    -0.210 NA
ATOM      9  C   UNL     1      32.129  -7.989 -22.920  0.00  0.00    +0.230 C 
ATOM     10  C   UNL     1      33.146  -7.048 -22.922  0.00  0.00    +0.058 C 
ATOM     11  C   UNL     1      31.445  -5.348 -22.932  0.00  0.00    +0.091 C 
ATOM     12  C   UNL     1      32.789  -5.704 -22.927  0.00  0.00    +0.010 C 
ATOM     13  C   UNL     1      30.504  -6.364 -22.931  0.00  0.00    +0.106 C 
BRANCH  11  17
ATOM     14  F   UNL     1      30.228  -3.571 -21.890  0.00  0.00    -0.166 F 
ATOM     15  F   UNL     1      32.081  -3.042 -22.888  0.00  0.00    -0.166 F 
ATOM     16  F   UNL     1      30.331  -3.576 -24.062  0.00  0.00    -0.166 F 
ATOM     17  C   UNL     1      31.032  -3.918 -22.941  0.00  0.00    +0.420 C 
ENDBRANCH  11  17
ENDBRANCH   7   9
ENDBRANCH   4   7
BRANCH   1  18
ATOM     18  C   UNL     1      32.103 -13.659 -20.638  0.00  0.00    +0.027 C 
BRANCH  18  21
ATOM     19  O   UNL     1      35.192 -18.281 -23.295  0.00  0.00    -0.226 OA
ATOM     20  N   UNL     1      34.843 -16.004 -22.971  0.00  0.00    -0.246 N 
ATOM     21  C   UNL     1      33.403 -14.145 -21.274  0.00  0.00    +0.008 C 
ATOM     22  C   UNL     1      33.736 -15.574 -20.816  0.00  0.00    +0.022 C 
ATOM     23  C   UNL     1      33.320 -14.079 -22.808  0.00  0.00    +0.022 C 
ATOM     24  C   UNL     1      34.987 -16.104 -21.516  0.00  0.00    +0.097 C 
ATOM     25  C   UNL     1      34.586 -14.640 -23.453  0.00  0.00    +0.097 C 
ATOM     26  C   UNL     1      34.966 -17.159 -23.749  0.00  0.00    +0.402 C 
BRANCH  26  27
ATOM     27  O   UNL     1      34.813 -17.003 -25.095  0.00  0.00    -0.466 OA
ATOM     28  H   UNL     1      35.559 -17.054 -25.660  0.00  0.00    +0.297 HD
ENDBRANCH  26  27
ENDBRANCH  18  21
ENDBRANCH   1  18
TORSDOF 6
ENDMDL
