MODEL 1
REMARK VINA RESULT:     -10.8      0.000      0.000
REMARK  Name = 24905142
REMARK  2 active torsions:
REMARK  status: ('A' for Active; 'I' for Inactive)
REMARK    1  A    between atoms: N_1  and  C_20
REMARK    2  A    between atoms: C_7  and  C_12
REMARK                            x       y       z     vdW  Elec       q    Type
REMARK                         _______ _______ _______ _____ _____    ______ ____
ROOT
ATOM      1  N   UNL     1      33.886 -22.697 -17.668  0.00  0.00    -0.200 N 
ATOM      2  N   UNL     1      35.061 -22.978 -17.074  0.00  0.00    -0.181 NA
ATOM      3  N   UNL     1      31.522 -22.613 -17.147  0.00  0.00    -0.232 NA
ATOM      4  N   UNL     1      31.088 -23.222 -14.826  0.00  0.00    -0.234 NA
ATOM      5  C   UNL     1      32.811 -22.825 -16.838  0.00  0.00    +0.137 C 
ATOM      6  C   UNL     1      33.320 -23.218 -15.613  0.00  0.00    +0.150 C 
ATOM      7  C   UNL     1      34.710 -23.295 -15.823  0.00  0.00    +0.091 C 
ATOM      8  C   UNL     1      32.407 -23.418 -14.584  0.00  0.00    +0.112 C 
ATOM      9  C   UNL     1      30.733 -22.838 -16.075  0.00  0.00    +0.252 C 
ATOM     10  N   UNL     1      32.826 -23.817 -13.302  0.00  0.00    -0.346 N 
ATOM     11  H   UNL     1      32.163 -23.953 -12.587  0.00  0.00    +0.143 HD
ATOM     12  H   UNL     1      33.783 -23.960 -13.119  0.00  0.00    +0.143 HD
ENDROOT
BRANCH   7  15
ATOM     13  N   UNL     1      37.576 -22.933 -13.462  0.00  0.00    -0.229 NA
ATOM     14  N   UNL     1      38.558 -24.721 -12.182  0.00  0.00    -0.297 N 
ATOM     15  C   UNL     1      35.719 -23.660 -14.871  0.00  0.00    +0.035 C 
ATOM     16  C   UNL     1      35.841 -24.980 -14.441  0.00  0.00    +0.006 C 
ATOM     17  C   UNL     1      36.590 -22.708 -14.361  0.00  0.00    +0.102 C 
ATOM     18  C   UNL     1      36.848 -25.274 -13.508  0.00  0.00    +0.033 C 
ATOM     19  C   UNL     1      37.652 -24.222 -13.080  0.00  0.00    +0.132 C 
ATOM     20  C   UNL     1      37.301 -26.439 -12.833  0.00  0.00    +0.019 C 
ATOM     21  C   UNL     1      38.353 -26.068 -12.023  0.00  0.00    +0.063 C 
ATOM     22  H   UNL     1      39.250 -24.194 -11.721  0.00  0.00    +0.154 HD
ENDBRANCH   7  15
BRANCH   1  23
ATOM     23  C   UNL     1      33.865 -22.287 -19.123  0.00  0.00    +0.098 C 
ATOM     24  C   UNL     1      35.259 -22.060 -19.745  0.00  0.00    +0.022 C 
ATOM     25  C   UNL     1      33.087 -20.980 -19.357  0.00  0.00    +0.022 C 
ATOM     26  C   UNL     1      35.290 -20.596 -20.168  0.00  0.00    +0.002 C 
ATOM     27  C   UNL     1      33.838 -20.279 -20.479  0.00  0.00    +0.002 C 
ENDBRANCH   1  23
TORSDOF 2
ENDMDL
MODEL 2
REMARK VINA RESULT:     -10.3      5.855      9.299
REMARK  Name = 24905142
REMARK  2 active torsions:
REMARK  status: ('A' for Active; 'I' for Inactive)
REMARK    1  A    between atoms: N_1  and  C_20
REMARK    2  A    between atoms: C_7  and  C_12
REMARK                            x       y       z     vdW  Elec       q    Type
REMARK                         _______ _______ _______ _____ _____    ______ ____
ROOT
ATOM      1  N   UNL     1      34.368 -15.213 -21.922  0.00  0.00    -0.200 N 
ATOM      2  N   UNL     1      34.604 -16.159 -20.993  0.00  0.00    -0.181 NA
ATOM      3  N   UNL     1      34.252 -14.971 -24.328  0.00  0.00    -0.232 NA
ATOM      4  N   UNL     1      34.694 -17.080 -25.470  0.00  0.00    -0.234 NA
ATOM      5  C   UNL     1      34.439 -15.677 -23.202  0.00  0.00    +0.137 C 
ATOM      6  C   UNL     1      34.742 -17.023 -23.104  0.00  0.00    +0.150 C 
ATOM      7  C   UNL     1      34.831 -17.259 -21.720  0.00  0.00    +0.091 C 
ATOM      8  C   UNL     1      34.869 -17.731 -24.295  0.00  0.00    +0.112 C 
ATOM      9  C   UNL     1      34.401 -15.758 -25.414  0.00  0.00    +0.252 C 
ATOM     10  N   UNL     1      35.176 -19.103 -24.300  0.00  0.00    -0.346 N 
ATOM     11  H   UNL     1      35.262 -19.586 -25.154  0.00  0.00    +0.143 HD
ATOM     12  H   UNL     1      35.304 -19.583 -23.450  0.00  0.00    +0.143 HD
ENDROOT
BRANCH   7  15
ATOM     13  N   UNL     1      36.834 -20.002 -20.176  0.00  0.00    -0.229 NA
ATOM     14  N   UNL     1      35.925 -22.010 -19.202  0.00  0.00    -0.297 N 
ATOM     15  C   UNL     1      35.125 -18.499 -21.062  0.00  0.00    +0.035 C 
ATOM     16  C   UNL     1      34.097 -19.361 -20.685  0.00  0.00    +0.006 C 
ATOM     17  C   UNL     1      36.436 -18.863 -20.789  0.00  0.00    +0.102 C 
ATOM     18  C   UNL     1      34.450 -20.560 -20.044  0.00  0.00    +0.033 C 
ATOM     19  C   UNL     1      35.804 -20.800 -19.833  0.00  0.00    +0.132 C 
ATOM     20  C   UNL     1      33.747 -21.675 -19.515  0.00  0.00    +0.019 C 
ATOM     21  C   UNL     1      34.681 -22.550 -19.002  0.00  0.00    +0.063 C 
ATOM     22  H   UNL     1      36.775 -22.426 -18.932  0.00  0.00    +0.154 HD
ENDBRANCH   7  15
BRANCH   1  23
ATOM     23  C   UNL     1      34.064 -13.798 -21.484  0.00  0.00    +0.098 C 
ATOM     24  C   UNL     1      33.256 -13.693 -20.174  0.00  0.00    +0.022 C 
ATOM     25  C   UNL     1      33.254 -13.017 -22.535  0.00  0.00    +0.022 C 
ATOM     26  C   UNL     1      31.950 -13.000 -20.546  0.00  0.00    +0.002 C 
ATOM     27  C   UNL     1      32.331 -12.121 -21.724  0.00  0.00    +0.002 C 
ENDBRANCH   1  23
TORSDOF 2
ENDMDL
MODEL 3
REMARK VINA RESULT:     -10.3      1.514      4.099
REMARK  Name = 24905142
REMARK  2 active torsions:
REMARK  status: ('A' for Active; 'I' for Inactive)
REMARK    1  A    between atoms: N_1  and  C_20
REMARK    2  A    between atoms: C_7  and  C_12
REMARK                            x       y       z     vdW  Elec       q    Type
REMARK                         _______ _______ _______ _____ _____    ______ ____
ROOT
ATOM      1  N   UNL     1      32.313 -23.495 -16.320  0.00  0.00    -0.200 N 
ATOM      2  N   UNL     1      33.018 -23.986 -15.284  0.00  0.00    -0.181 NA
ATOM      3  N   UNL     1      32.662 -22.286 -18.389  0.00  0.00    -0.232 NA
ATOM      4  N   UNL     1      35.019 -21.778 -18.750  0.00  0.00    -0.234 NA
ATOM      5  C   UNL     1      33.083 -22.869 -17.255  0.00  0.00    +0.137 C 
ATOM      6  C   UNL     1      34.386 -22.958 -16.798  0.00  0.00    +0.150 C 
ATOM      7  C   UNL     1      34.280 -23.656 -15.581  0.00  0.00    +0.091 C 
ATOM      8  C   UNL     1      35.374 -22.384 -17.591  0.00  0.00    +0.112 C 
ATOM      9  C   UNL     1      33.704 -21.767 -19.072  0.00  0.00    +0.252 C 
ATOM     10  N   UNL     1      36.728 -22.423 -17.213  0.00  0.00    -0.346 N 
ATOM     11  H   UNL     1      37.413 -22.010 -17.789  0.00  0.00    +0.143 HD
ATOM     12  H   UNL     1      36.993 -22.862 -16.373  0.00  0.00    +0.143 HD
ENDROOT
BRANCH   7  15
ATOM     13  N   UNL     1      36.998 -25.692 -14.038  0.00  0.00    -0.229 NA
ATOM     14  N   UNL     1      38.337 -25.024 -12.150  0.00  0.00    -0.297 N 
ATOM     15  C   UNL     1      35.341 -24.021 -14.688  0.00  0.00    +0.035 C 
ATOM     16  C   UNL     1      35.742 -23.154 -13.673  0.00  0.00    +0.006 C 
ATOM     17  C   UNL     1      35.988 -25.241 -14.817  0.00  0.00    +0.102 C 
ATOM     18  C   UNL     1      36.787 -23.568 -12.832  0.00  0.00    +0.033 C 
ATOM     19  C   UNL     1      37.347 -24.818 -13.074  0.00  0.00    +0.132 C 
ATOM     20  C   UNL     1      37.477 -23.017 -11.720  0.00  0.00    +0.019 C 
ATOM     21  C   UNL     1      38.426 -23.934 -11.322  0.00  0.00    +0.063 C 
ATOM     22  H   UNL     1      38.899 -25.829 -12.090  0.00  0.00    +0.154 HD
ENDBRANCH   7  15
BRANCH   1  23
ATOM     23  C   UNL     1      30.812 -23.672 -16.350  0.00  0.00    +0.098 C 
ATOM     24  C   UNL     1      30.010 -22.389 -16.044  0.00  0.00    +0.022 C 
ATOM     25  C   UNL     1      30.320 -24.722 -15.338  0.00  0.00    +0.022 C 
ATOM     26  C   UNL     1      29.210 -22.693 -14.782  0.00  0.00    +0.002 C 
ATOM     27  C   UNL     1      28.980 -24.192 -14.852  0.00  0.00    +0.002 C 
ENDBRANCH   1  23
TORSDOF 2
ENDMDL
MODEL 4
REMARK VINA RESULT:     -10.0      1.947      6.696
REMARK  Name = 24905142
REMARK  2 active torsions:
REMARK  status: ('A' for Active; 'I' for Inactive)
REMARK    1  A    between atoms: N_1  and  C_20
REMARK    2  A    between atoms: C_7  and  C_12
REMARK                            x       y       z     vdW  Elec       q    Type
REMARK                         _______ _______ _______ _____ _____    ______ ____
ROOT
ATOM      1  N   UNL     1      36.050 -23.161 -14.687  0.00  0.00    -0.200 N 
ATOM      2  N   UNL     1      34.844 -23.542 -14.227  0.00  0.00    -0.181 NA
ATOM      3  N   UNL     1      37.073 -22.302 -16.707  0.00  0.00    -0.232 NA
ATOM      4  N   UNL     1      35.441 -22.024 -18.497  0.00  0.00    -0.234 NA
ATOM      5  C   UNL     1      36.030 -22.738 -15.983  0.00  0.00    +0.137 C 
ATOM      6  C   UNL     1      34.716 -22.851 -16.401  0.00  0.00    +0.150 C 
ATOM      7  C   UNL     1      34.036 -23.351 -15.275  0.00  0.00    +0.091 C 
ATOM      8  C   UNL     1      34.434 -22.473 -17.710  0.00  0.00    +0.112 C 
ATOM      9  C   UNL     1      36.681 -21.967 -17.954  0.00  0.00    +0.252 C 
ATOM     10  N   UNL     1      33.129 -22.551 -18.227  0.00  0.00    -0.346 N 
ATOM     11  H   UNL     1      32.951 -22.278 -19.158  0.00  0.00    +0.143 HD
ATOM     12  H   UNL     1      32.392 -22.876 -17.661  0.00  0.00    +0.143 HD
ENDROOT
BRANCH   7  15
ATOM     13  N   UNL     1      30.919 -25.108 -14.218  0.00  0.00    -0.229 NA
ATOM     14  N   UNL     1      28.683 -24.484 -14.862  0.00  0.00    -0.297 N 
ATOM     15  C   UNL     1      32.638 -23.653 -15.162  0.00  0.00    +0.035 C 
ATOM     16  C   UNL     1      31.690 -22.873 -15.820  0.00  0.00    +0.006 C 
ATOM     17  C   UNL     1      32.205 -24.727 -14.398  0.00  0.00    +0.102 C 
ATOM     18  C   UNL     1      30.338 -23.220 -15.670  0.00  0.00    +0.033 C 
ATOM     19  C   UNL     1      30.044 -24.322 -14.873  0.00  0.00    +0.132 C 
ATOM     20  C   UNL     1      29.098 -22.715 -16.146  0.00  0.00    +0.019 C 
ATOM     21  C   UNL     1      28.098 -23.512 -15.632  0.00  0.00    +0.063 C 
ATOM     22  H   UNL     1      28.200 -25.190 -14.375  0.00  0.00    +0.154 HD
ENDBRANCH   7  15
BRANCH   1  23
ATOM     23  C   UNL     1      37.253 -23.233 -13.775  0.00  0.00    +0.098 C 
ATOM     24  C   UNL     1      38.127 -24.491 -13.964  0.00  0.00    +0.022 C 
ATOM     25  C   UNL     1      36.866 -23.216 -12.285  0.00  0.00    +0.022 C 
ATOM     26  C   UNL     1      38.082 -25.230 -12.632  0.00  0.00    +0.002 C 
ATOM     27  C   UNL     1      37.883 -24.125 -11.611  0.00  0.00    +0.002 C 
ENDBRANCH   1  23
TORSDOF 2
ENDMDL
MODEL 5
REMARK VINA RESULT:      -9.9     10.403     13.756
REMARK  Name = 24905142
REMARK  2 active torsions:
REMARK  status: ('A' for Active; 'I' for Inactive)
REMARK    1  A    between atoms: N_1  and  C_20
REMARK    2  A    between atoms: C_7  and  C_12
REMARK                            x       y       z     vdW  Elec       q    Type
REMARK                         _______ _______ _______ _____ _____    ______ ____
ROOT
ATOM      1  N   UNL     1      32.791  -9.931 -22.691  0.00  0.00    -0.200 N 
ATOM      2  N   UNL     1      33.307 -10.923 -23.441  0.00  0.00    -0.181 NA
ATOM      3  N   UNL     1      31.679  -9.604 -20.565  0.00  0.00    -0.232 NA
ATOM      4  N   UNL     1      31.378 -11.709 -19.372  0.00  0.00    -0.234 NA
ATOM      5  C   UNL     1      32.260 -10.359 -21.511  0.00  0.00    +0.137 C 
ATOM      6  C   UNL     1      32.441 -11.731 -21.486  0.00  0.00    +0.150 C 
ATOM      7  C   UNL     1      33.090 -12.017 -22.702  0.00  0.00    +0.091 C 
ATOM      8  C   UNL     1      31.976 -12.410 -20.366  0.00  0.00    +0.112 C 
ATOM      9  C   UNL     1      31.268 -10.369 -19.531  0.00  0.00    +0.252 C 
ATOM     10  N   UNL     1      32.113 -13.804 -20.247  0.00  0.00    -0.346 N 
ATOM     11  H   UNL     1      31.776 -14.267 -19.445  0.00  0.00    +0.143 HD
ATOM     12  H   UNL     1      32.547 -14.320 -20.965  0.00  0.00    +0.143 HD
ENDROOT
BRANCH   7  15
ATOM     13  N   UNL     1      33.592 -14.868 -25.055  0.00  0.00    -0.229 NA
ATOM     14  N   UNL     1      34.722 -16.928 -24.524  0.00  0.00    -0.297 N 
ATOM     15  C   UNL     1      33.514 -13.299 -23.186  0.00  0.00    +0.035 C 
ATOM     16  C   UNL     1      34.204 -14.177 -22.352  0.00  0.00    +0.006 C 
ATOM     17  C   UNL     1      33.244 -13.689 -24.490  0.00  0.00    +0.102 C 
ATOM     18  C   UNL     1      34.592 -15.417 -22.884  0.00  0.00    +0.033 C 
ATOM     19  C   UNL     1      34.256 -15.679 -24.209  0.00  0.00    +0.132 C 
ATOM     20  C   UNL     1      35.285 -16.560 -22.402  0.00  0.00    +0.019 C 
ATOM     21  C   UNL     1      35.350 -17.472 -23.433  0.00  0.00    +0.063 C 
ATOM     22  H   UNL     1      34.623 -17.367 -25.399  0.00  0.00    +0.154 HD
ENDBRANCH   7  15
BRANCH   1  23
ATOM     23  C   UNL     1      32.845  -8.508 -23.199  0.00  0.00    +0.098 C 
ATOM     24  C   UNL     1      33.709  -7.556 -22.346  0.00  0.00    +0.022 C 
ATOM     25  C   UNL     1      31.453  -7.854 -23.272  0.00  0.00    +0.022 C 
ATOM     26  C   UNL     1      32.757  -6.482 -21.831  0.00  0.00    +0.002 C 
ATOM     27  C   UNL     1      31.692  -6.396 -22.909  0.00  0.00    +0.002 C 
ENDBRANCH   1  23
TORSDOF 2
ENDMDL
MODEL 6
REMARK VINA RESULT:      -9.7      2.311      6.319
REMARK  Name = 24905142
REMARK  2 active torsions:
REMARK  status: ('A' for Active; 'I' for Inactive)
REMARK    1  A    between atoms: N_1  and  C_20
REMARK    2  A    between atoms: C_7  and  C_12
REMARK                            x       y       z     vdW  Elec       q    Type
REMARK                         _______ _______ _______ _____ _____    ______ ____
ROOT
ATOM      1  N   UNL     1      31.115 -23.540 -15.759  0.00  0.00    -0.200 N 
ATOM      2  N   UNL     1      31.501 -22.878 -16.866  0.00  0.00    -0.181 NA
ATOM      3  N   UNL     1      32.080 -24.664 -13.844  0.00  0.00    -0.232 NA
ATOM      4  N   UNL     1      34.518 -24.600 -13.895  0.00  0.00    -0.234 NA
ATOM      5  C   UNL     1      32.156 -23.979 -14.996  0.00  0.00    +0.137 C 
ATOM      6  C   UNL     1      33.306 -23.574 -15.650  0.00  0.00    +0.150 C 
ATOM      7  C   UNL     1      32.836 -22.902 -16.794  0.00  0.00    +0.091 C 
ATOM      8  C   UNL     1      34.520 -23.908 -15.059  0.00  0.00    +0.112 C 
ATOM      9  C   UNL     1      33.315 -24.930 -13.367  0.00  0.00    +0.252 C 
ATOM     10  N   UNL     1      35.744 -23.541 -15.647  0.00  0.00    -0.346 N 
ATOM     11  H   UNL     1      36.593 -23.787 -15.212  0.00  0.00    +0.143 HD
ATOM     12  H   UNL     1      35.753 -23.037 -16.493  0.00  0.00    +0.143 HD
ENDROOT
BRANCH   7  15
ATOM     13  N   UNL     1      35.822 -21.957 -18.821  0.00  0.00    -0.229 NA
ATOM     14  N   UNL     1      35.796 -20.508 -20.745  0.00  0.00    -0.297 N 
ATOM     15  C   UNL     1      33.617 -22.280 -17.824  0.00  0.00    +0.035 C 
ATOM     16  C   UNL     1      33.011 -21.454 -18.769  0.00  0.00    +0.006 C 
ATOM     17  C   UNL     1      34.987 -22.488 -17.898  0.00  0.00    +0.102 C 
ATOM     18  C   UNL     1      33.829 -20.874 -19.752  0.00  0.00    +0.033 C 
ATOM     19  C   UNL     1      35.189 -21.168 -19.710  0.00  0.00    +0.132 C 
ATOM     20  C   UNL     1      33.630 -20.006 -20.859  0.00  0.00    +0.019 C 
ATOM     21  C   UNL     1      34.858 -19.800 -21.451  0.00  0.00    +0.063 C 
ATOM     22  H   UNL     1      36.757 -20.539 -20.952  0.00  0.00    +0.154 HD
ENDBRANCH   7  15
BRANCH   1  23
ATOM     23  C   UNL     1      29.641 -23.728 -15.478  0.00  0.00    +0.098 C 
ATOM     24  C   UNL     1      28.792 -24.074 -16.720  0.00  0.00    +0.022 C 
ATOM     25  C   UNL     1      28.992 -22.473 -14.868  0.00  0.00    +0.022 C 
ATOM     26  C   UNL     1      27.793 -22.933 -16.870  0.00  0.00    +0.002 C 
ATOM     27  C   UNL     1      27.586 -22.444 -15.447  0.00  0.00    +0.002 C 
ENDBRANCH   1  23
TORSDOF 2
ENDMDL
MODEL 7
REMARK VINA RESULT:      -9.5      8.138     12.821
REMARK  Name = 24905142
REMARK  2 active torsions:
REMARK  status: ('A' for Active; 'I' for Inactive)
REMARK    1  A    between atoms: N_1  and  C_20
REMARK    2  A    between atoms: C_7  and  C_12
REMARK                            x       y       z     vdW  Elec       q    Type
REMARK                         _______ _______ _______ _____ _____    ______ ____
ROOT
ATOM      1  N   UNL     1      34.713 -16.394 -21.850  0.00  0.00    -0.200 N 
ATOM      2  N   UNL     1      34.201 -15.286 -21.282  0.00  0.00    -0.181 NA
ATOM      3  N   UNL     1      35.050 -17.362 -24.044  0.00  0.00    -0.232 NA
ATOM      4  N   UNL     1      34.212 -15.906 -25.811  0.00  0.00    -0.234 NA
ATOM      5  C   UNL     1      34.626 -16.398 -23.211  0.00  0.00    +0.137 C 
ATOM      6  C   UNL     1      34.013 -15.208 -23.559  0.00  0.00    +0.150 C 
ATOM      7  C   UNL     1      33.776 -14.568 -22.328  0.00  0.00    +0.091 C 
ATOM      8  C   UNL     1      33.809 -14.974 -24.914  0.00  0.00    +0.112 C 
ATOM      9  C   UNL     1      34.799 -17.026 -25.328  0.00  0.00    +0.252 C 
ATOM     10  N   UNL     1      33.195 -13.793 -25.367  0.00  0.00    -0.346 N 
ATOM     11  H   UNL     1      33.059 -13.646 -26.332  0.00  0.00    +0.143 HD
ATOM     12  H   UNL     1      32.900 -13.111 -24.721  0.00  0.00    +0.143 HD
ENDROOT
BRANCH   7  15
ATOM     13  N   UNL     1      31.495 -11.995 -20.880  0.00  0.00    -0.229 NA
ATOM     14  N   UNL     1      31.429  -9.674 -21.523  0.00  0.00    -0.297 N 
ATOM     15  C   UNL     1      33.158 -13.292 -22.112  0.00  0.00    +0.035 C 
ATOM     16  C   UNL     1      33.560 -12.177 -22.845  0.00  0.00    +0.006 C 
ATOM     17  C   UNL     1      32.149 -13.144 -21.170  0.00  0.00    +0.102 C 
ATOM     18  C   UNL     1      32.916 -10.956 -22.587  0.00  0.00    +0.033 C 
ATOM     19  C   UNL     1      31.920 -10.950 -21.615  0.00  0.00    +0.132 C 
ATOM     20  C   UNL     1      33.013  -9.630 -23.085  0.00  0.00    +0.019 C 
ATOM     21  C   UNL     1      32.087  -8.863 -22.411  0.00  0.00    +0.063 C 
ATOM     22  H   UNL     1      30.714  -9.384 -20.911  0.00  0.00    +0.154 HD
ENDBRANCH   7  15
BRANCH   1  23
ATOM     23  C   UNL     1      35.306 -17.475 -20.975  0.00  0.00    +0.098 C 
ATOM     24  C   UNL     1      36.746 -17.884 -21.350  0.00  0.00    +0.022 C 
ATOM     25  C   UNL     1      34.483 -18.775 -21.004  0.00  0.00    +0.022 C 
ATOM     26  C   UNL     1      36.671 -19.358 -21.731  0.00  0.00    +0.002 C 
ATOM     27  C   UNL     1      35.515 -19.888 -20.902  0.00  0.00    +0.002 C 
ENDBRANCH   1  23
TORSDOF 2
ENDMDL
MODEL 8
REMARK VINA RESULT:      -9.4     11.700     15.007
REMARK  Name = 24905142
REMARK  2 active torsions:
REMARK  status: ('A' for Active; 'I' for Inactive)
REMARK    1  A    between atoms: N_1  and  C_20
REMARK    2  A    between atoms: C_7  and  C_12
REMARK                            x       y       z     vdW  Elec       q    Type
REMARK                         _______ _______ _______ _____ _____    ______ ____
ROOT
ATOM      1  N   UNL     1      33.667  -8.772 -22.829  0.00  0.00    -0.200 N 
ATOM      2  N   UNL     1      34.092  -9.762 -23.636  0.00  0.00    -0.181 NA
ATOM      3  N   UNL     1      32.227  -8.438 -20.911  0.00  0.00    -0.232 NA
ATOM      4  N   UNL     1      31.201 -10.526 -20.179  0.00  0.00    -0.234 NA
ATOM      5  C   UNL     1      32.810  -9.193 -21.856  0.00  0.00    +0.137 C 
ATOM      6  C   UNL     1      32.663 -10.557 -22.040  0.00  0.00    +0.150 C 
ATOM      7  C   UNL     1      33.476 -10.846 -23.151  0.00  0.00    +0.091 C 
ATOM      8  C   UNL     1      31.823 -11.227 -21.157  0.00  0.00    +0.112 C 
ATOM      9  C   UNL     1      31.438  -9.194 -20.117  0.00  0.00    +0.252 C 
ATOM     10  N   UNL     1      31.610 -12.613 -21.262  0.00  0.00    -0.346 N 
ATOM     11  H   UNL     1      31.010 -13.069 -20.626  0.00  0.00    +0.143 HD
ATOM     12  H   UNL     1      32.059 -13.129 -21.970  0.00  0.00    +0.143 HD
ENDROOT
BRANCH   7  15
ATOM     13  N   UNL     1      33.543 -13.477 -25.796  0.00  0.00    -0.229 NA
ATOM     14  N   UNL     1      34.303 -15.742 -25.487  0.00  0.00    -0.297 N 
ATOM     15  C   UNL     1      33.690 -12.123 -23.769  0.00  0.00    +0.035 C 
ATOM     16  C   UNL     1      34.207 -13.187 -23.033  0.00  0.00    +0.006 C 
ATOM     17  C   UNL     1      33.385 -12.322 -25.108  0.00  0.00    +0.102 C 
ATOM     18  C   UNL     1      34.393 -14.412 -23.694  0.00  0.00    +0.033 C 
ATOM     19  C   UNL     1      34.045 -14.472 -25.040  0.00  0.00    +0.132 C 
ATOM     20  C   UNL     1      34.876 -15.699 -23.336  0.00  0.00    +0.019 C 
ATOM     21  C   UNL     1      34.809 -16.495 -24.459  0.00  0.00    +0.063 C 
ATOM     22  H   UNL     1      34.150 -16.063 -26.404  0.00  0.00    +0.154 HD
ENDBRANCH   7  15
BRANCH   1  23
ATOM     23  C   UNL     1      34.153  -7.360 -23.061  0.00  0.00    +0.098 C 
ATOM     24  C   UNL     1      33.077  -6.393 -23.601  0.00  0.00    +0.022 C 
ATOM     25  C   UNL     1      35.315  -7.293 -24.068  0.00  0.00    +0.022 C 
ATOM     26  C   UNL     1      33.583  -5.931 -24.963  0.00  0.00    +0.002 C 
ATOM     27  C   UNL     1      35.093  -5.995 -24.829  0.00  0.00    +0.002 C 
ENDBRANCH   1  23
TORSDOF 2
ENDMDL
MODEL 9
REMARK VINA RESULT:      -9.2      2.059      4.863
REMARK  Name = 24905142
REMARK  2 active torsions:
REMARK  status: ('A' for Active; 'I' for Inactive)
REMARK    1  A    between atoms: N_1  and  C_20
REMARK    2  A    between atoms: C_7  and  C_12
REMARK                            x       y       z     vdW  Elec       q    Type
REMARK                         _______ _______ _______ _____ _____    ______ ____
ROOT
ATOM      1  N   UNL     1      34.978 -22.335 -18.042  0.00  0.00    -0.200 N 
ATOM      2  N   UNL     1      33.813 -22.834 -17.589  0.00  0.00    -0.181 NA
ATOM      3  N   UNL     1      37.210 -21.834 -17.248  0.00  0.00    -0.232 NA
ATOM      4  N   UNL     1      37.475 -22.395 -14.889  0.00  0.00    -0.234 NA
ATOM      5  C   UNL     1      35.954 -22.281 -17.091  0.00  0.00    +0.137 C 
ATOM      6  C   UNL     1      35.386 -22.782 -15.933  0.00  0.00    +0.150 C 
ATOM      7  C   UNL     1      34.068 -23.104 -16.304  0.00  0.00    +0.091 C 
ATOM      8  C   UNL     1      36.195 -22.831 -14.803  0.00  0.00    +0.112 C 
ATOM      9  C   UNL     1      37.897 -21.930 -16.090  0.00  0.00    +0.252 C 
ATOM     10  N   UNL     1      35.710 -23.323 -13.578  0.00  0.00    -0.346 N 
ATOM     11  H   UNL     1      36.300 -23.349 -12.789  0.00  0.00    +0.143 HD
ATOM     12  H   UNL     1      34.782 -23.643 -13.508  0.00  0.00    +0.143 HD
ENDROOT
BRANCH   7  15
ATOM     13  N   UNL     1      32.462 -24.758 -13.371  0.00  0.00    -0.229 NA
ATOM     14  N   UNL     1      30.110 -25.232 -13.156  0.00  0.00    -0.297 N 
ATOM     15  C   UNL     1      33.039 -23.662 -15.475  0.00  0.00    +0.035 C 
ATOM     16  C   UNL     1      31.712 -23.668 -15.902  0.00  0.00    +0.006 C 
ATOM     17  C   UNL     1      33.344 -24.206 -14.236  0.00  0.00    +0.102 C 
ATOM     18  C   UNL     1      30.751 -24.228 -15.045  0.00  0.00    +0.033 C 
ATOM     19  C   UNL     1      31.196 -24.739 -13.830  0.00  0.00    +0.132 C 
ATOM     20  C   UNL     1      29.345 -24.430 -15.086  0.00  0.00    +0.019 C 
ATOM     21  C   UNL     1      28.979 -25.048 -13.910  0.00  0.00    +0.063 C 
ATOM     22  H   UNL     1      30.137 -25.652 -12.267  0.00  0.00    +0.154 HD
ENDBRANCH   7  15
BRANCH   1  23
ATOM     23  C   UNL     1      35.093 -21.903 -19.486  0.00  0.00    +0.098 C 
ATOM     24  C   UNL     1      36.449 -21.266 -19.858  0.00  0.00    +0.022 C 
ATOM     25  C   UNL     1      34.025 -20.866 -19.879  0.00  0.00    +0.022 C 
ATOM     26  C   UNL     1      36.130 -19.841 -20.298  0.00  0.00    +0.002 C 
ATOM     27  C   UNL     1      34.726 -19.944 -20.865  0.00  0.00    +0.002 C 
ENDBRANCH   1  23
TORSDOF 2
ENDMDL
