MODEL 1
REMARK VINA RESULT:     -11.9      0.000      0.000
REMARK  Name = 42611257
REMARK  7 active torsions:
REMARK  status: ('A' for Active; 'I' for Inactive)
REMARK    1  A    between atoms: C_2  and  C_6
REMARK    2  A    between atoms: C_2  and  C_22
REMARK    3  A    between atoms: C_10  and  C_14
REMARK    4  A    between atoms: C_23  and  N_28
REMARK    5  A    between atoms: N_28  and  S_30
REMARK    6  A    between atoms: S_30  and  C_33
REMARK    7  A    between atoms: C_33  and  C_34
REMARK                            x       y       z     vdW  Elec       q    Type
REMARK                         _______ _______ _______ _____ _____    ______ ____
ROOT
ATOM      1  O   UNL     1      36.652 -19.602 -20.546  0.00  0.00    -0.286 OA
ATOM      2  C   UNL     1      35.483 -19.466 -20.965  0.00  0.00    +0.201 C 
ENDROOT
BRANCH   2   6
ATOM      3  N   UNL     1      32.352 -21.030 -20.091  0.00  0.00    -0.297 N 
ATOM      4  N   UNL     1      32.719 -22.484 -18.207  0.00  0.00    -0.229 NA
ATOM      5  C   UNL     1      34.438 -21.120 -19.301  0.00  0.00    +0.036 C 
ATOM      6  C   UNL     1      34.402 -20.223 -20.401  0.00  0.00    +0.056 C 
ATOM      7  C   UNL     1      33.144 -21.605 -19.134  0.00  0.00    +0.132 C 
ATOM      8  C   UNL     1      35.423 -21.585 -18.414  0.00  0.00    +0.004 C 
ATOM      9  C   UNL     1      33.105 -20.187 -20.867  0.00  0.00    +0.066 C 
ATOM     10  C   UNL     1      35.036 -22.496 -17.433  0.00  0.00    +0.019 C 
ATOM     11  C   UNL     1      33.707 -22.898 -17.381  0.00  0.00    +0.100 C 
ATOM     12  H   UNL     1      31.388 -21.196 -20.205  0.00  0.00    +0.154 HD
BRANCH  10  14
ATOM     13 CL   UNL     1      39.019 -24.633 -13.554  0.00  0.00    -0.082 Cl
ATOM     14  C   UNL     1      36.001 -23.014 -16.491  0.00  0.00    +0.002 C 
ATOM     15  C   UNL     1      35.627 -24.002 -15.579  0.00  0.00    +0.001 C 
ATOM     16  C   UNL     1      37.308 -22.526 -16.493  0.00  0.00    +0.001 C 
ATOM     17  C   UNL     1      36.560 -24.503 -14.672  0.00  0.00    +0.011 C 
ATOM     18  C   UNL     1      38.241 -23.026 -15.585  0.00  0.00    +0.011 C 
ATOM     19  C   UNL     1      37.868 -24.015 -14.674  0.00  0.00    +0.058 C 
ENDBRANCH  10  14
ENDBRANCH   2   6
BRANCH   2  22
ATOM     20  F   UNL     1      35.307 -16.683 -20.528  0.00  0.00    -0.203 F 
ATOM     21  F   UNL     1      35.274 -20.225 -23.687  0.00  0.00    -0.204 F 
ATOM     22  C   UNL     1      35.295 -18.474 -22.081  0.00  0.00    +0.095 C 
ATOM     23  C   UNL     1      35.041 -16.191 -22.830  0.00  0.00    +0.092 C 
ATOM     24  C   UNL     1      35.216 -17.111 -21.796  0.00  0.00    +0.160 C 
ATOM     25  C   UNL     1      35.199 -18.917 -23.401  0.00  0.00    +0.145 C 
ATOM     26  C   UNL     1      34.946 -16.635 -24.150  0.00  0.00    +0.020 C 
ATOM     27  C   UNL     1      35.026 -17.998 -24.434  0.00  0.00    +0.031 C 
BRANCH  23  28
ATOM     28  N   UNL     1      34.960 -14.795 -22.541  0.00  0.00    -0.217 N 
ATOM     29  H   UNL     1      35.570 -14.377 -21.891  0.00  0.00    +0.173 HD
BRANCH  28  30
ATOM     30  S   UNL     1      33.767 -13.864 -23.362  0.00  0.00    +0.054 S 
ATOM     31  O   UNL     1      34.336 -12.566 -23.678  0.00  0.00    -0.154 OA
ATOM     32  O   UNL     1      33.110 -14.649 -24.387  0.00  0.00    -0.154 OA
BRANCH  30  33
ATOM     33  C   UNL     1      32.604 -13.609 -22.041  0.00  0.00    +0.172 C 
BRANCH  33  34
ATOM     34  C   UNL     1      33.216 -13.947 -20.691  0.00  0.00    +0.027 C 
ATOM     35  C   UNL     1      32.411 -15.012 -19.967  0.00  0.00    +0.002 C 
ENDBRANCH  33  34
ENDBRANCH  30  33
ENDBRANCH  28  30
ENDBRANCH  23  28
ENDBRANCH   2  22
TORSDOF 7
ENDMDL
MODEL 2
REMARK VINA RESULT:     -11.6      4.288      7.337
REMARK  Name = 42611257
REMARK  7 active torsions:
REMARK  status: ('A' for Active; 'I' for Inactive)
REMARK    1  A    between atoms: C_2  and  C_6
REMARK    2  A    between atoms: C_2  and  C_22
REMARK    3  A    between atoms: C_10  and  C_14
REMARK    4  A    between atoms: C_23  and  N_28
REMARK    5  A    between atoms: N_28  and  S_30
REMARK    6  A    between atoms: S_30  and  C_33
REMARK    7  A    between atoms: C_33  and  C_34
REMARK                            x       y       z     vdW  Elec       q    Type
REMARK                         _______ _______ _______ _____ _____    ______ ____
ROOT
ATOM      1  O   UNL     1      35.048 -13.119 -21.489  0.00  0.00    -0.286 OA
ATOM      2  C   UNL     1      34.107 -13.152 -22.312  0.00  0.00    +0.201 C 
ENDROOT
BRANCH   2   6
ATOM      3  N   UNL     1      33.877 -14.923 -25.446  0.00  0.00    -0.297 N 
ATOM      4  N   UNL     1      34.469 -17.227 -25.071  0.00  0.00    -0.229 NA
ATOM      5  C   UNL     1      34.421 -15.479 -23.353  0.00  0.00    +0.036 C 
ATOM      6  C   UNL     1      34.103 -14.096 -23.393  0.00  0.00    +0.056 C 
ATOM      7  C   UNL     1      34.270 -15.965 -24.649  0.00  0.00    +0.132 C 
ATOM      8  C   UNL     1      34.822 -16.391 -22.363  0.00  0.00    +0.004 C 
ATOM      9  C   UNL     1      33.772 -13.782 -24.694  0.00  0.00    +0.066 C 
ATOM     10  C   UNL     1      35.041 -17.713 -22.747  0.00  0.00    +0.019 C 
ATOM     11  C   UNL     1      34.854 -18.062 -24.078  0.00  0.00    +0.100 C 
ATOM     12  H   UNL     1      33.698 -14.984 -26.413  0.00  0.00    +0.154 HD
BRANCH  10  14
ATOM     13 CL   UNL     1      36.751 -21.778 -18.744  0.00  0.00    -0.082 Cl
ATOM     14  C   UNL     1      35.457 -18.700 -21.777  0.00  0.00    +0.002 C 
ATOM     15  C   UNL     1      36.780 -18.730 -21.335  0.00  0.00    +0.001 C 
ATOM     16  C   UNL     1      34.535 -19.622 -21.282  0.00  0.00    +0.001 C 
ATOM     17  C   UNL     1      37.180 -19.682 -20.396  0.00  0.00    +0.011 C 
ATOM     18  C   UNL     1      34.935 -20.573 -20.345  0.00  0.00    +0.011 C 
ATOM     19  C   UNL     1      36.257 -20.604 -19.901  0.00  0.00    +0.058 C 
ENDBRANCH  10  14
ENDBRANCH   2   6
BRANCH   2  22
ATOM     20  F   UNL     1      34.120 -10.579 -23.470  0.00  0.00    -0.203 F 
ATOM     21  F   UNL     1      31.839 -13.684 -20.700  0.00  0.00    -0.204 F 
ATOM     22  C   UNL     1      33.005 -12.152 -22.091  0.00  0.00    +0.095 C 
ATOM     23  C   UNL     1      32.052  -9.967 -22.489  0.00  0.00    +0.092 C 
ATOM     24  C   UNL     1      33.073 -10.896 -22.694  0.00  0.00    +0.160 C 
ATOM     25  C   UNL     1      31.915 -12.480 -21.284  0.00  0.00    +0.145 C 
ATOM     26  C   UNL     1      30.962 -10.296 -21.682  0.00  0.00    +0.020 C 
ATOM     27  C   UNL     1      30.894 -11.552 -21.080  0.00  0.00    +0.031 C 
BRANCH  23  28
ATOM     28  N   UNL     1      32.119  -8.681 -23.105  0.00  0.00    -0.217 N 
ATOM     29  H   UNL     1      32.110  -8.588 -24.085  0.00  0.00    +0.173 HD
BRANCH  28  30
ATOM     30  S   UNL     1      32.216  -7.296 -22.085  0.00  0.00    +0.054 S 
ATOM     31  O   UNL     1      30.896  -6.699 -21.996  0.00  0.00    -0.154 OA
ATOM     32  O   UNL     1      32.975  -7.587 -20.886  0.00  0.00    -0.154 OA
BRANCH  30  33
ATOM     33  C   UNL     1      33.199  -6.223 -23.107  0.00  0.00    +0.172 C 
BRANCH  33  34
ATOM     34  C   UNL     1      34.146  -7.015 -23.993  0.00  0.00    +0.027 C 
ATOM     35  C   UNL     1      35.477  -7.263 -23.303  0.00  0.00    +0.002 C 
ENDBRANCH  33  34
ENDBRANCH  30  33
ENDBRANCH  28  30
ENDBRANCH  23  28
ENDBRANCH   2  22
TORSDOF 7
ENDMDL
MODEL 3
REMARK VINA RESULT:     -11.4      5.783     11.248
REMARK  Name = 42611257
REMARK  7 active torsions:
REMARK  status: ('A' for Active; 'I' for Inactive)
REMARK    1  A    between atoms: C_2  and  C_6
REMARK    2  A    between atoms: C_2  and  C_22
REMARK    3  A    between atoms: C_10  and  C_14
REMARK    4  A    between atoms: C_23  and  N_28
REMARK    5  A    between atoms: N_28  and  S_30
REMARK    6  A    between atoms: S_30  and  C_33
REMARK    7  A    between atoms: C_33  and  C_34
REMARK                            x       y       z     vdW  Elec       q    Type
REMARK                         _______ _______ _______ _____ _____    ______ ____
ROOT
ATOM      1  O   UNL     1      34.120 -12.243 -24.035  0.00  0.00    -0.286 OA
ATOM      2  C   UNL     1      33.714 -13.192 -23.330  0.00  0.00    +0.201 C 
ENDROOT
BRANCH   2   6
ATOM      3  N   UNL     1      31.897 -13.347 -20.217  0.00  0.00    -0.297 N 
ATOM      4  N   UNL     1      31.140 -11.129 -19.660  0.00  0.00    -0.229 NA
ATOM      5  C   UNL     1      32.437 -11.724 -21.653  0.00  0.00    +0.036 C 
ATOM      6  C   UNL     1      32.959 -12.954 -22.133  0.00  0.00    +0.056 C 
ATOM      7  C   UNL     1      31.782 -12.003 -20.458  0.00  0.00    +0.132 C 
ATOM      8  C   UNL     1      32.441 -10.390 -22.093  0.00  0.00    +0.004 C 
ATOM      9  C   UNL     1      32.611 -13.935 -21.229  0.00  0.00    +0.066 C 
ATOM     10  C   UNL     1      31.790  -9.444 -21.303  0.00  0.00    +0.019 C 
ATOM     11  C   UNL     1      31.175  -9.861 -20.130  0.00  0.00    +0.100 C 
ATOM     12  H   UNL     1      31.525 -13.818 -19.437  0.00  0.00    +0.154 HD
BRANCH  10  14
ATOM     13 CL   UNL     1      31.665  -3.718 -22.939  0.00  0.00    -0.082 Cl
ATOM     14  C   UNL     1      31.758  -8.054 -21.699  0.00  0.00    +0.002 C 
ATOM     15  C   UNL     1      31.988  -7.054 -20.754  0.00  0.00    +0.001 C 
ATOM     16  C   UNL     1      31.500  -7.714 -23.027  0.00  0.00    +0.001 C 
ATOM     17  C   UNL     1      31.959  -5.713 -21.138  0.00  0.00    +0.011 C 
ATOM     18  C   UNL     1      31.470  -6.374 -23.410  0.00  0.00    +0.011 C 
ATOM     19  C   UNL     1      31.700  -5.372 -22.466  0.00  0.00    +0.058 C 
ENDBRANCH  10  14
ENDBRANCH   2   6
BRANCH   2  22
ATOM     20  F   UNL     1      35.452 -14.913 -21.922  0.00  0.00    -0.203 F 
ATOM     21  F   UNL     1      32.699 -14.290 -25.736  0.00  0.00    -0.204 F 
ATOM     22  C   UNL     1      34.069 -14.571 -23.816  0.00  0.00    +0.095 C 
ATOM     23  C   UNL     1      35.265 -16.649 -23.522  0.00  0.00    +0.092 C 
ATOM     24  C   UNL     1      34.935 -15.371 -23.071  0.00  0.00    +0.160 C 
ATOM     25  C   UNL     1      33.532 -15.050 -25.012  0.00  0.00    +0.145 C 
ATOM     26  C   UNL     1      34.728 -17.128 -24.717  0.00  0.00    +0.020 C 
ATOM     27  C   UNL     1      33.862 -16.328 -25.462  0.00  0.00    +0.031 C 
BRANCH  23  28
ATOM     28  N   UNL     1      36.152 -17.471 -22.761  0.00  0.00    -0.217 N 
ATOM     29  H   UNL     1      37.040 -17.713 -23.109  0.00  0.00    +0.173 HD
BRANCH  28  30
ATOM     30  S   UNL     1      35.624 -18.024 -21.218  0.00  0.00    +0.054 S 
ATOM     31  O   UNL     1      36.786 -18.465 -20.467  0.00  0.00    -0.154 OA
ATOM     32  O   UNL     1      34.676 -17.099 -20.632  0.00  0.00    -0.154 OA
BRANCH  30  33
ATOM     33  C   UNL     1      34.734 -19.487 -21.697  0.00  0.00    +0.172 C 
BRANCH  33  34
ATOM     34  C   UNL     1      34.528 -20.422 -20.517  0.00  0.00    +0.027 C 
ATOM     35  C   UNL     1      33.054 -20.597 -20.196  0.00  0.00    +0.002 C 
ENDBRANCH  33  34
ENDBRANCH  30  33
ENDBRANCH  28  30
ENDBRANCH  23  28
ENDBRANCH   2  22
TORSDOF 7
ENDMDL
MODEL 4
REMARK VINA RESULT:     -11.1      4.770      9.826
REMARK  Name = 42611257
REMARK  7 active torsions:
REMARK  status: ('A' for Active; 'I' for Inactive)
REMARK    1  A    between atoms: C_2  and  C_6
REMARK    2  A    between atoms: C_2  and  C_22
REMARK    3  A    between atoms: C_10  and  C_14
REMARK    4  A    between atoms: C_23  and  N_28
REMARK    5  A    between atoms: N_28  and  S_30
REMARK    6  A    between atoms: S_30  and  C_33
REMARK    7  A    between atoms: C_33  and  C_34
REMARK                            x       y       z     vdW  Elec       q    Type
REMARK                         _______ _______ _______ _____ _____    ______ ____
ROOT
ATOM      1  O   UNL     1      35.177 -17.096 -20.387  0.00  0.00    -0.286 OA
ATOM      2  C   UNL     1      35.167 -18.052 -21.194  0.00  0.00    +0.201 C 
ENDROOT
BRANCH   2   6
ATOM      3  N   UNL     1      34.918 -18.232 -24.788  0.00  0.00    -0.297 N 
ATOM      4  N   UNL     1      34.278 -16.065 -25.623  0.00  0.00    -0.229 NA
ATOM      5  C   UNL     1      34.621 -16.629 -23.261  0.00  0.00    +0.036 C 
ATOM      6  C   UNL     1      34.992 -17.830 -22.601  0.00  0.00    +0.056 C 
ATOM      7  C   UNL     1      34.584 -16.914 -24.623  0.00  0.00    +0.132 C 
ATOM      8  C   UNL     1      34.308 -15.318 -22.866  0.00  0.00    +0.004 C 
ATOM      9  C   UNL     1      35.169 -18.799 -23.565  0.00  0.00    +0.066 C 
ATOM     10  C   UNL     1      33.984 -14.399 -23.862  0.00  0.00    +0.019 C 
ATOM     11  C   UNL     1      33.986 -14.819 -25.186  0.00  0.00    +0.100 C 
ATOM     12  H   UNL     1      34.970 -18.701 -25.652  0.00  0.00    +0.154 HD
BRANCH  10  14
ATOM     13 CL   UNL     1      32.620  -8.774 -22.455  0.00  0.00    -0.082 Cl
ATOM     14  C   UNL     1      33.652 -13.035 -23.521  0.00  0.00    +0.002 C 
ATOM     15  C   UNL     1      32.785 -12.771 -22.460  0.00  0.00    +0.001 C 
ATOM     16  C   UNL     1      34.199 -11.981 -24.253  0.00  0.00    +0.001 C 
ATOM     17  C   UNL     1      32.467 -11.454 -22.130  0.00  0.00    +0.011 C 
ATOM     18  C   UNL     1      33.880 -10.664 -23.924  0.00  0.00    +0.011 C 
ATOM     19  C   UNL     1      33.014 -10.400 -22.862  0.00  0.00    +0.058 C 
ENDBRANCH  10  14
ENDBRANCH   2   6
BRANCH   2  22
ATOM     20  F   UNL     1      33.010 -19.591 -20.222  0.00  0.00    -0.203 F 
ATOM     21  F   UNL     1      37.692 -19.309 -20.940  0.00  0.00    -0.204 F 
ATOM     22  C   UNL     1      35.346 -19.420 -20.594  0.00  0.00    +0.095 C 
ATOM     23  C   UNL     1      34.401 -21.397 -19.575  0.00  0.00    +0.092 C 
ATOM     24  C   UNL     1      34.236 -20.128 -20.132  0.00  0.00    +0.160 C 
ATOM     25  C   UNL     1      36.620 -19.980 -20.500  0.00  0.00    +0.145 C 
ATOM     26  C   UNL     1      35.676 -21.957 -19.482  0.00  0.00    +0.020 C 
ATOM     27  C   UNL     1      36.784 -21.249 -19.944  0.00  0.00    +0.031 C 
BRANCH  23  28
ATOM     28  N   UNL     1      33.267 -22.125 -19.102  0.00  0.00    -0.217 N 
ATOM     29  H   UNL     1      32.403 -22.075 -19.571  0.00  0.00    +0.173 HD
BRANCH  28  30
ATOM     30  S   UNL     1      33.455 -23.092 -17.689  0.00  0.00    +0.054 S 
ATOM     31  O   UNL     1      33.398 -24.489 -18.079  0.00  0.00    -0.154 OA
ATOM     32  O   UNL     1      34.540 -22.600 -16.865  0.00  0.00    -0.154 OA
BRANCH  30  33
ATOM     33  C   UNL     1      31.927 -22.727 -16.855  0.00  0.00    +0.172 C 
BRANCH  33  34
ATOM     34  C   UNL     1      31.764 -23.574 -15.604  0.00  0.00    +0.027 C 
ATOM     35  C   UNL     1      31.735 -22.715 -14.351  0.00  0.00    +0.002 C 
ENDBRANCH  33  34
ENDBRANCH  30  33
ENDBRANCH  28  30
ENDBRANCH  23  28
ENDBRANCH   2  22
TORSDOF 7
ENDMDL
MODEL 5
REMARK VINA RESULT:     -10.8      6.567     12.415
REMARK  Name = 42611257
REMARK  7 active torsions:
REMARK  status: ('A' for Active; 'I' for Inactive)
REMARK    1  A    between atoms: C_2  and  C_6
REMARK    2  A    between atoms: C_2  and  C_22
REMARK    3  A    between atoms: C_10  and  C_14
REMARK    4  A    between atoms: C_23  and  N_28
REMARK    5  A    between atoms: N_28  and  S_30
REMARK    6  A    between atoms: S_30  and  C_33
REMARK    7  A    between atoms: C_33  and  C_34
REMARK                            x       y       z     vdW  Elec       q    Type
REMARK                         _______ _______ _______ _____ _____    ______ ____
ROOT
ATOM      1  O   UNL     1      30.488 -12.196 -21.758  0.00  0.00    -0.286 OA
ATOM      2  C   UNL     1      31.647 -11.955 -21.354  0.00  0.00    +0.201 C 
ENDROOT
BRANCH   2   6
ATOM      3  N   UNL     1      32.098  -9.685 -18.587  0.00  0.00    -0.297 N 
ATOM      4  N   UNL     1      32.841  -7.562 -19.449  0.00  0.00    -0.229 NA
ATOM      5  C   UNL     1      32.348  -9.547 -20.802  0.00  0.00    +0.036 C 
ATOM      6  C   UNL     1      31.908 -10.855 -20.470  0.00  0.00    +0.056 C 
ATOM      7  C   UNL     1      32.456  -8.843 -19.606  0.00  0.00    +0.132 C 
ATOM      8  C   UNL     1      32.670  -8.863 -21.986  0.00  0.00    +0.004 C 
ATOM      9  C   UNL     1      31.763 -10.911 -19.101  0.00  0.00    +0.066 C 
ATOM     10  C   UNL     1      33.075  -7.534 -21.880  0.00  0.00    +0.019 C 
ATOM     11  C   UNL     1      33.140  -6.954 -20.619  0.00  0.00    +0.100 C 
ATOM     12  H   UNL     1      32.085  -9.447 -17.632  0.00  0.00    +0.154 HD
BRANCH  10  14
ATOM     13 CL   UNL     1      34.511  -4.406 -26.741  0.00  0.00    -0.082 Cl
ATOM     14  C   UNL     1      33.422  -6.776 -23.060  0.00  0.00    +0.002 C 
ATOM     15  C   UNL     1      32.469  -5.963 -23.674  0.00  0.00    +0.001 C 
ATOM     16  C   UNL     1      34.712  -6.857 -23.585  0.00  0.00    +0.001 C 
ATOM     17  C   UNL     1      32.806  -5.230 -24.812  0.00  0.00    +0.011 C 
ATOM     18  C   UNL     1      35.048  -6.124 -24.723  0.00  0.00    +0.011 C 
ATOM     19  C   UNL     1      34.096  -5.311 -25.337  0.00  0.00    +0.058 C 
ENDBRANCH  10  14
ENDBRANCH   2   6
BRANCH   2  22
ATOM     20  F   UNL     1      32.239 -14.424 -20.122  0.00  0.00    -0.203 F 
ATOM     21  F   UNL     1      33.257 -11.374 -23.612  0.00  0.00    -0.204 F 
ATOM     22  C   UNL     1      32.723 -12.880 -21.854  0.00  0.00    +0.095 C 
ATOM     23  C   UNL     1      33.963 -14.944 -21.660  0.00  0.00    +0.092 C 
ATOM     24  C   UNL     1      32.965 -14.086 -21.198  0.00  0.00    +0.160 C 
ATOM     25  C   UNL     1      33.480 -12.531 -22.973  0.00  0.00    +0.145 C 
ATOM     26  C   UNL     1      34.720 -14.595 -22.780  0.00  0.00    +0.020 C 
ATOM     27  C   UNL     1      34.478 -13.389 -23.436  0.00  0.00    +0.031 C 
BRANCH  23  28
ATOM     28  N   UNL     1      34.213 -16.180 -20.990  0.00  0.00    -0.217 N 
ATOM     29  H   UNL     1      33.884 -16.335 -20.075  0.00  0.00    +0.173 HD
BRANCH  28  30
ATOM     30  S   UNL     1      35.105 -17.392 -21.827  0.00  0.00    +0.054 S 
ATOM     31  O   UNL     1      34.630 -17.447 -23.198  0.00  0.00    -0.154 OA
ATOM     32  O   UNL     1      36.521 -17.283 -21.543  0.00  0.00    -0.154 OA
BRANCH  30  33
ATOM     33  C   UNL     1      34.495 -18.850 -21.012  0.00  0.00    +0.172 C 
BRANCH  33  34
ATOM     34  C   UNL     1      35.560 -19.933 -20.943  0.00  0.00    +0.027 C 
ATOM     35  C   UNL     1      35.219 -20.983 -19.900  0.00  0.00    +0.002 C 
ENDBRANCH  33  34
ENDBRANCH  30  33
ENDBRANCH  28  30
ENDBRANCH  23  28
ENDBRANCH   2  22
TORSDOF 7
ENDMDL
MODEL 6
REMARK VINA RESULT:     -10.6      4.541      9.739
REMARK  Name = 42611257
REMARK  7 active torsions:
REMARK  status: ('A' for Active; 'I' for Inactive)
REMARK    1  A    between atoms: C_2  and  C_6
REMARK    2  A    between atoms: C_2  and  C_22
REMARK    3  A    between atoms: C_10  and  C_14
REMARK    4  A    between atoms: C_23  and  N_28
REMARK    5  A    between atoms: N_28  and  S_30
REMARK    6  A    between atoms: S_30  and  C_33
REMARK    7  A    between atoms: C_33  and  C_34
REMARK                            x       y       z     vdW  Elec       q    Type
REMARK                         _______ _______ _______ _____ _____    ______ ____
ROOT
ATOM      1  O   UNL     1      35.951 -17.726 -20.398  0.00  0.00    -0.286 OA
ATOM      2  C   UNL     1      35.454 -18.651 -21.076  0.00  0.00    +0.201 C 
ENDROOT
BRANCH   2   6
ATOM      3  N   UNL     1      35.011 -18.974 -24.641  0.00  0.00    -0.297 N 
ATOM      4  N   UNL     1      34.296 -16.849 -25.521  0.00  0.00    -0.229 NA
ATOM      5  C   UNL     1      34.776 -17.317 -23.163  0.00  0.00    +0.036 C 
ATOM      6  C   UNL     1      35.199 -18.487 -22.478  0.00  0.00    +0.056 C 
ATOM      7  C   UNL     1      34.669 -17.655 -24.509  0.00  0.00    +0.132 C 
ATOM      8  C   UNL     1      34.467 -15.995 -22.800  0.00  0.00    +0.004 C 
ATOM      9  C   UNL     1      35.336 -19.490 -23.413  0.00  0.00    +0.066 C 
ATOM     10  C   UNL     1      34.077 -15.119 -23.811  0.00  0.00    +0.019 C 
ATOM     11  C   UNL     1      34.011 -15.590 -25.116  0.00  0.00    +0.100 C 
ATOM     12  H   UNL     1      35.022 -19.475 -25.489  0.00  0.00    +0.154 HD
BRANCH  10  14
ATOM     13 CL   UNL     1      32.701  -9.463 -22.548  0.00  0.00    -0.082 Cl
ATOM     14  C   UNL     1      33.745 -13.746 -23.504  0.00  0.00    +0.002 C 
ATOM     15  C   UNL     1      34.260 -12.712 -24.285  0.00  0.00    +0.001 C 
ATOM     16  C   UNL     1      32.906 -13.457 -22.427  0.00  0.00    +0.001 C 
ATOM     17  C   UNL     1      33.937 -11.387 -23.989  0.00  0.00    +0.011 C 
ATOM     18  C   UNL     1      32.584 -12.133 -22.131  0.00  0.00    +0.011 C 
ATOM     19  C   UNL     1      33.099 -11.097 -22.912  0.00  0.00    +0.058 C 
ENDBRANCH  10  14
ENDBRANCH   2   6
BRANCH   2  22
ATOM     20  F   UNL     1      37.415 -20.109 -19.664  0.00  0.00    -0.203 F 
ATOM     21  F   UNL     1      32.863 -19.791 -20.964  0.00  0.00    -0.204 F 
ATOM     22  C   UNL     1      35.148 -19.922 -20.330  0.00  0.00    +0.095 C 
ATOM     23  C   UNL     1      35.882 -21.773 -18.961  0.00  0.00    +0.092 C 
ATOM     24  C   UNL     1      36.165 -20.594 -19.652  0.00  0.00    +0.160 C 
ATOM     25  C   UNL     1      33.848 -20.428 -20.316  0.00  0.00    +0.145 C 
ATOM     26  C   UNL     1      34.581 -22.278 -18.947  0.00  0.00    +0.020 C 
ATOM     27  C   UNL     1      33.565 -21.606 -19.625  0.00  0.00    +0.031 C 
BRANCH  23  28
ATOM     28  N   UNL     1      36.921 -22.463 -18.266  0.00  0.00    -0.217 N 
ATOM     29  H   UNL     1      37.416 -23.197 -18.696  0.00  0.00    +0.173 HD
BRANCH  28  30
ATOM     30  S   UNL     1      37.285 -21.975 -16.655  0.00  0.00    +0.054 S 
ATOM     31  O   UNL     1      38.342 -22.829 -16.145  0.00  0.00    -0.154 OA
ATOM     32  O   UNL     1      37.394 -20.533 -16.562  0.00  0.00    -0.154 OA
BRANCH  30  33
ATOM     33  C   UNL     1      35.785 -22.463 -15.833  0.00  0.00    +0.172 C 
BRANCH  33  34
ATOM     34  C   UNL     1      36.076 -23.324 -14.615  0.00  0.00    +0.027 C 
ATOM     35  C   UNL     1      35.541 -24.735 -14.790  0.00  0.00    +0.002 C 
ENDBRANCH  33  34
ENDBRANCH  30  33
ENDBRANCH  28  30
ENDBRANCH  23  28
ENDBRANCH   2  22
TORSDOF 7
ENDMDL
MODEL 7
REMARK VINA RESULT:     -10.5      2.791      4.388
REMARK  Name = 42611257
REMARK  7 active torsions:
REMARK  status: ('A' for Active; 'I' for Inactive)
REMARK    1  A    between atoms: C_2  and  C_6
REMARK    2  A    between atoms: C_2  and  C_22
REMARK    3  A    between atoms: C_10  and  C_14
REMARK    4  A    between atoms: C_23  and  N_28
REMARK    5  A    between atoms: N_28  and  S_30
REMARK    6  A    between atoms: S_30  and  C_33
REMARK    7  A    between atoms: C_33  and  C_34
REMARK                            x       y       z     vdW  Elec       q    Type
REMARK                         _______ _______ _______ _____ _____    ______ ____
ROOT
ATOM      1  O   UNL     1      33.675 -23.810 -19.541  0.00  0.00    -0.286 OA
ATOM      2  C   UNL     1      33.938 -22.897 -18.728  0.00  0.00    +0.201 C 
ENDROOT
BRANCH   2   6
ATOM      3  N   UNL     1      32.107 -22.749 -15.623  0.00  0.00    -0.297 N 
ATOM      4  N   UNL     1      33.523 -23.574 -13.858  0.00  0.00    -0.229 NA
ATOM      5  C   UNL     1      34.157 -23.406 -16.220  0.00  0.00    +0.036 C 
ATOM      6  C   UNL     1      33.464 -22.953 -17.375  0.00  0.00    +0.056 C 
ATOM      7  C   UNL     1      33.283 -23.265 -15.146  0.00  0.00    +0.132 C 
ATOM      8  C   UNL     1      35.434 -23.924 -15.951  0.00  0.00    +0.004 C 
ATOM      9  C   UNL     1      32.206 -22.555 -16.977  0.00  0.00    +0.066 C 
ATOM     10  C   UNL     1      35.735 -24.260 -14.633  0.00  0.00    +0.019 C 
ATOM     11  C   UNL     1      34.766 -24.068 -13.656  0.00  0.00    +0.100 C 
ATOM     12  H   UNL     1      31.313 -22.549 -15.077  0.00  0.00    +0.154 HD
BRANCH  10  14
ATOM     13 CL   UNL     1      41.079 -26.483 -13.228  0.00  0.00    -0.082 Cl
ATOM     14  C   UNL     1      37.031 -24.798 -14.290  0.00  0.00    +0.002 C 
ATOM     15  C   UNL     1      37.155 -25.709 -13.240  0.00  0.00    +0.001 C 
ATOM     16  C   UNL     1      38.160 -24.408 -15.011  0.00  0.00    +0.001 C 
ATOM     17  C   UNL     1      38.406 -26.230 -12.912  0.00  0.00    +0.011 C 
ATOM     18  C   UNL     1      39.412 -24.929 -14.682  0.00  0.00    +0.011 C 
ATOM     19  C   UNL     1      39.535 -25.840 -13.633  0.00  0.00    +0.058 C 
ENDBRANCH  10  14
ENDBRANCH   2   6
BRANCH   2  22
ATOM     20  F   UNL     1      32.911 -20.950 -20.495  0.00  0.00    -0.203 F 
ATOM     21  F   UNL     1      36.662 -22.522 -18.049  0.00  0.00    -0.204 F 
ATOM     22  C   UNL     1      34.767 -21.760 -19.261  0.00  0.00    +0.095 C 
ATOM     23  C   UNL     1      34.965 -19.778 -20.628  0.00  0.00    +0.092 C 
ATOM     24  C   UNL     1      34.197 -20.832 -20.132  0.00  0.00    +0.160 C 
ATOM     25  C   UNL     1      36.104 -21.635 -18.886  0.00  0.00    +0.145 C 
ATOM     26  C   UNL     1      36.303 -19.652 -20.251  0.00  0.00    +0.020 C 
ATOM     27  C   UNL     1      36.872 -20.581 -19.380  0.00  0.00    +0.031 C 
BRANCH  23  28
ATOM     28  N   UNL     1      34.385 -18.825 -21.519  0.00  0.00    -0.217 N 
ATOM     29  H   UNL     1      33.544 -18.366 -21.291  0.00  0.00    +0.173 HD
BRANCH  28  30
ATOM     30  S   UNL     1      35.196 -18.501 -23.003  0.00  0.00    +0.054 S 
ATOM     31  O   UNL     1      36.610 -18.778 -22.822  0.00  0.00    -0.154 OA
ATOM     32  O   UNL     1      34.473 -19.066 -24.124  0.00  0.00    -0.154 OA
BRANCH  30  33
ATOM     33  C   UNL     1      35.023 -16.733 -23.075  0.00  0.00    +0.172 C 
BRANCH  33  34
ATOM     34  C   UNL     1      34.763 -16.260 -24.496  0.00  0.00    +0.027 C 
ATOM     35  C   UNL     1      33.840 -15.053 -24.521  0.00  0.00    +0.002 C 
ENDBRANCH  33  34
ENDBRANCH  30  33
ENDBRANCH  28  30
ENDBRANCH  23  28
ENDBRANCH   2  22
TORSDOF 7
ENDMDL
MODEL 8
REMARK VINA RESULT:     -10.4      8.861     15.246
REMARK  Name = 42611257
REMARK  7 active torsions:
REMARK  status: ('A' for Active; 'I' for Inactive)
REMARK    1  A    between atoms: C_2  and  C_6
REMARK    2  A    between atoms: C_2  and  C_22
REMARK    3  A    between atoms: C_10  and  C_14
REMARK    4  A    between atoms: C_23  and  N_28
REMARK    5  A    between atoms: N_28  and  S_30
REMARK    6  A    between atoms: S_30  and  C_33
REMARK    7  A    between atoms: C_33  and  C_34
REMARK                            x       y       z     vdW  Elec       q    Type
REMARK                         _______ _______ _______ _____ _____    ______ ____
ROOT
ATOM      1  O   UNL     1      34.063  -7.480 -21.515  0.00  0.00    -0.286 OA
ATOM      2  C   UNL     1      32.819  -7.566 -21.429  0.00  0.00    +0.201 C 
ENDROOT
BRANCH   2   6
ATOM      3  N   UNL     1      30.328  -4.962 -21.599  0.00  0.00    -0.297 N 
ATOM      4  N   UNL     1      30.748  -3.625 -23.558  0.00  0.00    -0.229 NA
ATOM      5  C   UNL     1      32.076  -5.562 -22.853  0.00  0.00    +0.036 C 
ATOM      6  C   UNL     1      31.976  -6.450 -21.749  0.00  0.00    +0.056 C 
ATOM      7  C   UNL     1      31.034  -4.647 -22.730  0.00  0.00    +0.132 C 
ATOM      8  C   UNL     1      32.933  -5.422 -23.957  0.00  0.00    +0.004 C 
ATOM      9  C   UNL     1      30.892  -6.056 -20.995  0.00  0.00    +0.066 C 
ATOM     10  C   UNL     1      32.680  -4.379 -24.847  0.00  0.00    +0.019 C 
ATOM     11  C   UNL     1      31.604  -3.537 -24.602  0.00  0.00    +0.100 C 
ATOM     12  H   UNL     1      29.538  -4.476 -21.270  0.00  0.00    +0.154 HD
BRANCH  10  14
ATOM     13 CL   UNL     1      36.159  -3.559 -29.612  0.00  0.00    -0.082 Cl
ATOM     14  C   UNL     1      33.526  -4.180 -26.002  0.00  0.00    +0.002 C 
ATOM     15  C   UNL     1      34.707  -4.910 -26.138  0.00  0.00    +0.001 C 
ATOM     16  C   UNL     1      33.159  -3.257 -26.982  0.00  0.00    +0.001 C 
ATOM     17  C   UNL     1      35.521  -4.718 -27.254  0.00  0.00    +0.011 C 
ATOM     18  C   UNL     1      33.974  -3.065 -28.098  0.00  0.00    +0.011 C 
ATOM     19  C   UNL     1      35.155  -3.795 -28.234  0.00  0.00    +0.058 C 
ENDBRANCH  10  14
ENDBRANCH   2   6
BRANCH   2  22
ATOM     20  F   UNL     1      32.610  -9.801 -23.140  0.00  0.00    -0.203 F 
ATOM     21  F   UNL     1      31.927  -8.047 -18.784  0.00  0.00    -0.204 F 
ATOM     22  C   UNL     1      32.281  -8.896 -20.973  0.00  0.00    +0.095 C 
ATOM     23  C   UNL     1      31.705 -11.193 -21.450  0.00  0.00    +0.092 C 
ATOM     24  C   UNL     1      32.204  -9.961 -21.871  0.00  0.00    +0.160 C 
ATOM     25  C   UNL     1      31.858  -9.063 -19.655  0.00  0.00    +0.145 C 
ATOM     26  C   UNL     1      31.283 -11.361 -20.130  0.00  0.00    +0.020 C 
ATOM     27  C   UNL     1      31.360 -10.296 -19.233  0.00  0.00    +0.031 C 
BRANCH  23  28
ATOM     28  N   UNL     1      31.626 -12.285 -22.366  0.00  0.00    -0.217 N 
ATOM     29  H   UNL     1      30.794 -12.473 -22.859  0.00  0.00    +0.173 HD
BRANCH  28  30
ATOM     30  S   UNL     1      33.025 -13.265 -22.586  0.00  0.00    +0.054 S 
ATOM     31  O   UNL     1      32.860 -14.033 -23.807  0.00  0.00    -0.154 OA
ATOM     32  O   UNL     1      34.234 -12.502 -22.353  0.00  0.00    -0.154 OA
BRANCH  30  33
ATOM     33  C   UNL     1      32.828 -14.402 -21.233  0.00  0.00    +0.172 C 
BRANCH  33  34
ATOM     34  C   UNL     1      34.166 -14.753 -20.604  0.00  0.00    +0.027 C 
ATOM     35  C   UNL     1      34.619 -16.147 -21.001  0.00  0.00    +0.002 C 
ENDBRANCH  33  34
ENDBRANCH  30  33
ENDBRANCH  28  30
ENDBRANCH  23  28
ENDBRANCH   2  22
TORSDOF 7
ENDMDL
MODEL 9
REMARK VINA RESULT:     -10.2      6.566      9.436
REMARK  Name = 42611257
REMARK  7 active torsions:
REMARK  status: ('A' for Active; 'I' for Inactive)
REMARK    1  A    between atoms: C_2  and  C_6
REMARK    2  A    between atoms: C_2  and  C_22
REMARK    3  A    between atoms: C_10  and  C_14
REMARK    4  A    between atoms: C_23  and  N_28
REMARK    5  A    between atoms: N_28  and  S_30
REMARK    6  A    between atoms: S_30  and  C_33
REMARK    7  A    between atoms: C_33  and  C_34
REMARK                            x       y       z     vdW  Elec       q    Type
REMARK                         _______ _______ _______ _____ _____    ______ ____
ROOT
ATOM      1  O   UNL     1      32.235 -22.689 -11.872  0.00  0.00    -0.286 OA
ATOM      2  C   UNL     1      32.565 -23.419 -12.832  0.00  0.00    +0.201 C 
ENDROOT
BRANCH   2   6
ATOM      3  N   UNL     1      35.983 -24.568 -12.729  0.00  0.00    -0.297 N 
ATOM      4  N   UNL     1      37.061 -23.955 -14.794  0.00  0.00    -0.229 NA
ATOM      5  C   UNL     1      34.728 -23.472 -14.216  0.00  0.00    +0.036 C 
ATOM      6  C   UNL     1      33.941 -23.753 -13.068  0.00  0.00    +0.056 C 
ATOM      7  C   UNL     1      35.995 -23.993 -13.972  0.00  0.00    +0.132 C 
ATOM      8  C   UNL     1      34.518 -22.831 -15.448  0.00  0.00    +0.004 C 
ATOM      9  C   UNL     1      34.739 -24.427 -12.170  0.00  0.00    +0.066 C 
ATOM     10  C   UNL     1      35.590 -22.763 -16.336  0.00  0.00    +0.019 C 
ATOM     11  C   UNL     1      36.803 -23.327 -15.964  0.00  0.00    +0.100 C 
ATOM     12  H   UNL     1      36.750 -25.014 -12.303  0.00  0.00    +0.154 HD
BRANCH  10  14
ATOM     13 CL   UNL     1      34.970 -20.097 -21.626  0.00  0.00    -0.082 Cl
ATOM     14  C   UNL     1      35.439 -22.118 -17.620  0.00  0.00    +0.002 C 
ATOM     15  C   UNL     1      34.198 -22.109 -18.256  0.00  0.00    +0.001 C 
ATOM     16  C   UNL     1      36.536 -21.501 -18.223  0.00  0.00    +0.001 C 
ATOM     17  C   UNL     1      34.052 -21.484 -19.495  0.00  0.00    +0.011 C 
ATOM     18  C   UNL     1      36.391 -20.877 -19.462  0.00  0.00    +0.011 C 
ATOM     19  C   UNL     1      35.149 -20.868 -20.098  0.00  0.00    +0.058 C 
ENDBRANCH  10  14
ENDBRANCH   2   6
BRANCH   2  22
ATOM     20  F   UNL     1      31.197 -21.750 -14.650  0.00  0.00    -0.203 F 
ATOM     21  F   UNL     1      31.635 -26.094 -12.792  0.00  0.00    -0.204 F 
ATOM     22  C   UNL     1      31.441 -23.909 -13.703  0.00  0.00    +0.095 C 
ATOM     23  C   UNL     1      29.762 -23.484 -15.388  0.00  0.00    +0.092 C 
ATOM     24  C   UNL     1      30.806 -23.031 -14.581  0.00  0.00    +0.160 C 
ATOM     25  C   UNL     1      31.032 -25.241 -13.632  0.00  0.00    +0.145 C 
ATOM     26  C   UNL     1      29.354 -24.817 -15.317  0.00  0.00    +0.020 C 
ATOM     27  C   UNL     1      29.989 -25.695 -14.439  0.00  0.00    +0.031 C 
BRANCH  23  28
ATOM     28  N   UNL     1      29.111 -22.588 -16.288  0.00  0.00    -0.217 N 
ATOM     29  H   UNL     1      29.611 -21.865 -16.732  0.00  0.00    +0.173 HD
BRANCH  28  30
ATOM     30  S   UNL     1      27.427 -22.807 -16.577  0.00  0.00    +0.054 S 
ATOM     31  O   UNL     1      27.262 -23.893 -17.527  0.00  0.00    -0.154 OA
ATOM     32  O   UNL     1      26.682 -22.796 -15.334  0.00  0.00    -0.154 OA
BRANCH  30  33
ATOM     33  C   UNL     1      27.059 -21.300 -17.447  0.00  0.00    +0.172 C 
BRANCH  33  34
ATOM     34  C   UNL     1      25.630 -21.293 -17.962  0.00  0.00    +0.027 C 
ATOM     35  C   UNL     1      25.569 -21.643 -19.439  0.00  0.00    +0.002 C 
ENDBRANCH  33  34
ENDBRANCH  30  33
ENDBRANCH  28  30
ENDBRANCH  23  28
ENDBRANCH   2  22
TORSDOF 7
ENDMDL
