MODEL 1
REMARK VINA RESULT:     -11.5      0.000      0.000
REMARK  Name = 11224409
REMARK  8 active torsions:
REMARK  status: ('A' for Active; 'I' for Inactive)
REMARK    1  A    between atoms: C_2  and  N_10
REMARK    2  A    between atoms: C_5  and  C_20
REMARK    3  A    between atoms: C_11  and  C_14
REMARK    4  A    between atoms: C_14  and  N_16
REMARK    5  A    between atoms: C_21  and  C_26
REMARK    6  A    between atoms: C_26  and  N_27
REMARK    7  A    between atoms: N_27  and  C_30
REMARK    8  A    between atoms: C_30  and  C_34
REMARK                            x       y       z     vdW  Elec       q    Type
REMARK                         _______ _______ _______ _____ _____    ______ ____
ROOT
ATOM      1  F   UNL     1      34.604 -11.149 -24.392  0.00  0.00    -0.204 F 
ATOM      2  C   UNL     1      32.224  -9.523 -22.176  0.00  0.00    +0.059 C 
ATOM      3  C   UNL     1      33.201  -9.706 -23.156  0.00  0.00    +0.045 C 
ATOM      4  C   UNL     1      31.711 -10.624 -21.490  0.00  0.00    +0.015 C 
ATOM      5  C   UNL     1      33.151 -12.089 -22.761  0.00  0.00    +0.028 C 
ATOM      6  C   UNL     1      33.665 -10.989 -23.447  0.00  0.00    +0.141 C 
ATOM      7  C   UNL     1      32.174 -11.907 -21.782  0.00  0.00    +0.004 C 
ENDROOT
BRANCH   2  10
ATOM      8  O   UNL     1      31.345  -6.257 -20.831  0.00  0.00    -0.434 OA
ATOM      9  O   UNL     1      32.611  -7.774 -19.718  0.00  0.00    -0.226 OA
ATOM     10  N   UNL     1      31.752  -8.214 -21.878  0.00  0.00    -0.221 N 
ATOM     11  C   UNL     1      30.871  -6.094 -22.174  0.00  0.00    +0.210 C 
ATOM     12  C   UNL     1      30.842  -7.500 -22.734  0.00  0.00    +0.147 C 
ATOM     13  C   UNL     1      31.984  -7.472 -20.723  0.00  0.00    +0.409 C 
BRANCH  11  14
ATOM     14  C   UNL     1      31.821  -5.169 -22.922  0.00  0.00    +0.135 C 
BRANCH  14  16
ATOM     15  O   UNL     1      33.178  -5.489 -25.469  0.00  0.00    -0.275 OA
ATOM     16  N   UNL     1      33.082  -5.807 -23.163  0.00  0.00    -0.301 N 
ATOM     17  C   UNL     1      33.661  -5.915 -24.423  0.00  0.00    +0.223 C 
ATOM     18  C   UNL     1      34.997  -6.608 -24.388  0.00  0.00    +0.095 C 
ATOM     19  H   UNL     1      33.564  -6.189 -22.394  0.00  0.00    +0.150 HD
ENDBRANCH  14  16
ENDBRANCH  11  14
ENDBRANCH   2  10
BRANCH   5  20
ATOM     20  C   UNL     1      33.629 -13.422 -23.060  0.00  0.00    +0.002 C 
ATOM     21  C   UNL     1      34.548 -15.992 -23.637  0.00  0.00    -0.044 C 
ATOM     22  C   UNL     1      34.352 -14.135 -22.104  0.00  0.00    -0.000 C 
ATOM     23  C   UNL     1      33.366 -13.995 -24.305  0.00  0.00    -0.000 C 
ATOM     24  C   UNL     1      34.811 -15.420 -22.392  0.00  0.00    -0.006 C 
ATOM     25  C   UNL     1      33.826 -15.279 -24.594  0.00  0.00    -0.006 C 
BRANCH  21  26
ATOM     26  C   UNL     1      35.039 -17.366 -23.944  0.00  0.00    -0.054 C 
BRANCH  26  27
ATOM     27  N   UNL     1      35.719 -17.984 -22.804  0.00  0.00    +0.390 N 
ATOM     28  H   UNL     1      35.808 -17.297 -22.055  0.00  0.00    -0.083 HD
ATOM     29  H   UNL     1      36.640 -18.302 -23.104  0.00  0.00    -0.083 HD
BRANCH  27  30
ATOM     30  C   UNL     1      34.965 -19.128 -22.315  0.00  0.00    -0.031 C 
BRANCH  30  34
ATOM     31  N   UNL     1      36.803 -19.342 -20.672  0.00  0.00    -0.170 NA
ATOM     32  N   UNL     1      36.957 -20.109 -19.581  0.00  0.00    -0.157 N 
ATOM     33  N   UNL     1      35.967 -20.954 -19.247  0.00  0.00    -0.162 NA
ATOM     34  C   UNL     1      35.592 -19.728 -21.084  0.00  0.00    +0.077 C 
ATOM     35  C   UNL     1      35.084 -20.706 -20.219  0.00  0.00    +0.133 C 
ATOM     36  H   UNL     1      37.776 -20.055 -19.039  0.00  0.00    +0.197 HD
ENDBRANCH  30  34
ENDBRANCH  27  30
ENDBRANCH  26  27
ENDBRANCH  21  26
ENDBRANCH   5  20
TORSDOF 8
ENDMDL
MODEL 2
REMARK VINA RESULT:     -11.4      6.981     12.968
REMARK  Name = 11224409
REMARK  8 active torsions:
REMARK  status: ('A' for Active; 'I' for Inactive)
REMARK    1  A    between atoms: C_2  and  N_10
REMARK    2  A    between atoms: C_5  and  C_20
REMARK    3  A    between atoms: C_11  and  C_14
REMARK    4  A    between atoms: C_14  and  N_16
REMARK    5  A    between atoms: C_21  and  C_26
REMARK    6  A    between atoms: C_26  and  N_27
REMARK    7  A    between atoms: N_27  and  C_30
REMARK    8  A    between atoms: C_30  and  C_34
REMARK                            x       y       z     vdW  Elec       q    Type
REMARK                         _______ _______ _______ _____ _____    ______ ____
ROOT
ATOM      1  F   UNL     1      37.195 -19.963 -20.616  0.00  0.00    -0.204 F 
ATOM      2  C   UNL     1      34.734 -21.728 -18.605  0.00  0.00    +0.059 C 
ATOM      3  C   UNL     1      35.963 -21.282 -19.093  0.00  0.00    +0.045 C 
ATOM      4  C   UNL     1      33.549 -21.273 -19.183  0.00  0.00    +0.015 C 
ATOM      5  C   UNL     1      34.820 -19.928 -20.735  0.00  0.00    +0.028 C 
ATOM      6  C   UNL     1      36.006 -20.382 -20.158  0.00  0.00    +0.141 C 
ATOM      7  C   UNL     1      33.591 -20.372 -20.247  0.00  0.00    +0.004 C 
ENDROOT
BRANCH   2  10
ATOM      8  O   UNL     1      35.224 -23.816 -15.663  0.00  0.00    -0.434 OA
ATOM      9  O   UNL     1      36.722 -22.264 -16.366  0.00  0.00    -0.226 OA
ATOM     10  N   UNL     1      34.691 -22.646 -17.518  0.00  0.00    -0.221 N 
ATOM     11  C   UNL     1      33.860 -24.143 -15.960  0.00  0.00    +0.210 C 
ATOM     12  C   UNL     1      33.649 -23.627 -17.368  0.00  0.00    +0.147 C 
ATOM     13  C   UNL     1      35.646 -22.825 -16.521  0.00  0.00    +0.409 C 
BRANCH  11  14
ATOM     14  C   UNL     1      32.959 -23.473 -14.933  0.00  0.00    +0.135 C 
BRANCH  14  16
ATOM     15  O   UNL     1      31.694 -25.138 -12.919  0.00  0.00    -0.275 OA
ATOM     16  N   UNL     1      31.637 -24.025 -14.965  0.00  0.00    -0.301 N 
ATOM     17  C   UNL     1      31.109 -24.817 -13.950  0.00  0.00    +0.223 C 
ATOM     18  C   UNL     1      29.692 -25.244 -14.226  0.00  0.00    +0.095 C 
ATOM     19  H   UNL     1      31.071 -23.834 -15.749  0.00  0.00    +0.150 HD
ENDBRANCH  14  16
ENDBRANCH  11  14
ENDBRANCH   2  10
BRANCH   5  20
ATOM     20  C   UNL     1      34.860 -18.995 -21.841  0.00  0.00    +0.002 C 
ATOM     21  C   UNL     1      34.938 -17.196 -23.971  0.00  0.00    -0.044 C 
ATOM     22  C   UNL     1      35.077 -17.638 -21.601  0.00  0.00    -0.000 C 
ATOM     23  C   UNL     1      34.682 -19.452 -23.147  0.00  0.00    -0.000 C 
ATOM     24  C   UNL     1      35.117 -16.739 -22.666  0.00  0.00    -0.006 C 
ATOM     25  C   UNL     1      34.720 -18.553 -24.212  0.00  0.00    -0.006 C 
BRANCH  21  26
ATOM     26  C   UNL     1      34.981 -16.234 -25.110  0.00  0.00    -0.054 C 
BRANCH  26  27
ATOM     27  N   UNL     1      33.647 -15.792 -25.519  0.00  0.00    +0.390 N 
ATOM     28  H   UNL     1      33.000 -15.915 -24.739  0.00  0.00    -0.083 HD
ATOM     29  H   UNL     1      33.346 -16.351 -26.317  0.00  0.00    -0.083 HD
BRANCH  27  30
ATOM     30  C   UNL     1      33.666 -14.391 -25.908  0.00  0.00    -0.031 C 
BRANCH  30  34
ATOM     31  N   UNL     1      34.217 -12.263 -24.772  0.00  0.00    -0.170 NA
ATOM     32  N   UNL     1      33.992 -11.818 -23.526  0.00  0.00    -0.157 N 
ATOM     33  N   UNL     1      33.349 -12.623 -22.664  0.00  0.00    -0.162 NA
ATOM     34  C   UNL     1      33.663 -13.477 -24.711  0.00  0.00    +0.077 C 
ATOM     35  C   UNL     1      33.137 -13.696 -23.431  0.00  0.00    +0.133 C 
ATOM     36  H   UNL     1      34.292 -10.922 -23.249  0.00  0.00    +0.197 HD
ENDBRANCH  30  34
ENDBRANCH  27  30
ENDBRANCH  26  27
ENDBRANCH  21  26
ENDBRANCH   5  20
TORSDOF 8
ENDMDL
MODEL 3
REMARK VINA RESULT:     -11.4      8.888     14.792
REMARK  Name = 11224409
REMARK  8 active torsions:
REMARK  status: ('A' for Active; 'I' for Inactive)
REMARK    1  A    between atoms: C_2  and  N_10
REMARK    2  A    between atoms: C_5  and  C_20
REMARK    3  A    between atoms: C_11  and  C_14
REMARK    4  A    between atoms: C_14  and  N_16
REMARK    5  A    between atoms: C_21  and  C_26
REMARK    6  A    between atoms: C_26  and  N_27
REMARK    7  A    between atoms: N_27  and  C_30
REMARK    8  A    between atoms: C_30  and  C_34
REMARK                            x       y       z     vdW  Elec       q    Type
REMARK                         _______ _______ _______ _____ _____    ______ ____
ROOT
ATOM      1  F   UNL     1      33.294 -22.835 -17.947  0.00  0.00    -0.204 F 
ATOM      2  C   UNL     1      35.914 -23.514 -15.521  0.00  0.00    +0.059 C 
ATOM      3  C   UNL     1      34.678 -23.539 -16.169  0.00  0.00    +0.045 C 
ATOM      4  C   UNL     1      36.959 -22.750 -16.043  0.00  0.00    +0.015 C 
ATOM      5  C   UNL     1      35.532 -22.037 -17.857  0.00  0.00    +0.028 C 
ATOM      6  C   UNL     1      34.488 -22.800 -17.336  0.00  0.00    +0.141 C 
ATOM      7  C   UNL     1      36.768 -22.012 -17.211  0.00  0.00    +0.004 C 
ENDROOT
BRANCH   2  10
ATOM      8  O   UNL     1      36.421 -25.974 -12.885  0.00  0.00    -0.434 OA
ATOM      9  O   UNL     1      36.243 -26.506 -15.083  0.00  0.00    -0.226 OA
ATOM     10  N   UNL     1      36.109 -24.267 -14.329  0.00  0.00    -0.221 N 
ATOM     11  C   UNL     1      36.607 -24.773 -12.126  0.00  0.00    +0.210 C 
ATOM     12  C   UNL     1      36.064 -23.677 -13.018  0.00  0.00    +0.147 C 
ATOM     13  C   UNL     1      36.262 -25.647 -14.213  0.00  0.00    +0.409 C 
BRANCH  11  14
ATOM     14  C   UNL     1      38.089 -24.613 -11.814  0.00  0.00    +0.135 C 
BRANCH  14  16
ATOM     15  O   UNL     1      39.553 -24.352 -14.308  0.00  0.00    -0.275 OA
ATOM     16  N   UNL     1      38.868 -25.617 -12.476  0.00  0.00    -0.301 N 
ATOM     17  C   UNL     1      39.540 -25.404 -13.675  0.00  0.00    +0.223 C 
ATOM     18  C   UNL     1      40.302 -26.618 -14.136  0.00  0.00    +0.095 C 
ATOM     19  H   UNL     1      38.931 -26.508 -12.059  0.00  0.00    +0.150 HD
ENDBRANCH  14  16
ENDBRANCH  11  14
ENDBRANCH   2  10
BRANCH   5  20
ATOM     20  C   UNL     1      35.339 -21.269 -19.068  0.00  0.00    +0.002 C 
ATOM     21  C   UNL     1      34.966 -19.791 -21.404  0.00  0.00    -0.044 C 
ATOM     22  C   UNL     1      36.441 -20.757 -19.752  0.00  0.00    -0.000 C 
ATOM     23  C   UNL     1      34.050 -21.043 -19.553  0.00  0.00    -0.000 C 
ATOM     24  C   UNL     1      36.255 -20.018 -20.921  0.00  0.00    -0.006 C 
ATOM     25  C   UNL     1      33.864 -20.303 -20.720  0.00  0.00    -0.006 C 
BRANCH  21  26
ATOM     26  C   UNL     1      34.768 -19.002 -22.654  0.00  0.00    -0.054 C 
BRANCH  26  27
ATOM     27  N   UNL     1      35.781 -17.959 -22.823  0.00  0.00    +0.390 N 
ATOM     28  H   UNL     1      36.138 -17.989 -23.778  0.00  0.00    -0.083 HD
ATOM     29  H   UNL     1      36.536 -18.125 -22.158  0.00  0.00    -0.083 HD
BRANCH  27  30
ATOM     30  C   UNL     1      35.214 -16.645 -22.567  0.00  0.00    -0.031 C 
BRANCH  30  34
ATOM     31  N   UNL     1      33.699 -15.069 -23.728  0.00  0.00    -0.170 NA
ATOM     32  N   UNL     1      33.450 -14.846 -25.027  0.00  0.00    -0.157 N 
ATOM     33  N   UNL     1      34.107 -15.579 -25.941  0.00  0.00    -0.162 NA
ATOM     34  C   UNL     1      34.611 -16.043 -23.808  0.00  0.00    +0.077 C 
ATOM     35  C   UNL     1      34.858 -16.353 -25.153  0.00  0.00    +0.133 C 
ATOM     36  H   UNL     1      32.799 -14.161 -25.305  0.00  0.00    +0.197 HD
ENDBRANCH  30  34
ENDBRANCH  27  30
ENDBRANCH  26  27
ENDBRANCH  21  26
ENDBRANCH   5  20
TORSDOF 8
ENDMDL
MODEL 4
REMARK VINA RESULT:     -11.4      1.217      1.623
REMARK  Name = 11224409
REMARK  8 active torsions:
REMARK  status: ('A' for Active; 'I' for Inactive)
REMARK    1  A    between atoms: C_2  and  N_10
REMARK    2  A    between atoms: C_5  and  C_20
REMARK    3  A    between atoms: C_11  and  C_14
REMARK    4  A    between atoms: C_14  and  N_16
REMARK    5  A    between atoms: C_21  and  C_26
REMARK    6  A    between atoms: C_26  and  N_27
REMARK    7  A    between atoms: N_27  and  C_30
REMARK    8  A    between atoms: C_30  and  C_34
REMARK                            x       y       z     vdW  Elec       q    Type
REMARK                         _______ _______ _______ _____ _____    ______ ____
ROOT
ATOM      1  F   UNL     1      34.666 -11.194 -24.453  0.00  0.00    -0.204 F 
ATOM      2  C   UNL     1      32.315  -9.540 -22.229  0.00  0.00    +0.059 C 
ATOM      3  C   UNL     1      33.289  -9.734 -23.208  0.00  0.00    +0.045 C 
ATOM      4  C   UNL     1      31.780 -10.635 -21.551  0.00  0.00    +0.015 C 
ATOM      5  C   UNL     1      33.194 -12.118 -22.830  0.00  0.00    +0.028 C 
ATOM      6  C   UNL     1      33.729 -11.024 -23.508  0.00  0.00    +0.141 C 
ATOM      7  C   UNL     1      32.219 -11.925 -21.851  0.00  0.00    +0.004 C 
ENDROOT
BRANCH   2  10
ATOM      8  O   UNL     1      31.418  -6.300 -20.830  0.00  0.00    -0.434 OA
ATOM      9  O   UNL     1      32.468  -7.930 -19.652  0.00  0.00    -0.226 OA
ATOM     10  N   UNL     1      31.867  -8.224 -21.922  0.00  0.00    -0.221 N 
ATOM     11  C   UNL     1      31.123  -6.051 -22.210  0.00  0.00    +0.210 C 
ATOM     12  C   UNL     1      31.103  -7.426 -22.843  0.00  0.00    +0.147 C 
ATOM     13  C   UNL     1      31.985  -7.549 -20.709  0.00  0.00    +0.409 C 
BRANCH  11  14
ATOM     14  C   UNL     1      32.199  -5.140 -22.786  0.00  0.00    +0.135 C 
BRANCH  14  16
ATOM     15  O   UNL     1      30.277  -2.993 -22.432  0.00  0.00    -0.275 OA
ATOM     16  N   UNL     1      31.661  -4.278 -23.796  0.00  0.00    -0.301 N 
ATOM     17  C   UNL     1      30.739  -3.269 -23.536  0.00  0.00    +0.223 C 
ATOM     18  C   UNL     1      30.360  -2.498 -24.772  0.00  0.00    +0.095 C 
ATOM     19  H   UNL     1      31.961  -4.407 -24.726  0.00  0.00    +0.150 HD
ENDBRANCH  14  16
ENDBRANCH  11  14
ENDBRANCH   2  10
BRANCH   5  20
ATOM     20  C   UNL     1      33.647 -13.458 -23.139  0.00  0.00    +0.002 C 
ATOM     21  C   UNL     1      34.518 -16.040 -23.732  0.00  0.00    -0.044 C 
ATOM     22  C   UNL     1      34.316 -14.207 -22.172  0.00  0.00    -0.000 C 
ATOM     23  C   UNL     1      33.413 -14.000 -24.403  0.00  0.00    -0.000 C 
ATOM     24  C   UNL     1      34.751 -15.499 -22.468  0.00  0.00    -0.006 C 
ATOM     25  C   UNL     1      33.849 -15.291 -24.700  0.00  0.00    -0.006 C 
BRANCH  21  26
ATOM     26  C   UNL     1      34.983 -17.422 -24.049  0.00  0.00    -0.054 C 
BRANCH  26  27
ATOM     27  N   UNL     1      35.733 -18.024 -22.946  0.00  0.00    +0.390 N 
ATOM     28  H   UNL     1      35.957 -17.304 -22.259  0.00  0.00    -0.083 HD
ATOM     29  H   UNL     1      36.589 -18.436 -23.318  0.00  0.00    -0.083 HD
BRANCH  27  30
ATOM     30  C   UNL     1      34.952 -19.069 -22.303  0.00  0.00    -0.031 C 
BRANCH  30  34
ATOM     31  N   UNL     1      36.835 -19.148 -20.698  0.00  0.00    -0.170 NA
ATOM     32  N   UNL     1      37.084 -19.928 -19.635  0.00  0.00    -0.157 N 
ATOM     33  N   UNL     1      36.190 -20.876 -19.311  0.00  0.00    -0.162 NA
ATOM     34  C   UNL     1      35.660 -19.640 -21.102  0.00  0.00    +0.077 C 
ATOM     35  C   UNL     1      35.269 -20.690 -20.260  0.00  0.00    +0.133 C 
ATOM     36  H   UNL     1      37.905 -19.808 -19.105  0.00  0.00    +0.197 HD
ENDBRANCH  30  34
ENDBRANCH  27  30
ENDBRANCH  26  27
ENDBRANCH  21  26
ENDBRANCH   5  20
TORSDOF 8
ENDMDL
MODEL 5
REMARK VINA RESULT:     -11.3      1.601      2.354
REMARK  Name = 11224409
REMARK  8 active torsions:
REMARK  status: ('A' for Active; 'I' for Inactive)
REMARK    1  A    between atoms: C_2  and  N_10
REMARK    2  A    between atoms: C_5  and  C_20
REMARK    3  A    between atoms: C_11  and  C_14
REMARK    4  A    between atoms: C_14  and  N_16
REMARK    5  A    between atoms: C_21  and  C_26
REMARK    6  A    between atoms: C_26  and  N_27
REMARK    7  A    between atoms: N_27  and  C_30
REMARK    8  A    between atoms: C_30  and  C_34
REMARK                            x       y       z     vdW  Elec       q    Type
REMARK                         _______ _______ _______ _____ _____    ______ ____
ROOT
ATOM      1  F   UNL     1      31.736 -13.126 -21.037  0.00  0.00    -0.204 F 
ATOM      2  C   UNL     1      32.342  -9.785 -22.334  0.00  0.00    +0.059 C 
ATOM      3  C   UNL     1      31.799 -10.831 -21.585  0.00  0.00    +0.045 C 
ATOM      4  C   UNL     1      33.353 -10.043 -23.260  0.00  0.00    +0.015 C 
ATOM      5  C   UNL     1      33.278 -12.389 -22.690  0.00  0.00    +0.028 C 
ATOM      6  C   UNL     1      32.268 -12.133 -21.764  0.00  0.00    +0.141 C 
ATOM      7  C   UNL     1      33.822 -11.344 -23.438  0.00  0.00    +0.004 C 
ENDROOT
BRANCH   2  10
ATOM      8  O   UNL     1      31.485  -6.400 -21.302  0.00  0.00    -0.434 OA
ATOM      9  O   UNL     1      32.850  -7.768 -20.114  0.00  0.00    -0.226 OA
ATOM     10  N   UNL     1      31.863  -8.457 -22.152  0.00  0.00    -0.221 N 
ATOM     11  C   UNL     1      30.923  -6.394 -22.621  0.00  0.00    +0.210 C 
ATOM     12  C   UNL     1      30.887  -7.855 -23.019  0.00  0.00    +0.147 C 
ATOM     13  C   UNL     1      32.154  -7.587 -21.103  0.00  0.00    +0.409 C 
BRANCH  11  14
ATOM     14  C   UNL     1      31.805  -5.547 -23.527  0.00  0.00    +0.135 C 
BRANCH  14  16
ATOM     15  O   UNL     1      30.193  -3.269 -24.332  0.00  0.00    -0.275 OA
ATOM     16  N   UNL     1      31.899  -4.200 -23.046  0.00  0.00    -0.301 N 
ATOM     17  C   UNL     1      31.081  -3.166 -23.490  0.00  0.00    +0.223 C 
ATOM     18  C   UNL     1      31.376  -1.859 -22.803  0.00  0.00    +0.095 C 
ATOM     19  H   UNL     1      32.580  -3.996 -22.365  0.00  0.00    +0.150 HD
ENDBRANCH  14  16
ENDBRANCH  11  14
ENDBRANCH   2  10
BRANCH   5  20
ATOM     20  C   UNL     1      33.767 -13.738 -22.879  0.00  0.00    +0.002 C 
ATOM     21  C   UNL     1      34.712 -16.337 -23.243  0.00  0.00    -0.044 C 
ATOM     22  C   UNL     1      33.685 -14.340 -24.134  0.00  0.00    -0.000 C 
ATOM     23  C   UNL     1      34.322 -14.436 -21.805  0.00  0.00    -0.000 C 
ATOM     24  C   UNL     1      34.158 -15.640 -24.316  0.00  0.00    -0.006 C 
ATOM     25  C   UNL     1      34.794 -15.735 -21.987  0.00  0.00    -0.006 C 
BRANCH  21  26
ATOM     26  C   UNL     1      35.218 -17.727 -23.438  0.00  0.00    -0.054 C 
BRANCH  26  27
ATOM     27  N   UNL     1      34.505 -18.702 -22.610  0.00  0.00    +0.390 N 
ATOM     28  H   UNL     1      34.131 -19.438 -23.208  0.00  0.00    -0.083 HD
ATOM     29  H   UNL     1      33.749 -18.225 -22.121  0.00  0.00    -0.083 HD
BRANCH  27  30
ATOM     30  C   UNL     1      35.400 -19.292 -21.628  0.00  0.00    -0.031 C 
BRANCH  30  34
ATOM     31  N   UNL     1      35.316 -20.894 -19.743  0.00  0.00    -0.170 NA
ATOM     32  N   UNL     1      34.294 -21.477 -19.096  0.00  0.00    -0.157 N 
ATOM     33  N   UNL     1      33.041 -21.189 -19.486  0.00  0.00    -0.162 NA
ATOM     34  C   UNL     1      34.658 -20.154 -20.641  0.00  0.00    +0.077 C 
ATOM     35  C   UNL     1      33.277 -20.334 -20.485  0.00  0.00    +0.133 C 
ATOM     36  H   UNL     1      34.459 -22.101 -18.353  0.00  0.00    +0.197 HD
ENDBRANCH  30  34
ENDBRANCH  27  30
ENDBRANCH  26  27
ENDBRANCH  21  26
ENDBRANCH   5  20
TORSDOF 8
ENDMDL
MODEL 6
REMARK VINA RESULT:     -11.3      5.804     10.344
REMARK  Name = 11224409
REMARK  8 active torsions:
REMARK  status: ('A' for Active; 'I' for Inactive)
REMARK    1  A    between atoms: C_2  and  N_10
REMARK    2  A    between atoms: C_5  and  C_20
REMARK    3  A    between atoms: C_11  and  C_14
REMARK    4  A    between atoms: C_14  and  N_16
REMARK    5  A    between atoms: C_21  and  C_26
REMARK    6  A    between atoms: C_26  and  N_27
REMARK    7  A    between atoms: N_27  and  C_30
REMARK    8  A    between atoms: C_30  and  C_34
REMARK                            x       y       z     vdW  Elec       q    Type
REMARK                         _______ _______ _______ _____ _____    ______ ____
ROOT
ATOM      1  F   UNL     1      32.733 -20.942 -19.344  0.00  0.00    -0.204 F 
ATOM      2  C   UNL     1      35.160 -19.265 -21.467  0.00  0.00    +0.059 C 
ATOM      3  C   UNL     1      33.939 -19.671 -20.926  0.00  0.00    +0.045 C 
ATOM      4  C   UNL     1      36.354 -19.748 -20.932  0.00  0.00    +0.015 C 
ATOM      5  C   UNL     1      35.108 -21.044 -19.319  0.00  0.00    +0.028 C 
ATOM      6  C   UNL     1      33.914 -20.561 -19.853  0.00  0.00    +0.141 C 
ATOM      7  C   UNL     1      36.329 -20.637 -19.858  0.00  0.00    +0.004 C 
ENDROOT
BRANCH   2  10
ATOM      8  O   UNL     1      34.984 -17.463 -24.626  0.00  0.00    -0.434 OA
ATOM      9  O   UNL     1      34.377 -19.635 -24.383  0.00  0.00    -0.226 OA
ATOM     10  N   UNL     1      35.186 -18.357 -22.563  0.00  0.00    -0.221 N 
ATOM     11  C   UNL     1      35.284 -16.370 -23.747  0.00  0.00    +0.210 C 
ATOM     12  C   UNL     1      35.743 -17.035 -22.467  0.00  0.00    +0.147 C 
ATOM     13  C   UNL     1      34.797 -18.604 -23.878  0.00  0.00    +0.409 C 
BRANCH  11  14
ATOM     14  C   UNL     1      34.031 -15.525 -23.569  0.00  0.00    +0.135 C 
BRANCH  14  16
ATOM     15  O   UNL     1      32.370 -13.422 -22.451  0.00  0.00    -0.275 OA
ATOM     16  N   UNL     1      33.779 -15.258 -22.183  0.00  0.00    -0.301 N 
ATOM     17  C   UNL     1      32.965 -14.223 -21.735  0.00  0.00    +0.223 C 
ATOM     18  C   UNL     1      32.853 -14.183 -20.234  0.00  0.00    +0.095 C 
ATOM     19  H   UNL     1      34.206 -15.839 -21.512  0.00  0.00    +0.150 HD
ENDBRANCH  14  16
ENDBRANCH  11  14
ENDBRANCH   2  10
BRANCH   5  20
ATOM     20  C   UNL     1      35.086 -21.967 -18.205  0.00  0.00    +0.002 C 
ATOM     21  C   UNL     1      35.045 -23.749 -16.059  0.00  0.00    -0.044 C 
ATOM     22  C   UNL     1      33.979 -22.790 -18.002  0.00  0.00    -0.000 C 
ATOM     23  C   UNL     1      36.174 -22.036 -17.333  0.00  0.00    -0.000 C 
ATOM     24  C   UNL     1      33.958 -23.682 -16.930  0.00  0.00    -0.006 C 
ATOM     25  C   UNL     1      36.154 -22.926 -16.260  0.00  0.00    -0.006 C 
BRANCH  21  26
ATOM     26  C   UNL     1      35.023 -24.702 -14.912  0.00  0.00    -0.054 C 
BRANCH  26  27
ATOM     27  N   UNL     1      35.950 -25.821 -15.098  0.00  0.00    +0.390 N 
ATOM     28  H   UNL     1      36.587 -25.604 -15.864  0.00  0.00    -0.083 HD
ATOM     29  H   UNL     1      35.412 -26.660 -15.312  0.00  0.00    -0.083 HD
BRANCH  27  30
ATOM     30  C   UNL     1      36.721 -26.055 -13.887  0.00  0.00    -0.031 C 
BRANCH  30  34
ATOM     31  N   UNL     1      39.020 -26.940 -14.131  0.00  0.00    -0.170 NA
ATOM     32  N   UNL     1      40.198 -26.342 -14.368  0.00  0.00    -0.157 N 
ATOM     33  N   UNL     1      40.223 -25.007 -14.512  0.00  0.00    -0.162 NA
ATOM     34  C   UNL     1      38.199 -25.885 -14.123  0.00  0.00    +0.077 C 
ATOM     35  C   UNL     1      38.930 -24.712 -14.354  0.00  0.00    +0.133 C 
ATOM     36  H   UNL     1      41.027 -26.871 -14.433  0.00  0.00    +0.197 HD
ENDBRANCH  30  34
ENDBRANCH  27  30
ENDBRANCH  26  27
ENDBRANCH  21  26
ENDBRANCH   5  20
TORSDOF 8
ENDMDL
MODEL 7
REMARK VINA RESULT:     -11.1      1.190      1.349
REMARK  Name = 11224409
REMARK  8 active torsions:
REMARK  status: ('A' for Active; 'I' for Inactive)
REMARK    1  A    between atoms: C_2  and  N_10
REMARK    2  A    between atoms: C_5  and  C_20
REMARK    3  A    between atoms: C_11  and  C_14
REMARK    4  A    between atoms: C_14  and  N_16
REMARK    5  A    between atoms: C_21  and  C_26
REMARK    6  A    between atoms: C_26  and  N_27
REMARK    7  A    between atoms: N_27  and  C_30
REMARK    8  A    between atoms: C_30  and  C_34
REMARK                            x       y       z     vdW  Elec       q    Type
REMARK                         _______ _______ _______ _____ _____    ______ ____
ROOT
ATOM      1  F   UNL     1      34.696 -11.911 -24.223  0.00  0.00    -0.204 F 
ATOM      2  C   UNL     1      32.328 -10.171 -22.083  0.00  0.00    +0.059 C 
ATOM      3  C   UNL     1      33.285 -10.409 -23.071  0.00  0.00    +0.045 C 
ATOM      4  C   UNL     1      31.862 -11.225 -21.297  0.00  0.00    +0.015 C 
ATOM      5  C   UNL     1      33.310 -12.752 -22.483  0.00  0.00    +0.028 C 
ATOM      6  C   UNL     1      33.776 -11.699 -23.270  0.00  0.00    +0.141 C 
ATOM      7  C   UNL     1      32.353 -12.515 -21.497  0.00  0.00    +0.004 C 
ENDROOT
BRANCH   2  10
ATOM      8  O   UNL     1      31.314  -6.865 -20.945  0.00  0.00    -0.434 OA
ATOM      9  O   UNL     1      32.456  -8.342 -19.657  0.00  0.00    -0.226 OA
ATOM     10  N   UNL     1      31.828  -8.854 -21.880  0.00  0.00    -0.221 N 
ATOM     11  C   UNL     1      30.983  -6.748 -22.335  0.00  0.00    +0.210 C 
ATOM     12  C   UNL     1      31.013  -8.171 -22.849  0.00  0.00    +0.147 C 
ATOM     13  C   UNL     1      31.937  -8.074 -20.731  0.00  0.00    +0.409 C 
BRANCH  11  14
ATOM     14  C   UNL     1      32.007  -5.845 -23.009  0.00  0.00    +0.135 C 
BRANCH  14  16
ATOM     15  O   UNL     1      34.108  -5.774 -25.013  0.00  0.00    -0.275 OA
ATOM     16  N   UNL     1      33.328  -6.392 -22.906  0.00  0.00    -0.301 N 
ATOM     17  C   UNL     1      34.275  -6.312 -23.921  0.00  0.00    +0.223 C 
ATOM     18  C   UNL     1      35.587  -6.946 -23.541  0.00  0.00    +0.095 C 
ATOM     19  H   UNL     1      33.578  -6.850 -22.070  0.00  0.00    +0.150 HD
ENDBRANCH  14  16
ENDBRANCH  11  14
ENDBRANCH   2  10
BRANCH   5  20
ATOM     20  C   UNL     1      33.817 -14.092 -22.687  0.00  0.00    +0.002 C 
ATOM     21  C   UNL     1      34.791 -16.676 -23.078  0.00  0.00    -0.044 C 
ATOM     22  C   UNL     1      34.311 -14.822 -21.606  0.00  0.00    -0.000 C 
ATOM     23  C   UNL     1      33.809 -14.655 -23.964  0.00  0.00    -0.000 C 
ATOM     24  C   UNL     1      34.798 -16.115 -21.802  0.00  0.00    -0.006 C 
ATOM     25  C   UNL     1      34.297 -15.946 -24.160  0.00  0.00    -0.006 C 
BRANCH  21  26
ATOM     26  C   UNL     1      35.311 -18.059 -23.287  0.00  0.00    -0.054 C 
BRANCH  26  27
ATOM     27  N   UNL     1      34.561 -19.058 -22.525  0.00  0.00    +0.390 N 
ATOM     28  H   UNL     1      34.276 -19.812 -23.150  0.00  0.00    -0.083 HD
ATOM     29  H   UNL     1      33.742 -18.611 -22.114  0.00  0.00    -0.083 HD
BRANCH  27  30
ATOM     30  C   UNL     1      35.378 -19.609 -21.456  0.00  0.00    -0.031 C 
BRANCH  30  34
ATOM     31  N   UNL     1      33.228 -20.238 -20.404  0.00  0.00    -0.170 NA
ATOM     32  N   UNL     1      32.920 -21.093 -19.417  0.00  0.00    -0.157 N 
ATOM     33  N   UNL     1      33.915 -21.780 -18.830  0.00  0.00    -0.162 NA
ATOM     34  C   UNL     1      34.555 -20.388 -20.464  0.00  0.00    +0.077 C 
ATOM     35  C   UNL     1      34.971 -21.324 -19.508  0.00  0.00    +0.133 C 
ATOM     36  H   UNL     1      31.987 -21.214 -19.127  0.00  0.00    +0.197 HD
ENDBRANCH  30  34
ENDBRANCH  27  30
ENDBRANCH  26  27
ENDBRANCH  21  26
ENDBRANCH   5  20
TORSDOF 8
ENDMDL
MODEL 8
REMARK VINA RESULT:     -11.1      6.281     10.611
REMARK  Name = 11224409
REMARK  8 active torsions:
REMARK  status: ('A' for Active; 'I' for Inactive)
REMARK    1  A    between atoms: C_2  and  N_10
REMARK    2  A    between atoms: C_5  and  C_20
REMARK    3  A    between atoms: C_11  and  C_14
REMARK    4  A    between atoms: C_14  and  N_16
REMARK    5  A    between atoms: C_21  and  C_26
REMARK    6  A    between atoms: C_26  and  N_27
REMARK    7  A    between atoms: N_27  and  C_30
REMARK    8  A    between atoms: C_30  and  C_34
REMARK                            x       y       z     vdW  Elec       q    Type
REMARK                         _______ _______ _______ _____ _____    ______ ____
ROOT
ATOM      1  F   UNL     1      32.731 -21.122 -19.189  0.00  0.00    -0.204 F 
ATOM      2  C   UNL     1      35.154 -19.463 -21.330  0.00  0.00    +0.059 C 
ATOM      3  C   UNL     1      33.934 -19.882 -20.798  0.00  0.00    +0.045 C 
ATOM      4  C   UNL     1      36.350 -19.890 -20.753  0.00  0.00    +0.015 C 
ATOM      5  C   UNL     1      35.107 -21.155 -19.112  0.00  0.00    +0.028 C 
ATOM      6  C   UNL     1      33.911 -20.728 -19.689  0.00  0.00    +0.141 C 
ATOM      7  C   UNL     1      36.327 -20.736 -19.643  0.00  0.00    +0.004 C 
ENDROOT
BRANCH   2  10
ATOM      8  O   UNL     1      34.971 -17.790 -24.559  0.00  0.00    -0.434 OA
ATOM      9  O   UNL     1      34.363 -19.950 -24.227  0.00  0.00    -0.226 OA
ATOM     10  N   UNL     1      35.178 -18.600 -22.462  0.00  0.00    -0.221 N 
ATOM     11  C   UNL     1      35.274 -16.663 -23.725  0.00  0.00    +0.210 C 
ATOM     12  C   UNL     1      35.737 -17.276 -22.421  0.00  0.00    +0.147 C 
ATOM     13  C   UNL     1      34.785 -18.899 -23.765  0.00  0.00    +0.409 C 
BRANCH  11  14
ATOM     14  C   UNL     1      34.022 -15.810 -23.577  0.00  0.00    +0.135 C 
BRANCH  14  16
ATOM     15  O   UNL     1      33.049 -15.791 -26.313  0.00  0.00    -0.275 OA
ATOM     16  N   UNL     1      34.032 -14.711 -24.498  0.00  0.00    -0.301 N 
ATOM     17  C   UNL     1      33.543 -14.791 -25.797  0.00  0.00    +0.223 C 
ATOM     18  C   UNL     1      33.652 -13.486 -26.539  0.00  0.00    +0.095 C 
ATOM     19  H   UNL     1      34.407 -13.852 -24.193  0.00  0.00    +0.150 HD
ENDBRANCH  14  16
ENDBRANCH  11  14
ENDBRANCH   2  10
BRANCH   5  20
ATOM     20  C   UNL     1      35.088 -22.032 -17.962  0.00  0.00    +0.002 C 
ATOM     21  C   UNL     1      35.050 -23.723 -15.743  0.00  0.00    -0.044 C 
ATOM     22  C   UNL     1      36.207 -22.123 -17.135  0.00  0.00    -0.000 C 
ATOM     23  C   UNL     1      33.949 -22.787 -17.679  0.00  0.00    -0.000 C 
ATOM     24  C   UNL     1      36.188 -22.968 -16.025  0.00  0.00    -0.006 C 
ATOM     25  C   UNL     1      33.930 -23.633 -16.570  0.00  0.00    -0.006 C 
BRANCH  21  26
ATOM     26  C   UNL     1      35.030 -24.625 -14.556  0.00  0.00    -0.054 C 
BRANCH  26  27
ATOM     27  N   UNL     1      34.638 -23.927 -13.330  0.00  0.00    +0.390 N 
ATOM     28  H   UNL     1      33.621 -23.858 -13.295  0.00  0.00    -0.083 HD
ATOM     29  H   UNL     1      35.056 -22.997 -13.335  0.00  0.00    -0.083 HD
BRANCH  27  30
ATOM     30  C   UNL     1      35.108 -24.646 -12.157  0.00  0.00    -0.031 C 
BRANCH  30  34
ATOM     31  N   UNL     1      37.455 -25.145 -11.552  0.00  0.00    -0.170 NA
ATOM     32  N   UNL     1      38.496 -24.356 -11.241  0.00  0.00    -0.157 N 
ATOM     33  N   UNL     1      38.313 -23.026 -11.234  0.00  0.00    -0.162 NA
ATOM     34  C   UNL     1      36.503 -24.233 -11.768  0.00  0.00    +0.077 C 
ATOM     35  C   UNL     1      37.024 -22.946 -11.574  0.00  0.00    +0.133 C 
ATOM     36  H   UNL     1      39.374 -24.745 -11.023  0.00  0.00    +0.197 HD
ENDBRANCH  30  34
ENDBRANCH  27  30
ENDBRANCH  26  27
ENDBRANCH  21  26
ENDBRANCH   5  20
TORSDOF 8
ENDMDL
MODEL 9
REMARK VINA RESULT:     -11.1      5.917     10.338
REMARK  Name = 11224409
REMARK  8 active torsions:
REMARK  status: ('A' for Active; 'I' for Inactive)
REMARK    1  A    between atoms: C_2  and  N_10
REMARK    2  A    between atoms: C_5  and  C_20
REMARK    3  A    between atoms: C_11  and  C_14
REMARK    4  A    between atoms: C_14  and  N_16
REMARK    5  A    between atoms: C_21  and  C_26
REMARK    6  A    between atoms: C_26  and  N_27
REMARK    7  A    between atoms: N_27  and  C_30
REMARK    8  A    between atoms: C_30  and  C_34
REMARK                            x       y       z     vdW  Elec       q    Type
REMARK                         _______ _______ _______ _____ _____    ______ ____
ROOT
ATOM      1  F   UNL     1      37.255 -21.284 -19.152  0.00  0.00    -0.204 F 
ATOM      2  C   UNL     1      35.037 -19.444 -21.368  0.00  0.00    +0.059 C 
ATOM      3  C   UNL     1      36.204 -19.939 -20.784  0.00  0.00    +0.045 C 
ATOM      4  C   UNL     1      33.792 -19.828 -20.870  0.00  0.00    +0.015 C 
ATOM      5  C   UNL     1      34.879 -21.200 -19.206  0.00  0.00    +0.028 C 
ATOM      6  C   UNL     1      36.124 -20.817 -19.702  0.00  0.00    +0.141 C 
ATOM      7  C   UNL     1      33.712 -20.707 -19.789  0.00  0.00    +0.004 C 
ENDROOT
BRANCH   2  10
ATOM      8  O   UNL     1      34.993 -17.667 -24.545  0.00  0.00    -0.434 OA
ATOM      9  O   UNL     1      34.306 -19.815 -24.297  0.00  0.00    -0.226 OA
ATOM     10  N   UNL     1      35.118 -18.548 -22.471  0.00  0.00    -0.221 N 
ATOM     11  C   UNL     1      35.311 -16.577 -23.669  0.00  0.00    +0.210 C 
ATOM     12  C   UNL     1      35.719 -17.245 -22.373  0.00  0.00    +0.147 C 
ATOM     13  C   UNL     1      34.750 -18.794 -23.791  0.00  0.00    +0.409 C 
BRANCH  11  14
ATOM     14  C   UNL     1      34.084 -15.688 -23.526  0.00  0.00    +0.135 C 
BRANCH  14  16
ATOM     15  O   UNL     1      33.785 -12.882 -24.212  0.00  0.00    -0.275 OA
ATOM     16  N   UNL     1      33.692 -15.137 -24.790  0.00  0.00    -0.301 N 
ATOM     17  C   UNL     1      33.574 -13.773 -25.031  0.00  0.00    +0.223 C 
ATOM     18  C   UNL     1      33.171 -13.468 -26.450  0.00  0.00    +0.095 C 
ATOM     19  H   UNL     1      33.495 -15.760 -25.527  0.00  0.00    +0.150 HD
ENDBRANCH  14  16
ENDBRANCH  11  14
ENDBRANCH   2  10
BRANCH   5  20
ATOM     20  C   UNL     1      34.792 -22.111 -18.084  0.00  0.00    +0.002 C 
ATOM     21  C   UNL     1      34.623 -23.864 -15.921  0.00  0.00    -0.044 C 
ATOM     22  C   UNL     1      35.857 -22.221 -17.191  0.00  0.00    -0.000 C 
ATOM     23  C   UNL     1      33.641 -22.878 -17.895  0.00  0.00    -0.000 C 
ATOM     24  C   UNL     1      35.772 -23.097 -16.109  0.00  0.00    -0.006 C 
ATOM     25  C   UNL     1      33.557 -23.755 -16.814  0.00  0.00    -0.006 C 
BRANCH  21  26
ATOM     26  C   UNL     1      34.533 -24.800 -14.764  0.00  0.00    -0.054 C 
BRANCH  26  27
ATOM     27  N   UNL     1      35.805 -24.930 -14.050  0.00  0.00    +0.390 N 
ATOM     28  H   UNL     1      35.623 -24.983 -13.048  0.00  0.00    -0.083 HD
ATOM     29  H   UNL     1      36.383 -24.118 -14.261  0.00  0.00    -0.083 HD
BRANCH  27  30
ATOM     30  C   UNL     1      36.510 -26.130 -14.472  0.00  0.00    -0.031 C 
BRANCH  30  34
ATOM     31  N   UNL     1      38.785 -27.066 -14.206  0.00  0.00    -0.170 NA
ATOM     32  N   UNL     1      39.992 -26.490 -14.084  0.00  0.00    -0.157 N 
ATOM     33  N   UNL     1      40.067 -25.149 -14.098  0.00  0.00    -0.162 NA
ATOM     34  C   UNL     1      38.001 -25.989 -14.311  0.00  0.00    +0.077 C 
ATOM     35  C   UNL     1      38.779 -24.825 -14.245  0.00  0.00    +0.133 C 
ATOM     36  H   UNL     1      40.804 -27.038 -13.985  0.00  0.00    +0.197 HD
ENDBRANCH  30  34
ENDBRANCH  27  30
ENDBRANCH  26  27
ENDBRANCH  21  26
ENDBRANCH   5  20
TORSDOF 8
ENDMDL
