MODEL 1
REMARK VINA RESULT:     -11.5      0.000      0.000
REMARK  Name = 16720766
REMARK  7 active torsions:
REMARK  status: ('A' for Active; 'I' for Inactive)
REMARK    1  A    between atoms: N_1  and  C_10
REMARK    2  A    between atoms: C_11  and  C_17
REMARK    3  A    between atoms: C_13  and  O_15
REMARK    4  A    between atoms: C_17  and  O_18
REMARK    5  A    between atoms: O_18  and  S_19
REMARK    6  A    between atoms: S_19  and  N_22
REMARK    7  A    between atoms: N_25  and  C_27
REMARK                            x       y       z     vdW  Elec       q    Type
REMARK                         _______ _______ _______ _____ _____    ______ ____
ROOT
ATOM      1  N   UNL     1      34.088 -21.608 -19.163  0.00  0.00    -0.276 N 
ATOM      2  N   UNL     1      36.353 -20.827 -19.439  0.00  0.00    -0.233 NA
ATOM      3  N   UNL     1      36.529 -18.949 -20.977  0.00  0.00    -0.233 NA
ATOM      4  C   UNL     1      35.034 -20.777 -19.700  0.00  0.00    +0.120 C 
ATOM      5  C   UNL     1      32.852 -21.269 -19.652  0.00  0.00    +0.062 C 
ATOM      6  C   UNL     1      34.391 -19.887 -20.551  0.00  0.00    +0.131 C 
ATOM      7  C   UNL     1      33.009 -20.205 -20.514  0.00  0.00    +0.004 C 
ATOM      8  C   UNL     1      35.186 -18.936 -21.212  0.00  0.00    +0.113 C 
ATOM      9  C   UNL     1      37.019 -19.876 -20.123  0.00  0.00    +0.252 C 
ATOM     10  N   UNL     1      34.632 -18.007 -22.078  0.00  0.00    -0.319 N 
ATOM     11  H   UNL     1      33.658 -18.029 -22.221  0.00  0.00    +0.148 HD
ENDROOT
BRANCH  10  12
ATOM     12  C   UNL     1      35.400 -17.010 -22.783  0.00  0.00    +0.093 C 
ATOM     13  C   UNL     1      35.381 -17.271 -24.301  0.00  0.00    +0.029 C 
ATOM     14  C   UNL     1      34.726 -15.673 -22.710  0.00  0.00    -0.008 C 
ATOM     15  C   UNL     1      34.164 -16.521 -24.869  0.00  0.00    +0.028 C 
ATOM     16  C   UNL     1      34.033 -15.394 -23.894  0.00  0.00    -0.025 C 
ATOM     17  C   UNL     1      34.713 -14.781 -21.649  0.00  0.00    -0.003 C 
ATOM     18  C   UNL     1      33.308 -14.223 -24.039  0.00  0.00    -0.005 C 
ATOM     19  C   UNL     1      33.994 -13.593 -21.791  0.00  0.00    -0.000 C 
ATOM     20  C   UNL     1      33.295 -13.316 -22.978  0.00  0.00    -0.000 C 
ENDBRANCH  10  12
BRANCH   1  21
ATOM     21  C   UNL     1      34.342 -22.692 -18.218  0.00  0.00    +0.081 C 
ATOM     22  C   UNL     1      33.363 -22.936 -15.990  0.00  0.00    +0.061 C 
ATOM     23  C   UNL     1      33.088 -23.201 -17.475  0.00  0.00    +0.025 C 
ATOM     24  C   UNL     1      34.884 -23.056 -15.881  0.00  0.00    +0.115 C 
ATOM     25  C   UNL     1      35.370 -22.324 -17.129  0.00  0.00    +0.049 C 
BRANCH  24  26
ATOM     26  O   UNL     1      35.292 -24.417 -15.930  0.00  0.00    -0.384 OA
ATOM     27  H   UNL     1      34.510 -24.990 -15.891  0.00  0.00    +0.210 HD
ENDBRANCH  24  26
BRANCH  22  28
ATOM     28  C   UNL     1      32.587 -23.872 -15.075  0.00  0.00    +0.176 C 
BRANCH  28  29
ATOM     29  O   UNL     1      31.393 -24.263 -15.731  0.00  0.00    -0.230 OA
BRANCH  29  30
ATOM     30  S   UNL     1      29.966 -23.586 -15.299  0.00  0.00    +0.045 S 
ATOM     31  O   UNL     1      28.972 -24.638 -15.185  0.00  0.00    -0.056 OA
ATOM     32  O   UNL     1      30.226 -22.709 -14.172  0.00  0.00    -0.056 OA
BRANCH  30  33
ATOM     33  N   UNL     1      29.549 -22.601 -16.639  0.00  0.00    -0.204 NA
ATOM     34  H   UNL     1      30.399 -22.278 -17.100  0.00  0.00    +0.144 HD
ATOM     35  H   UNL     1      29.011 -21.798 -16.315  0.00  0.00    +0.144 HD
ENDBRANCH  30  33
ENDBRANCH  29  30
ENDBRANCH  28  29
ENDBRANCH  22  28
ENDBRANCH   1  21
TORSDOF 7
ENDMDL
MODEL 2
REMARK VINA RESULT:     -11.1      1.572      1.676
REMARK  Name = 16720766
REMARK  7 active torsions:
REMARK  status: ('A' for Active; 'I' for Inactive)
REMARK    1  A    between atoms: N_1  and  C_10
REMARK    2  A    between atoms: C_11  and  C_17
REMARK    3  A    between atoms: C_13  and  O_15
REMARK    4  A    between atoms: C_17  and  O_18
REMARK    5  A    between atoms: O_18  and  S_19
REMARK    6  A    between atoms: S_19  and  N_22
REMARK    7  A    between atoms: N_25  and  C_27
REMARK                            x       y       z     vdW  Elec       q    Type
REMARK                         _______ _______ _______ _____ _____    ______ ____
ROOT
ATOM      1  N   UNL     1      34.348 -21.453 -19.325  0.00  0.00    -0.276 N 
ATOM      2  N   UNL     1      36.564 -20.551 -19.624  0.00  0.00    -0.233 NA
ATOM      3  N   UNL     1      36.618 -18.649 -21.142  0.00  0.00    -0.233 NA
ATOM      4  C   UNL     1      35.240 -20.567 -19.865  0.00  0.00    +0.120 C 
ATOM      5  C   UNL     1      33.088 -21.175 -19.792  0.00  0.00    +0.062 C 
ATOM      6  C   UNL     1      34.539 -19.703 -20.696  0.00  0.00    +0.131 C 
ATOM      7  C   UNL     1      33.177 -20.094 -20.644  0.00  0.00    +0.004 C 
ATOM      8  C   UNL     1      35.273 -18.704 -21.357  0.00  0.00    +0.113 C 
ATOM      9  C   UNL     1      37.169 -19.558 -20.306  0.00  0.00    +0.252 C 
ATOM     10  N   UNL     1      34.658 -17.796 -22.204  0.00  0.00    -0.319 N 
ATOM     11  H   UNL     1      33.684 -17.868 -22.333  0.00  0.00    +0.148 HD
ENDROOT
BRANCH  10  12
ATOM     12  C   UNL     1      35.362 -16.752 -22.908  0.00  0.00    +0.093 C 
ATOM     13  C   UNL     1      35.287 -16.967 -24.431  0.00  0.00    +0.029 C 
ATOM     14  C   UNL     1      34.648 -15.441 -22.764  0.00  0.00    -0.008 C 
ATOM     15  C   UNL     1      34.022 -16.242 -24.924  0.00  0.00    +0.028 C 
ATOM     16  C   UNL     1      33.897 -15.150 -23.909  0.00  0.00    -0.025 C 
ATOM     17  C   UNL     1      34.651 -14.584 -21.675  0.00  0.00    -0.003 C 
ATOM     18  C   UNL     1      33.128 -14.001 -23.985  0.00  0.00    -0.005 C 
ATOM     19  C   UNL     1      33.888 -13.417 -21.749  0.00  0.00    -0.000 C 
ATOM     20  C   UNL     1      33.131 -13.128 -22.896  0.00  0.00    -0.000 C 
ENDBRANCH  10  12
BRANCH   1  21
ATOM     21  C   UNL     1      34.672 -22.532 -18.396  0.00  0.00    +0.081 C 
ATOM     22  C   UNL     1      33.539 -23.023 -16.285  0.00  0.00    +0.061 C 
ATOM     23  C   UNL     1      33.445 -23.254 -17.799  0.00  0.00    +0.025 C 
ATOM     24  C   UNL     1      35.044 -22.925 -16.031  0.00  0.00    +0.115 C 
ATOM     25  C   UNL     1      35.529 -22.072 -17.199  0.00  0.00    +0.049 C 
BRANCH  24  26
ATOM     26  O   UNL     1      35.653 -24.208 -16.085  0.00  0.00    -0.384 OA
ATOM     27  H   UNL     1      35.354 -24.741 -15.331  0.00  0.00    +0.210 HD
ENDBRANCH  24  26
BRANCH  22  28
ATOM     28  C   UNL     1      32.830 -24.105 -15.484  0.00  0.00    +0.176 C 
BRANCH  28  29
ATOM     29  O   UNL     1      33.643 -24.459 -14.378  0.00  0.00    -0.230 OA
BRANCH  29  30
ATOM     30  S   UNL     1      33.031 -24.398 -12.862  0.00  0.00    +0.045 S 
ATOM     31  O   UNL     1      32.015 -25.427 -12.733  0.00  0.00    -0.056 OA
ATOM     32  O   UNL     1      34.153 -24.366 -11.941  0.00  0.00    -0.056 OA
BRANCH  30  33
ATOM     33  N   UNL     1      32.254 -22.871 -12.787  0.00  0.00    -0.204 NA
ATOM     34  H   UNL     1      32.320 -22.502 -11.839  0.00  0.00    +0.144 HD
ATOM     35  H   UNL     1      31.273 -22.976 -13.043  0.00  0.00    +0.144 HD
ENDBRANCH  30  33
ENDBRANCH  29  30
ENDBRANCH  28  29
ENDBRANCH  22  28
ENDBRANCH   1  21
TORSDOF 7
ENDMDL
MODEL 3
REMARK VINA RESULT:     -10.9      8.130     11.635
REMARK  Name = 16720766
REMARK  7 active torsions:
REMARK  status: ('A' for Active; 'I' for Inactive)
REMARK    1  A    between atoms: N_1  and  C_10
REMARK    2  A    between atoms: C_11  and  C_17
REMARK    3  A    between atoms: C_13  and  O_15
REMARK    4  A    between atoms: C_17  and  O_18
REMARK    5  A    between atoms: O_18  and  S_19
REMARK    6  A    between atoms: S_19  and  N_22
REMARK    7  A    between atoms: N_25  and  C_27
REMARK                            x       y       z     vdW  Elec       q    Type
REMARK                         _______ _______ _______ _____ _____    ______ ____
ROOT
ATOM      1  N   UNL     1      32.869 -12.996 -21.821  0.00  0.00    -0.276 N 
ATOM      2  N   UNL     1      33.335 -14.081 -23.923  0.00  0.00    -0.233 NA
ATOM      3  N   UNL     1      34.364 -16.270 -23.655  0.00  0.00    -0.233 NA
ATOM      4  C   UNL     1      33.339 -14.034 -22.579  0.00  0.00    +0.120 C 
ATOM      5  C   UNL     1      33.033 -13.290 -20.491  0.00  0.00    +0.062 C 
ATOM      6  C   UNL     1      33.815 -15.014 -21.717  0.00  0.00    +0.131 C 
ATOM      7  C   UNL     1      33.617 -14.535 -20.397  0.00  0.00    +0.004 C 
ATOM      8  C   UNL     1      34.348 -16.179 -22.294  0.00  0.00    +0.113 C 
ATOM      9  C   UNL     1      33.866 -15.236 -24.370  0.00  0.00    +0.252 C 
ATOM     10  N   UNL     1      34.845 -17.210 -21.513  0.00  0.00    -0.319 N 
ATOM     11  H   UNL     1      34.815 -17.107 -20.535  0.00  0.00    +0.148 HD
ENDROOT
BRANCH  10  12
ATOM     12  C   UNL     1      35.403 -18.427 -22.052  0.00  0.00    +0.093 C 
ATOM     13  C   UNL     1      36.938 -18.339 -22.135  0.00  0.00    +0.029 C 
ATOM     14  C   UNL     1      35.228 -19.562 -21.089  0.00  0.00    -0.008 C 
ATOM     15  C   UNL     1      37.489 -18.856 -20.795  0.00  0.00    +0.028 C 
ATOM     16  C   UNL     1      36.412 -19.809 -20.383  0.00  0.00    -0.025 C 
ATOM     17  C   UNL     1      34.083 -20.304 -20.844  0.00  0.00    -0.003 C 
ATOM     18  C   UNL     1      36.473 -20.796 -19.414  0.00  0.00    -0.005 C 
ATOM     19  C   UNL     1      34.140 -21.309 -19.876  0.00  0.00    -0.000 C 
ATOM     20  C   UNL     1      35.326 -21.553 -19.166  0.00  0.00    -0.000 C 
ENDBRANCH  10  12
BRANCH   1  21
ATOM     21  C   UNL     1      32.282 -11.761 -22.335  0.00  0.00    +0.081 C 
ATOM     22  C   UNL     1      33.251  -9.520 -22.185  0.00  0.00    +0.061 C 
ATOM     23  C   UNL     1      33.289 -10.809 -23.016  0.00  0.00    +0.025 C 
ATOM     24  C   UNL     1      31.817  -9.479 -21.654  0.00  0.00    +0.115 C 
ATOM     25  C   UNL     1      31.564 -10.929 -21.253  0.00  0.00    +0.049 C 
BRANCH  24  26
ATOM     26  O   UNL     1      30.907  -9.096 -22.677  0.00  0.00    -0.384 OA
ATOM     27  H   UNL     1      30.123  -8.687 -22.276  0.00  0.00    +0.210 HD
ENDBRANCH  24  26
BRANCH  22  28
ATOM     28  C   UNL     1      33.665  -8.295 -22.987  0.00  0.00    +0.176 C 
BRANCH  28  29
ATOM     29  O   UNL     1      33.246  -7.133 -22.292  0.00  0.00    -0.230 OA
BRANCH  29  30
ATOM     30  S   UNL     1      32.428  -5.959 -23.085  0.00  0.00    +0.045 S 
ATOM     31  O   UNL     1      33.322  -5.344 -24.050  0.00  0.00    -0.056 OA
ATOM     32  O   UNL     1      31.168  -6.530 -23.525  0.00  0.00    -0.056 OA
BRANCH  30  33
ATOM     33  N   UNL     1      32.077  -4.801 -21.871  0.00  0.00    -0.204 NA
ATOM     34  H   UNL     1      32.180  -5.230 -20.952  0.00  0.00    +0.144 HD
ATOM     35  H   UNL     1      31.120  -4.468 -21.985  0.00  0.00    +0.144 HD
ENDBRANCH  30  33
ENDBRANCH  29  30
ENDBRANCH  28  29
ENDBRANCH  22  28
ENDBRANCH   1  21
TORSDOF 7
ENDMDL
MODEL 4
REMARK VINA RESULT:     -10.3      6.815     10.427
REMARK  Name = 16720766
REMARK  7 active torsions:
REMARK  status: ('A' for Active; 'I' for Inactive)
REMARK    1  A    between atoms: N_1  and  C_10
REMARK    2  A    between atoms: C_11  and  C_17
REMARK    3  A    between atoms: C_13  and  O_15
REMARK    4  A    between atoms: C_17  and  O_18
REMARK    5  A    between atoms: O_18  and  S_19
REMARK    6  A    between atoms: S_19  and  N_22
REMARK    7  A    between atoms: N_25  and  C_27
REMARK                            x       y       z     vdW  Elec       q    Type
REMARK                         _______ _______ _______ _____ _____    ______ ____
ROOT
ATOM      1  N   UNL     1      34.690 -15.668 -22.403  0.00  0.00    -0.276 N 
ATOM      2  N   UNL     1      35.066 -17.566 -23.841  0.00  0.00    -0.233 NA
ATOM      3  N   UNL     1      35.259 -19.662 -22.618  0.00  0.00    -0.233 NA
ATOM      4  C   UNL     1      34.892 -17.002 -22.633  0.00  0.00    +0.120 C 
ATOM      5  C   UNL     1      34.554 -15.452 -21.055  0.00  0.00    +0.062 C 
ATOM      6  C   UNL     1      34.886 -17.655 -21.406  0.00  0.00    +0.131 C 
ATOM      7  C   UNL     1      34.671 -16.666 -20.413  0.00  0.00    +0.004 C 
ATOM      8  C   UNL     1      35.078 -19.046 -21.415  0.00  0.00    +0.113 C 
ATOM      9  C   UNL     1      35.242 -18.898 -23.734  0.00  0.00    +0.252 C 
ATOM     10  N   UNL     1      35.086 -19.782 -20.240  0.00  0.00    -0.319 N 
ATOM     11  H   UNL     1      34.951 -19.302 -19.391  0.00  0.00    +0.148 HD
ENDROOT
BRANCH  10  12
ATOM     12  C   UNL     1      35.279 -21.211 -20.190  0.00  0.00    +0.093 C 
ATOM     13  C   UNL     1      36.748 -21.558 -19.882  0.00  0.00    +0.029 C 
ATOM     14  C   UNL     1      34.586 -21.797 -18.997  0.00  0.00    -0.008 C 
ATOM     15  C   UNL     1      36.878 -21.636 -18.351  0.00  0.00    +0.028 C 
ATOM     16  C   UNL     1      35.494 -22.045 -17.960  0.00  0.00    -0.025 C 
ATOM     17  C   UNL     1      33.235 -22.067 -18.843  0.00  0.00    -0.003 C 
ATOM     18  C   UNL     1      35.069 -22.558 -16.746  0.00  0.00    -0.005 C 
ATOM     19  C   UNL     1      32.800 -22.596 -17.626  0.00  0.00    -0.000 C 
ATOM     20  C   UNL     1      33.711 -22.839 -16.585  0.00  0.00    -0.000 C 
ENDBRANCH  10  12
BRANCH   1  21
ATOM     21  C   UNL     1      34.628 -14.625 -23.424  0.00  0.00    +0.081 C 
ATOM     22  C   UNL     1      33.286 -12.582 -23.337  0.00  0.00    +0.061 C 
ATOM     23  C   UNL     1      34.617 -13.185 -22.869  0.00  0.00    +0.025 C 
ATOM     24  C   UNL     1      33.013 -13.301 -24.659  0.00  0.00    +0.115 C 
ATOM     25  C   UNL     1      33.396 -14.744 -24.345  0.00  0.00    +0.049 C 
BRANCH  24  26
ATOM     26  O   UNL     1      33.847 -12.795 -25.694  0.00  0.00    -0.384 OA
ATOM     27  H   UNL     1      33.527 -11.921 -25.968  0.00  0.00    +0.210 HD
ENDBRANCH  24  26
BRANCH  22  28
ATOM     28  C   UNL     1      33.334 -11.066 -23.438  0.00  0.00    +0.176 C 
BRANCH  28  29
ATOM     29  O   UNL     1      32.567 -10.514 -22.382  0.00  0.00    -0.230 OA
BRANCH  29  30
ATOM     30  S   UNL     1      32.440  -8.889 -22.228  0.00  0.00    +0.045 S 
ATOM     31  O   UNL     1      33.674  -8.284 -22.697  0.00  0.00    -0.056 OA
ATOM     32  O   UNL     1      31.171  -8.496 -22.813  0.00  0.00    -0.056 OA
BRANCH  30  33
ATOM     33  N   UNL     1      32.333  -8.637 -20.536  0.00  0.00    -0.204 NA
ATOM     34  H   UNL     1      31.819  -7.775 -20.352  0.00  0.00    +0.144 HD
ATOM     35  H   UNL     1      33.271  -8.563 -20.143  0.00  0.00    +0.144 HD
ENDBRANCH  30  33
ENDBRANCH  29  30
ENDBRANCH  28  29
ENDBRANCH  22  28
ENDBRANCH   1  21
TORSDOF 7
ENDMDL
MODEL 5
REMARK VINA RESULT:     -10.2      5.667      9.078
REMARK  Name = 16720766
REMARK  7 active torsions:
REMARK  status: ('A' for Active; 'I' for Inactive)
REMARK    1  A    between atoms: N_1  and  C_10
REMARK    2  A    between atoms: C_11  and  C_17
REMARK    3  A    between atoms: C_13  and  O_15
REMARK    4  A    between atoms: C_17  and  O_18
REMARK    5  A    between atoms: O_18  and  S_19
REMARK    6  A    between atoms: S_19  and  N_22
REMARK    7  A    between atoms: N_25  and  C_27
REMARK                            x       y       z     vdW  Elec       q    Type
REMARK                         _______ _______ _______ _____ _____    ______ ____
ROOT
ATOM      1  N   UNL     1      33.608 -13.874 -23.182  0.00  0.00    -0.276 N 
ATOM      2  N   UNL     1      32.223 -13.712 -21.215  0.00  0.00    -0.233 NA
ATOM      3  N   UNL     1      31.620 -11.420 -20.663  0.00  0.00    -0.233 NA
ATOM      4  C   UNL     1      32.892 -13.173 -22.250  0.00  0.00    +0.120 C 
ATOM      5  C   UNL     1      34.156 -13.001 -24.088  0.00  0.00    +0.062 C 
ATOM      6  C   UNL     1      32.983 -11.822 -22.564  0.00  0.00    +0.131 C 
ATOM      7  C   UNL     1      33.784 -11.723 -23.730  0.00  0.00    +0.004 C 
ATOM      8  C   UNL     1      32.311 -10.918 -21.725  0.00  0.00    +0.113 C 
ATOM      9  C   UNL     1      31.619 -12.759 -20.478  0.00  0.00    +0.252 C 
ATOM     10  N   UNL     1      32.344  -9.552 -21.962  0.00  0.00    -0.319 N 
ATOM     11  H   UNL     1      32.854  -9.228 -22.740  0.00  0.00    +0.148 HD
ENDROOT
BRANCH  10  12
ATOM     12  C   UNL     1      31.675  -8.578 -21.134  0.00  0.00    +0.093 C 
ATOM     13  C   UNL     1      32.556  -8.173 -19.938  0.00  0.00    +0.029 C 
ATOM     14  C   UNL     1      31.544  -7.271 -21.855  0.00  0.00    -0.008 C 
ATOM     15  C   UNL     1      33.410  -6.978 -20.396  0.00  0.00    +0.028 C 
ATOM     16  C   UNL     1      32.522  -6.363 -21.431  0.00  0.00    -0.025 C 
ATOM     17  C   UNL     1      30.631  -6.927 -22.840  0.00  0.00    -0.003 C 
ATOM     18  C   UNL     1      32.611  -5.098 -21.986  0.00  0.00    -0.005 C 
ATOM     19  C   UNL     1      30.706  -5.649 -23.396  0.00  0.00    -0.000 C 
ATOM     20  C   UNL     1      31.691  -4.741 -22.973  0.00  0.00    -0.000 C 
ENDBRANCH  10  12
BRANCH   1  21
ATOM     21  C   UNL     1      33.773 -15.324 -23.218  0.00  0.00    +0.081 C 
ATOM     22  C   UNL     1      35.689 -16.591 -22.376  0.00  0.00    +0.061 C 
ATOM     23  C   UNL     1      34.376 -15.932 -21.933  0.00  0.00    +0.025 C 
ATOM     24  C   UNL     1      35.408 -17.013 -23.819  0.00  0.00    +0.115 C 
ATOM     25  C   UNL     1      34.658 -15.810 -24.383  0.00  0.00    +0.049 C 
BRANCH  24  26
ATOM     26  O   UNL     1      34.573 -18.164 -23.858  0.00  0.00    -0.384 OA
ATOM     27  H   UNL     1      35.013 -18.865 -24.364  0.00  0.00    +0.210 HD
ENDBRANCH  24  26
BRANCH  22  28
ATOM     28  C   UNL     1      36.115 -17.724 -21.455  0.00  0.00    +0.176 C 
BRANCH  28  29
ATOM     29  O   UNL     1      34.963 -18.251 -20.818  0.00  0.00    -0.230 OA
BRANCH  29  30
ATOM     30  S   UNL     1      34.668 -19.860 -20.868  0.00  0.00    +0.045 S 
ATOM     31  O   UNL     1      33.391 -20.115 -20.226  0.00  0.00    -0.056 OA
ATOM     32  O   UNL     1      34.896 -20.301 -22.232  0.00  0.00    -0.056 OA
BRANCH  30  33
ATOM     33  N   UNL     1      35.901 -20.540 -19.889  0.00  0.00    -0.204 NA
ATOM     34  H   UNL     1      36.788 -20.080 -20.092  0.00  0.00    +0.144 HD
ATOM     35  H   UNL     1      35.982 -21.537 -20.089  0.00  0.00    +0.144 HD
ENDBRANCH  30  33
ENDBRANCH  29  30
ENDBRANCH  28  29
ENDBRANCH  22  28
ENDBRANCH   1  21
TORSDOF 7
ENDMDL
MODEL 6
REMARK VINA RESULT:      -9.8      3.024      3.869
REMARK  Name = 16720766
REMARK  7 active torsions:
REMARK  status: ('A' for Active; 'I' for Inactive)
REMARK    1  A    between atoms: N_1  and  C_10
REMARK    2  A    between atoms: C_11  and  C_17
REMARK    3  A    between atoms: C_13  and  O_15
REMARK    4  A    between atoms: C_17  and  O_18
REMARK    5  A    between atoms: O_18  and  S_19
REMARK    6  A    between atoms: S_19  and  N_22
REMARK    7  A    between atoms: N_25  and  C_27
REMARK                            x       y       z     vdW  Elec       q    Type
REMARK                         _______ _______ _______ _____ _____    ______ ____
ROOT
ATOM      1  N   UNL     1      33.783 -22.542 -17.509  0.00  0.00    -0.276 N 
ATOM      2  N   UNL     1      36.139 -22.107 -17.779  0.00  0.00    -0.233 NA
ATOM      3  N   UNL     1      36.632 -20.709 -19.709  0.00  0.00    -0.233 NA
ATOM      4  C   UNL     1      34.853 -21.981 -18.152  0.00  0.00    +0.120 C 
ATOM      5  C   UNL     1      32.627 -22.205 -18.166  0.00  0.00    +0.062 C 
ATOM      6  C   UNL     1      34.373 -21.270 -19.245  0.00  0.00    +0.131 C 
ATOM      7  C   UNL     1      32.962 -21.417 -19.246  0.00  0.00    +0.004 C 
ATOM      8  C   UNL     1      35.315 -20.609 -20.050  0.00  0.00    +0.113 C 
ATOM      9  C   UNL     1      36.955 -21.438 -18.617  0.00  0.00    +0.252 C 
ATOM     10  N   UNL     1      34.929 -19.874 -21.160  0.00  0.00    -0.319 N 
ATOM     11  H   UNL     1      33.969 -19.825 -21.372  0.00  0.00    +0.148 HD
ENDROOT
BRANCH  10  12
ATOM     12  C   UNL     1      35.853 -19.177 -22.021  0.00  0.00    +0.093 C 
ATOM     13  C   UNL     1      35.858 -19.788 -23.434  0.00  0.00    +0.029 C 
ATOM     14  C   UNL     1      35.365 -17.788 -22.307  0.00  0.00    -0.008 C 
ATOM     15  C   UNL     1      34.777 -19.052 -24.245  0.00  0.00    +0.028 C 
ATOM     16  C   UNL     1      34.764 -17.717 -23.569  0.00  0.00    -0.025 C 
ATOM     17  C   UNL     1      35.432 -16.674 -21.485  0.00  0.00    -0.003 C 
ATOM     18  C   UNL     1      34.211 -16.535 -24.032  0.00  0.00    -0.005 C 
ATOM     19  C   UNL     1      34.888 -15.475 -21.949  0.00  0.00    -0.000 C 
ATOM     20  C   UNL     1      34.281 -15.406 -23.213  0.00  0.00    -0.000 C 
ENDBRANCH  10  12
BRANCH   1  21
ATOM     21  C   UNL     1      33.848 -23.374 -16.310  0.00  0.00    +0.081 C 
ATOM     22  C   UNL     1      35.596 -23.325 -14.600  0.00  0.00    +0.061 C 
ATOM     23  C   UNL     1      34.302 -22.627 -15.037  0.00  0.00    +0.025 C 
ATOM     24  C   UNL     1      35.403 -24.766 -15.074  0.00  0.00    +0.115 C 
ATOM     25  C   UNL     1      34.788 -24.588 -16.458  0.00  0.00    +0.049 C 
BRANCH  24  26
ATOM     26  O   UNL     1      34.496 -25.462 -14.228  0.00  0.00    -0.384 OA
ATOM     27  H   UNL     1      34.392 -24.974 -13.395  0.00  0.00    +0.210 HD
ENDBRANCH  24  26
BRANCH  22  28
ATOM     28  C   UNL     1      35.866 -23.178 -13.110  0.00  0.00    +0.176 C 
BRANCH  28  29
ATOM     29  O   UNL     1      36.715 -24.234 -12.695  0.00  0.00    -0.230 OA
BRANCH  29  30
ATOM     30  S   UNL     1      36.419 -25.012 -11.286  0.00  0.00    +0.045 S 
ATOM     31  O   UNL     1      37.257 -24.430 -10.252  0.00  0.00    -0.056 OA
ATOM     32  O   UNL     1      34.979 -25.059 -11.111  0.00  0.00    -0.056 OA
BRANCH  30  33
ATOM     33  N   UNL     1      36.961 -26.613 -11.571  0.00  0.00    -0.204 NA
ATOM     34  H   UNL     1      37.978 -26.644 -11.507  0.00  0.00    +0.144 HD
ATOM     35  H   UNL     1      36.670 -26.909 -12.503  0.00  0.00    +0.144 HD
ENDBRANCH  30  33
ENDBRANCH  29  30
ENDBRANCH  28  29
ENDBRANCH  22  28
ENDBRANCH   1  21
TORSDOF 7
ENDMDL
MODEL 7
REMARK VINA RESULT:      -9.7      5.383      9.733
REMARK  Name = 16720766
REMARK  7 active torsions:
REMARK  status: ('A' for Active; 'I' for Inactive)
REMARK    1  A    between atoms: N_1  and  C_10
REMARK    2  A    between atoms: C_11  and  C_17
REMARK    3  A    between atoms: C_13  and  O_15
REMARK    4  A    between atoms: C_17  and  O_18
REMARK    5  A    between atoms: O_18  and  S_19
REMARK    6  A    between atoms: S_19  and  N_22
REMARK    7  A    between atoms: N_25  and  C_27
REMARK                            x       y       z     vdW  Elec       q    Type
REMARK                         _______ _______ _______ _____ _____    ______ ____
ROOT
ATOM      1  N   UNL     1      34.377 -19.786 -20.698  0.00  0.00    -0.276 N 
ATOM      2  N   UNL     1      36.195 -20.749 -19.441  0.00  0.00    -0.233 NA
ATOM      3  N   UNL     1      35.463 -22.461 -17.873  0.00  0.00    -0.233 NA
ATOM      4  C   UNL     1      34.894 -20.643 -19.765  0.00  0.00    +0.120 C 
ATOM      5  C   UNL     1      33.016 -19.948 -20.764  0.00  0.00    +0.062 C 
ATOM      6  C   UNL     1      33.842 -21.370 -19.220  0.00  0.00    +0.131 C 
ATOM      7  C   UNL     1      32.657 -20.925 -19.860  0.00  0.00    +0.004 C 
ATOM      8  C   UNL     1      34.156 -22.318 -18.232  0.00  0.00    +0.113 C 
ATOM      9  C   UNL     1      36.383 -21.683 -18.487  0.00  0.00    +0.252 C 
ATOM     10  N   UNL     1      33.173 -23.091 -17.634  0.00  0.00    -0.319 N 
ATOM     11  H   UNL     1      32.240 -22.959 -17.922  0.00  0.00    +0.148 HD
ENDROOT
BRANCH  10  12
ATOM     12  C   UNL     1      33.438 -24.077 -16.615  0.00  0.00    +0.093 C 
ATOM     13  C   UNL     1      34.700 -23.714 -15.811  0.00  0.00    +0.029 C 
ATOM     14  C   UNL     1      32.388 -24.029 -15.546  0.00  0.00    -0.008 C 
ATOM     15  C   UNL     1      34.242 -22.836 -14.633  0.00  0.00    +0.028 C 
ATOM     16  C   UNL     1      32.848 -23.333 -14.421  0.00  0.00    -0.025 C 
ATOM     17  C   UNL     1      31.104 -24.550 -15.588  0.00  0.00    -0.003 C 
ATOM     18  C   UNL     1      32.031 -23.136 -13.321  0.00  0.00    -0.005 C 
ATOM     19  C   UNL     1      30.279 -24.366 -14.477  0.00  0.00    -0.000 C 
ATOM     20  C   UNL     1      30.739 -23.664 -13.351  0.00  0.00    -0.000 C 
ENDBRANCH  10  12
BRANCH   1  21
ATOM     21  C   UNL     1      35.143 -18.838 -21.504  0.00  0.00    +0.081 C 
ATOM     22  C   UNL     1      34.499 -16.544 -22.054  0.00  0.00    +0.061 C 
ATOM     23  C   UNL     1      35.153 -17.394 -20.958  0.00  0.00    +0.025 C 
ATOM     24  C   UNL     1      34.862 -17.282 -23.344  0.00  0.00    +0.115 C 
ATOM     25  C   UNL     1      34.657 -18.746 -22.965  0.00  0.00    +0.049 C 
BRANCH  24  26
ATOM     26  O   UNL     1      36.223 -17.060 -23.691  0.00  0.00    -0.384 OA
ATOM     27  H   UNL     1      36.395 -16.106 -23.728  0.00  0.00    +0.210 HD
ENDBRANCH  24  26
BRANCH  22  28
ATOM     28  C   UNL     1      34.943 -15.090 -22.010  0.00  0.00    +0.176 C 
BRANCH  28  29
ATOM     29  O   UNL     1      34.895 -14.559 -23.324  0.00  0.00    -0.230 OA
BRANCH  29  30
ATOM     30  S   UNL     1      33.626 -13.633 -23.783  0.00  0.00    +0.045 S 
ATOM     31  O   UNL     1      33.144 -14.114 -25.065  0.00  0.00    -0.056 OA
ATOM     32  O   UNL     1      32.720 -13.548 -22.652  0.00  0.00    -0.056 OA
BRANCH  30  33
ATOM     33  N   UNL     1      34.308 -12.078 -24.020  0.00  0.00    -0.204 NA
ATOM     34  H   UNL     1      35.031 -12.130 -24.738  0.00  0.00    +0.144 HD
ATOM     35  H   UNL     1      34.720 -11.751 -23.146  0.00  0.00    +0.144 HD
ENDBRANCH  30  33
ENDBRANCH  29  30
ENDBRANCH  28  29
ENDBRANCH  22  28
ENDBRANCH   1  21
TORSDOF 7
ENDMDL
MODEL 8
REMARK VINA RESULT:      -9.2      5.204     10.192
REMARK  Name = 16720766
REMARK  7 active torsions:
REMARK  status: ('A' for Active; 'I' for Inactive)
REMARK    1  A    between atoms: N_1  and  C_10
REMARK    2  A    between atoms: C_11  and  C_17
REMARK    3  A    between atoms: C_13  and  O_15
REMARK    4  A    between atoms: C_17  and  O_18
REMARK    5  A    between atoms: O_18  and  S_19
REMARK    6  A    between atoms: S_19  and  N_22
REMARK    7  A    between atoms: N_25  and  C_27
REMARK                            x       y       z     vdW  Elec       q    Type
REMARK                         _______ _______ _______ _____ _____    ______ ____
ROOT
ATOM      1  N   UNL     1      36.050 -20.959 -19.424  0.00  0.00    -0.276 N 
ATOM      2  N   UNL     1      34.057 -22.242 -18.980  0.00  0.00    -0.233 NA
ATOM      3  N   UNL     1      34.129 -23.398 -16.840  0.00  0.00    -0.233 NA
ATOM      4  C   UNL     1      35.280 -21.788 -18.654  0.00  0.00    +0.120 C 
ATOM      5  C   UNL     1      37.233 -20.704 -18.780  0.00  0.00    +0.062 C 
ATOM      6  C   UNL     1      35.986 -22.071 -17.490  0.00  0.00    +0.131 C 
ATOM      7  C   UNL     1      37.221 -21.380 -17.579  0.00  0.00    +0.004 C 
ATOM      8  C   UNL     1      35.370 -22.914 -16.551  0.00  0.00    +0.113 C 
ATOM      9  C   UNL     1      33.561 -23.039 -18.013  0.00  0.00    +0.252 C 
ATOM     10  N   UNL     1      35.998 -23.250 -15.361  0.00  0.00    -0.319 N 
ATOM     11  H   UNL     1      36.894 -22.880 -15.189  0.00  0.00    +0.148 HD
ENDROOT
BRANCH  10  12
ATOM     12  C   UNL     1      35.414 -24.111 -14.362  0.00  0.00    +0.093 C 
ATOM     13  C   UNL     1      35.371 -25.572 -14.849  0.00  0.00    +0.029 C 
ATOM     14  C   UNL     1      36.316 -24.228 -13.171  0.00  0.00    -0.008 C 
ATOM     15  C   UNL     1      36.698 -26.224 -14.422  0.00  0.00    +0.028 C 
ATOM     16  C   UNL     1      37.036 -25.429 -13.202  0.00  0.00    -0.025 C 
ATOM     17  C   UNL     1      36.498 -23.314 -12.145  0.00  0.00    -0.003 C 
ATOM     18  C   UNL     1      37.958 -25.735 -12.215  0.00  0.00    -0.005 C 
ATOM     19  C   UNL     1      37.416 -23.621 -11.139  0.00  0.00    -0.000 C 
ATOM     20  C   UNL     1      38.142 -24.822 -11.174  0.00  0.00    -0.000 C 
ENDBRANCH  10  12
BRANCH   1  21
ATOM     21  C   UNL     1      35.680 -20.423 -20.732  0.00  0.00    +0.081 C 
ATOM     22  C   UNL     1      35.317 -18.070 -21.288  0.00  0.00    +0.061 C 
ATOM     23  C   UNL     1      36.418 -19.125 -21.123  0.00  0.00    +0.025 C 
ATOM     24  C   UNL     1      34.108 -18.884 -21.753  0.00  0.00    +0.115 C 
ATOM     25  C   UNL     1      34.174 -20.123 -20.866  0.00  0.00    +0.049 C 
BRANCH  24  26
ATOM     26  O   UNL     1      34.243 -19.260 -23.118  0.00  0.00    -0.384 OA
ATOM     27  H   UNL     1      34.300 -18.463 -23.669  0.00  0.00    +0.210 HD
ENDBRANCH  24  26
BRANCH  22  28
ATOM     28  C   UNL     1      35.722 -16.943 -22.227  0.00  0.00    +0.176 C 
BRANCH  28  29
ATOM     29  O   UNL     1      35.213 -15.722 -21.719  0.00  0.00    -0.230 OA
BRANCH  29  30
ATOM     30  S   UNL     1      34.068 -14.904 -22.556  0.00  0.00    +0.045 S 
ATOM     31  O   UNL     1      33.866 -15.569 -23.831  0.00  0.00    -0.056 OA
ATOM     32  O   UNL     1      32.944 -14.695 -21.661  0.00  0.00    -0.056 OA
BRANCH  30  33
ATOM     33  N   UNL     1      34.783 -13.376 -22.859  0.00  0.00    -0.204 NA
ATOM     34  H   UNL     1      34.486 -13.037 -23.773  0.00  0.00    +0.144 HD
ATOM     35  H   UNL     1      35.799 -13.468 -22.844  0.00  0.00    +0.144 HD
ENDBRANCH  30  33
ENDBRANCH  29  30
ENDBRANCH  28  29
ENDBRANCH  22  28
ENDBRANCH   1  21
TORSDOF 7
ENDMDL
MODEL 9
REMARK VINA RESULT:      -8.9      3.853      6.733
REMARK  Name = 16720766
REMARK  7 active torsions:
REMARK  status: ('A' for Active; 'I' for Inactive)
REMARK    1  A    between atoms: N_1  and  C_10
REMARK    2  A    between atoms: C_11  and  C_17
REMARK    3  A    between atoms: C_13  and  O_15
REMARK    4  A    between atoms: C_17  and  O_18
REMARK    5  A    between atoms: O_18  and  S_19
REMARK    6  A    between atoms: S_19  and  N_22
REMARK    7  A    between atoms: N_25  and  C_27
REMARK                            x       y       z     vdW  Elec       q    Type
REMARK                         _______ _______ _______ _____ _____    ______ ____
ROOT
ATOM      1  N   UNL     1      34.699 -15.943 -21.824  0.00  0.00    -0.276 N 
ATOM      2  N   UNL     1      34.184 -15.215 -24.064  0.00  0.00    -0.233 NA
ATOM      3  N   UNL     1      33.247 -12.970 -24.141  0.00  0.00    -0.233 NA
ATOM      4  C   UNL     1      34.235 -15.031 -22.733  0.00  0.00    +0.120 C 
ATOM      5  C   UNL     1      34.602 -15.420 -20.560  0.00  0.00    +0.062 C 
ATOM      6  C   UNL     1      33.831 -13.898 -22.036  0.00  0.00    +0.131 C 
ATOM      7  C   UNL     1      34.068 -14.153 -20.661  0.00  0.00    +0.004 C 
ATOM      8  C   UNL     1      33.317 -12.828 -22.787  0.00  0.00    +0.113 C 
ATOM      9  C   UNL     1      33.676 -14.131 -24.684  0.00  0.00    +0.252 C 
ATOM     10  N   UNL     1      32.892 -11.658 -22.178  0.00  0.00    -0.319 N 
ATOM     11  H   UNL     1      32.959 -11.593 -21.198  0.00  0.00    +0.148 HD
ENDROOT
BRANCH  10  12
ATOM     12  C   UNL     1      32.355 -10.529 -22.899  0.00  0.00    +0.093 C 
ATOM     13  C   UNL     1      31.295  -9.792 -22.059  0.00  0.00    +0.029 C 
ATOM     14  C   UNL     1      33.394  -9.460 -23.057  0.00  0.00    -0.008 C 
ATOM     15  C   UNL     1      32.037  -8.725 -21.236  0.00  0.00    +0.028 C 
ATOM     16  C   UNL     1      33.208  -8.435 -22.120  0.00  0.00    -0.025 C 
ATOM     17  C   UNL     1      34.446  -9.419 -23.959  0.00  0.00    -0.003 C 
ATOM     18  C   UNL     1      34.073  -7.356 -22.060  0.00  0.00    -0.005 C 
ATOM     19  C   UNL     1      35.316  -8.328 -23.913  0.00  0.00    -0.000 C 
ATOM     20  C   UNL     1      35.131  -7.304 -22.970  0.00  0.00    -0.000 C 
ENDBRANCH  10  12
BRANCH   1  21
ATOM     21  C   UNL     1      35.218 -17.272 -22.138  0.00  0.00    +0.081 C 
ATOM     22  C   UNL     1      35.025 -19.274 -20.746  0.00  0.00    +0.061 C 
ATOM     23  C   UNL     1      34.265 -18.433 -21.779  0.00  0.00    +0.025 C 
ATOM     24  C   UNL     1      36.492 -19.075 -21.131  0.00  0.00    +0.115 C 
ATOM     25  C   UNL     1      36.560 -17.583 -21.444  0.00  0.00    +0.049 C 
BRANCH  24  26
ATOM     26  O   UNL     1      36.818 -19.827 -22.294  0.00  0.00    -0.384 OA
ATOM     27  H   UNL     1      37.652 -20.302 -22.148  0.00  0.00    +0.210 HD
ENDBRANCH  24  26
BRANCH  22  28
ATOM     28  C   UNL     1      34.567 -20.724 -20.721  0.00  0.00    +0.176 C 
BRANCH  28  29
ATOM     29  O   UNL     1      35.111 -21.354 -19.574  0.00  0.00    -0.230 OA
BRANCH  29  30
ATOM     30  S   UNL     1      34.198 -22.402 -18.709  0.00  0.00    +0.045 S 
ATOM     31  O   UNL     1      34.004 -23.606 -19.498  0.00  0.00    -0.056 OA
ATOM     32  O   UNL     1      34.778 -22.490 -17.381  0.00  0.00    -0.056 OA
BRANCH  30  33
ATOM     33  N   UNL     1      32.683 -21.612 -18.563  0.00  0.00    -0.204 NA
ATOM     34  H   UNL     1      31.933 -22.299 -18.634  0.00  0.00    +0.144 HD
ATOM     35  H   UNL     1      32.586 -20.924 -19.309  0.00  0.00    +0.144 HD
ENDBRANCH  30  33
ENDBRANCH  29  30
ENDBRANCH  28  29
ENDBRANCH  22  28
ENDBRANCH   1  21
TORSDOF 7
ENDMDL
