MODEL 1
REMARK VINA RESULT:     -12.1      0.000      0.000
REMARK  Name = 25151352
REMARK  5 active torsions:
REMARK  status: ('A' for Active; 'I' for Inactive)
REMARK    1  A    between atoms: N_1  and  C_21
REMARK    2  A    between atoms: C_3  and  C_9
REMARK    3  A    between atoms: C_9  and  C_13
REMARK    4  A    between atoms: C_21  and  C_23
REMARK    5  A    between atoms: C_27  and  C_31
REMARK                            x       y       z     vdW  Elec       q    Type
REMARK                         _______ _______ _______ _____ _____    ______ ____
ROOT
ATOM      1  N   UNL     1      35.118 -22.194 -18.794  0.00  0.00    -0.314 N 
ATOM      2  N   UNL     1      36.562 -20.540 -19.722  0.00  0.00    -0.230 NA
ATOM      3  C   UNL     1      35.689 -18.973 -21.342  0.00  0.00    +0.002 C 
ATOM      4  C   UNL     1      34.435 -19.567 -21.251  0.00  0.00    +0.000 C 
ATOM      5  C   UNL     1      36.710 -19.492 -20.563  0.00  0.00    +0.096 C 
ATOM      6  C   UNL     1      35.330 -21.092 -19.661  0.00  0.00    +0.129 C 
ATOM      7  C   UNL     1      34.243 -20.647 -20.397  0.00  0.00    +0.034 C 
ATOM      8  H   UNL     1      35.875 -22.527 -18.262  0.00  0.00    +0.149 HD
ENDROOT
BRANCH   3   9
ATOM      9  C   UNL     1      35.929 -17.788 -22.266  0.00  0.00    +0.056 C 
BRANCH   9  13
ATOM     10 CL   UNL     1      33.638 -14.466 -26.624  0.00  0.00    -0.081 Cl
ATOM     11  N   UNL     1      33.945 -15.041 -20.890  0.00  0.00    -0.297 N 
ATOM     12  N   UNL     1      33.064 -13.760 -22.730  0.00  0.00    -0.228 NA
ATOM     13  C   UNL     1      35.083 -16.611 -21.982  0.00  0.00    -0.000 C 
ATOM     14  C   UNL     1      34.486 -15.748 -22.938  0.00  0.00    +0.030 C 
ATOM     15  C   UNL     1      33.783 -14.781 -22.226  0.00  0.00    +0.132 C 
ATOM     16  C   UNL     1      34.733 -16.151 -20.730  0.00  0.00    +0.059 C 
ATOM     17  C   UNL     1      34.455 -15.668 -24.340  0.00  0.00    +0.015 C 
ATOM     18  C   UNL     1      33.724 -14.630 -24.916  0.00  0.00    +0.077 C 
ATOM     19  C   UNL     1      33.070 -13.732 -24.084  0.00  0.00    +0.112 C 
ATOM     20  H   UNL     1      33.554 -14.513 -20.158  0.00  0.00    +0.154 HD
ENDBRANCH   9  13
ENDBRANCH   3   9
BRANCH   1  21
ATOM     21  C   UNL     1      33.853 -22.838 -18.664  0.00  0.00    +0.117 C 
BRANCH  21  23
ATOM     22  N   UNL     1      34.356 -23.712 -15.018  0.00  0.00    -0.240 NA
ATOM     23  C   UNL     1      33.551 -23.119 -17.219  0.00  0.00    +0.017 C 
ATOM     24  C   UNL     1      32.249 -23.056 -16.733  0.00  0.00    +0.000 C 
ATOM     25  C   UNL     1      34.559 -23.448 -16.328  0.00  0.00    +0.096 C 
ATOM     26  C   UNL     1      32.000 -23.322 -15.390  0.00  0.00    +0.023 C 
ATOM     27  C   UNL     1      33.079 -23.642 -14.582  0.00  0.00    +0.153 C 
BRANCH  27  31
ATOM     28  F   UNL     1      33.986 -23.893 -12.383  0.00  0.00    -0.164 F 
ATOM     29  F   UNL     1      31.990 -23.057 -12.533  0.00  0.00    -0.164 F 
ATOM     30  F   UNL     1      32.314 -25.171 -12.929  0.00  0.00    -0.164 F 
ATOM     31  C   UNL     1      32.848 -23.932 -13.136  0.00  0.00    +0.435 C 
ENDBRANCH  27  31
ENDBRANCH  21  23
ENDBRANCH   1  21
TORSDOF 5
ENDMDL
MODEL 2
REMARK VINA RESULT:     -11.7      6.274     10.784
REMARK  Name = 25151352
REMARK  5 active torsions:
REMARK  status: ('A' for Active; 'I' for Inactive)
REMARK    1  A    between atoms: N_1  and  C_21
REMARK    2  A    between atoms: C_3  and  C_9
REMARK    3  A    between atoms: C_9  and  C_13
REMARK    4  A    between atoms: C_21  and  C_23
REMARK    5  A    between atoms: C_27  and  C_31
REMARK                            x       y       z     vdW  Elec       q    Type
REMARK                         _______ _______ _______ _____ _____    ______ ____
ROOT
ATOM      1  N   UNL     1      34.159 -18.530 -21.440  0.00  0.00    -0.314 N 
ATOM      2  N   UNL     1      33.135 -20.220 -20.108  0.00  0.00    -0.230 NA
ATOM      3  C   UNL     1      34.496 -21.990 -19.180  0.00  0.00    +0.002 C 
ATOM      4  C   UNL     1      35.629 -21.437 -19.769  0.00  0.00    +0.000 C 
ATOM      5  C   UNL     1      33.284 -21.349 -19.378  0.00  0.00    +0.096 C 
ATOM      6  C   UNL     1      34.258 -19.713 -20.665  0.00  0.00    +0.129 C 
ATOM      7  C   UNL     1      35.516 -20.278 -20.527  0.00  0.00    +0.034 C 
ATOM      8  H   UNL     1      33.276 -18.112 -21.552  0.00  0.00    +0.149 HD
ENDROOT
BRANCH   3   9
ATOM      9  C   UNL     1      34.588 -23.257 -18.344  0.00  0.00    +0.056 C 
BRANCH   9  13
ATOM     10 CL   UNL     1      29.045 -23.331 -16.213  0.00  0.00    -0.081 Cl
ATOM     11  N   UNL     1      34.586 -22.714 -14.727  0.00  0.00    -0.297 N 
ATOM     12  N   UNL     1      32.301 -22.762 -13.965  0.00  0.00    -0.228 NA
ATOM     13  C   UNL     1      34.305 -23.062 -16.906  0.00  0.00    -0.000 C 
ATOM     14  C   UNL     1      33.028 -23.059 -16.288  0.00  0.00    +0.030 C 
ATOM     15  C   UNL     1      33.237 -22.841 -14.930  0.00  0.00    +0.132 C 
ATOM     16  C   UNL     1      35.245 -22.847 -15.921  0.00  0.00    +0.059 C 
ATOM     17  C   UNL     1      31.701 -23.219 -16.720  0.00  0.00    +0.015 C 
ATOM     18  C   UNL     1      30.692 -23.146 -15.761  0.00  0.00    +0.077 C 
ATOM     19  C   UNL     1      31.043 -22.921 -14.437  0.00  0.00    +0.112 C 
ATOM     20  H   UNL     1      35.016 -22.553 -13.857  0.00  0.00    +0.154 HD
ENDBRANCH   9  13
ENDBRANCH   3   9
BRANCH   1  21
ATOM     21  C   UNL     1      35.289 -17.924 -22.064  0.00  0.00    +0.117 C 
BRANCH  21  23
ATOM     22  N   UNL     1      34.547 -16.244 -25.373  0.00  0.00    -0.240 NA
ATOM     23  C   UNL     1      34.847 -16.890 -23.062  0.00  0.00    +0.017 C 
ATOM     24  C   UNL     1      34.345 -15.660 -22.646  0.00  0.00    +0.000 C 
ATOM     25  C   UNL     1      34.926 -17.130 -24.424  0.00  0.00    +0.096 C 
ATOM     26  C   UNL     1      33.945 -14.723 -23.592  0.00  0.00    +0.023 C 
ATOM     27  C   UNL     1      34.064 -15.061 -24.931  0.00  0.00    +0.153 C 
BRANCH  27  31
ATOM     28  F   UNL     1      33.837 -12.778 -25.608  0.00  0.00    -0.164 F 
ATOM     29  F   UNL     1      34.308 -14.220 -27.157  0.00  0.00    -0.164 F 
ATOM     30  F   UNL     1      32.318 -14.179 -26.283  0.00  0.00    -0.164 F 
ATOM     31  C   UNL     1      33.643 -14.079 -25.973  0.00  0.00    +0.435 C 
ENDBRANCH  27  31
ENDBRANCH  21  23
ENDBRANCH   1  21
TORSDOF 5
ENDMDL
MODEL 3
REMARK VINA RESULT:     -11.6      3.420      5.469
REMARK  Name = 25151352
REMARK  5 active torsions:
REMARK  status: ('A' for Active; 'I' for Inactive)
REMARK    1  A    between atoms: N_1  and  C_21
REMARK    2  A    between atoms: C_3  and  C_9
REMARK    3  A    between atoms: C_9  and  C_13
REMARK    4  A    between atoms: C_21  and  C_23
REMARK    5  A    between atoms: C_27  and  C_31
REMARK                            x       y       z     vdW  Elec       q    Type
REMARK                         _______ _______ _______ _____ _____    ______ ____
ROOT
ATOM      1  N   UNL     1      35.100 -17.616 -20.938  0.00  0.00    -0.314 N 
ATOM      2  N   UNL     1      34.818 -15.250 -20.944  0.00  0.00    -0.230 NA
ATOM      3  C   UNL     1      34.321 -14.118 -23.021  0.00  0.00    +0.002 C 
ATOM      4  C   UNL     1      34.346 -15.332 -23.698  0.00  0.00    +0.000 C 
ATOM      5  C   UNL     1      34.561 -14.130 -21.657  0.00  0.00    +0.096 C 
ATOM      6  C   UNL     1      34.836 -16.411 -21.636  0.00  0.00    +0.129 C 
ATOM      7  C   UNL     1      34.608 -16.505 -22.999  0.00  0.00    +0.034 C 
ATOM      8  H   UNL     1      35.265 -17.574 -19.969  0.00  0.00    +0.149 HD
ENDROOT
BRANCH   3   9
ATOM      9  C   UNL     1      34.036 -12.817 -23.757  0.00  0.00    +0.056 C 
BRANCH   9  13
ATOM     10 CL   UNL     1      35.117  -6.979 -23.927  0.00  0.00    -0.081 Cl
ATOM     11  N   UNL     1      31.651 -11.000 -21.664  0.00  0.00    -0.297 N 
ATOM     12  N   UNL     1      32.173  -8.652 -21.801  0.00  0.00    -0.228 NA
ATOM     13  C   UNL     1      33.214 -11.852 -22.997  0.00  0.00    -0.000 C 
ATOM     14  C   UNL     1      33.380 -10.443 -22.962  0.00  0.00    +0.030 C 
ATOM     15  C   UNL     1      32.390  -9.941 -22.123  0.00  0.00    +0.132 C 
ATOM     16  C   UNL     1      32.143 -12.166 -22.189  0.00  0.00    +0.059 C 
ATOM     17  C   UNL     1      34.261  -9.519 -23.548  0.00  0.00    +0.015 C 
ATOM     18  C   UNL     1      34.080  -8.169 -23.248  0.00  0.00    +0.077 C 
ATOM     19  C   UNL     1      33.050  -7.807 -22.392  0.00  0.00    +0.112 C 
ATOM     20  H   UNL     1      30.884 -10.933 -21.051  0.00  0.00    +0.154 HD
ENDBRANCH   9  13
ENDBRANCH   3   9
BRANCH   1  21
ATOM     21  C   UNL     1      35.137 -18.887 -21.584  0.00  0.00    +0.117 C 
BRANCH  21  23
ATOM     22  N   UNL     1      33.070 -21.221 -19.440  0.00  0.00    -0.240 NA
ATOM     23  C   UNL     1      34.780 -19.981 -20.616  0.00  0.00    +0.017 C 
ATOM     24  C   UNL     1      35.767 -20.751 -20.008  0.00  0.00    +0.000 C 
ATOM     25  C   UNL     1      33.459 -20.254 -20.301  0.00  0.00    +0.096 C 
ATOM     26  C   UNL     1      35.406 -21.755 -19.117  0.00  0.00    +0.023 C 
ATOM     27  C   UNL     1      34.057 -21.949 -18.870  0.00  0.00    +0.153 C 
BRANCH  27  31
ATOM     28  F   UNL     1      32.367 -22.852 -17.436  0.00  0.00    -0.164 F 
ATOM     29  F   UNL     1      33.646 -24.271 -18.463  0.00  0.00    -0.164 F 
ATOM     30  F   UNL     1      34.438 -23.090 -16.818  0.00  0.00    -0.164 F 
ATOM     31  C   UNL     1      33.634 -23.019 -17.919  0.00  0.00    +0.435 C 
ENDBRANCH  27  31
ENDBRANCH  21  23
ENDBRANCH   1  21
TORSDOF 5
ENDMDL
MODEL 4
REMARK VINA RESULT:     -11.6      1.686      2.354
REMARK  Name = 25151352
REMARK  5 active torsions:
REMARK  status: ('A' for Active; 'I' for Inactive)
REMARK    1  A    between atoms: N_1  and  C_21
REMARK    2  A    between atoms: C_3  and  C_9
REMARK    3  A    between atoms: C_9  and  C_13
REMARK    4  A    between atoms: C_21  and  C_23
REMARK    5  A    between atoms: C_27  and  C_31
REMARK                            x       y       z     vdW  Elec       q    Type
REMARK                         _______ _______ _______ _____ _____    ______ ____
ROOT
ATOM      1  N   UNL     1      36.368 -21.454 -18.692  0.00  0.00    -0.314 N 
ATOM      2  N   UNL     1      37.071 -19.766 -20.220  0.00  0.00    -0.230 NA
ATOM      3  C   UNL     1      35.466 -18.806 -21.752  0.00  0.00    +0.002 C 
ATOM      4  C   UNL     1      34.469 -19.622 -21.229  0.00  0.00    +0.000 C 
ATOM      5  C   UNL     1      36.739 -18.915 -21.218  0.00  0.00    +0.096 C 
ATOM      6  C   UNL     1      36.076 -20.544 -19.739  0.00  0.00    +0.129 C 
ATOM      7  C   UNL     1      34.771 -20.510 -20.204  0.00  0.00    +0.034 C 
ATOM      8  H   UNL     1      37.288 -21.495 -18.346  0.00  0.00    +0.149 HD
ENDROOT
BRANCH   3   9
ATOM      9  C   UNL     1      35.166 -17.823 -22.874  0.00  0.00    +0.056 C 
BRANCH   9  13
ATOM     10 CL   UNL     1      33.347 -13.635 -26.672  0.00  0.00    -0.081 Cl
ATOM     11  N   UNL     1      34.378 -14.723 -21.100  0.00  0.00    -0.297 N 
ATOM     12  N   UNL     1      33.654 -13.096 -22.722  0.00  0.00    -0.228 NA
ATOM     13  C   UNL     1      34.783 -16.471 -22.415  0.00  0.00    -0.000 C 
ATOM     14  C   UNL     1      34.337 -15.397 -23.228  0.00  0.00    +0.030 C 
ATOM     15  C   UNL     1      34.092 -14.322 -22.378  0.00  0.00    +0.132 C 
ATOM     16  C   UNL     1      34.799 -16.028 -21.110  0.00  0.00    +0.059 C 
ATOM     17  C   UNL     1      34.107 -15.202 -24.600  0.00  0.00    +0.015 C 
ATOM     18  C   UNL     1      33.652 -13.950 -25.011  0.00  0.00    +0.077 C 
ATOM     19  C   UNL     1      33.450 -12.965 -24.054  0.00  0.00    +0.112 C 
ATOM     20  H   UNL     1      34.293 -14.161 -20.297  0.00  0.00    +0.154 HD
ENDBRANCH   9  13
ENDBRANCH   3   9
BRANCH   1  21
ATOM     21  C   UNL     1      35.382 -22.312 -18.121  0.00  0.00    +0.117 C 
BRANCH  21  23
ATOM     22  N   UNL     1      35.036 -23.520 -14.552  0.00  0.00    -0.240 NA
ATOM     23  C   UNL     1      35.725 -22.631 -16.692  0.00  0.00    +0.017 C 
ATOM     24  C   UNL     1      36.988 -22.355 -16.179  0.00  0.00    +0.000 C 
ATOM     25  C   UNL     1      34.793 -23.209 -15.845  0.00  0.00    +0.096 C 
ATOM     26  C   UNL     1      37.275 -22.660 -14.853  0.00  0.00    +0.023 C 
ATOM     27  C   UNL     1      36.274 -23.237 -14.089  0.00  0.00    +0.153 C 
BRANCH  27  31
ATOM     28  F   UNL     1      35.467 -23.416 -11.844  0.00  0.00    -0.164 F 
ATOM     29  F   UNL     1      36.945 -24.872 -12.476  0.00  0.00    -0.164 F 
ATOM     30  F   UNL     1      37.536 -22.809 -12.119  0.00  0.00    -0.164 F 
ATOM     31  C   UNL     1      36.548 -23.578 -12.662  0.00  0.00    +0.435 C 
ENDBRANCH  27  31
ENDBRANCH  21  23
ENDBRANCH   1  21
TORSDOF 5
ENDMDL
MODEL 5
REMARK VINA RESULT:     -11.5      7.280     12.056
REMARK  Name = 25151352
REMARK  5 active torsions:
REMARK  status: ('A' for Active; 'I' for Inactive)
REMARK    1  A    between atoms: N_1  and  C_21
REMARK    2  A    between atoms: C_3  and  C_9
REMARK    3  A    between atoms: C_9  and  C_13
REMARK    4  A    between atoms: C_21  and  C_23
REMARK    5  A    between atoms: C_27  and  C_31
REMARK                            x       y       z     vdW  Elec       q    Type
REMARK                         _______ _______ _______ _____ _____    ______ ____
ROOT
ATOM      1  N   UNL     1      34.089 -13.250 -22.952  0.00  0.00    -0.314 N 
ATOM      2  N   UNL     1      34.533 -15.213 -21.675  0.00  0.00    -0.230 NA
ATOM      3  C   UNL     1      34.851 -17.323 -22.811  0.00  0.00    +0.002 C 
ATOM      4  C   UNL     1      34.658 -16.699 -24.039  0.00  0.00    +0.000 C 
ATOM      5  C   UNL     1      34.780 -16.543 -21.669  0.00  0.00    +0.096 C 
ATOM      6  C   UNL     1      34.350 -14.642 -22.887  0.00  0.00    +0.129 C 
ATOM      7  C   UNL     1      34.402 -15.334 -24.086  0.00  0.00    +0.034 C 
ATOM      8  H   UNL     1      34.047 -12.738 -22.113  0.00  0.00    +0.149 HD
ENDROOT
BRANCH   3   9
ATOM      9  C   UNL     1      35.135 -18.815 -22.727  0.00  0.00    +0.056 C 
BRANCH   9  13
ATOM     10 CL   UNL     1      33.352 -22.755 -18.656  0.00  0.00    -0.081 Cl
ATOM     11  N   UNL     1      37.737 -19.341 -20.211  0.00  0.00    -0.297 N 
ATOM     12  N   UNL     1      36.919 -20.948 -18.614  0.00  0.00    -0.228 NA
ATOM     13  C   UNL     1      36.001 -19.210 -21.596  0.00  0.00    -0.000 C 
ATOM     14  C   UNL     1      35.681 -20.135 -20.569  0.00  0.00    +0.030 C 
ATOM     15  C   UNL     1      36.784 -20.196 -19.722  0.00  0.00    +0.132 C 
ATOM     16  C   UNL     1      37.272 -18.736 -21.350  0.00  0.00    +0.059 C 
ATOM     17  C   UNL     1      34.576 -20.942 -20.249  0.00  0.00    +0.015 C 
ATOM     18  C   UNL     1      34.663 -21.742 -19.111  0.00  0.00    +0.077 C 
ATOM     19  C   UNL     1      35.826 -21.703 -18.354  0.00  0.00    +0.112 C 
ATOM     20  H   UNL     1      38.621 -19.186 -19.807  0.00  0.00    +0.154 HD
ENDBRANCH   9  13
ENDBRANCH   3   9
BRANCH   1  21
ATOM     21  C   UNL     1      33.883 -12.563 -24.184  0.00  0.00    +0.117 C 
BRANCH  21  23
ATOM     22  N   UNL     1      33.577  -8.961 -23.069  0.00  0.00    -0.240 NA
ATOM     23  C   UNL     1      34.179 -11.097 -24.026  0.00  0.00    +0.017 C 
ATOM     24  C   UNL     1      35.277 -10.516 -24.652  0.00  0.00    +0.000 C 
ATOM     25  C   UNL     1      33.368 -10.283 -23.252  0.00  0.00    +0.096 C 
ATOM     26  C   UNL     1      35.524  -9.157 -24.487  0.00  0.00    +0.023 C 
ATOM     27  C   UNL     1      34.653  -8.431 -23.692  0.00  0.00    +0.153 C 
BRANCH  27  31
ATOM     28  F   UNL     1      36.186  -6.662 -23.196  0.00  0.00    -0.164 F 
ATOM     29  F   UNL     1      34.584  -6.213 -24.588  0.00  0.00    -0.164 F 
ATOM     30  F   UNL     1      34.146  -6.453 -22.472  0.00  0.00    -0.164 F 
ATOM     31  C   UNL     1      34.889  -6.971 -23.494  0.00  0.00    +0.435 C 
ENDBRANCH  27  31
ENDBRANCH  21  23
ENDBRANCH   1  21
TORSDOF 5
ENDMDL
MODEL 6
REMARK VINA RESULT:     -11.5      7.250     12.074
REMARK  Name = 25151352
REMARK  5 active torsions:
REMARK  status: ('A' for Active; 'I' for Inactive)
REMARK    1  A    between atoms: N_1  and  C_21
REMARK    2  A    between atoms: C_3  and  C_9
REMARK    3  A    between atoms: C_9  and  C_13
REMARK    4  A    between atoms: C_21  and  C_23
REMARK    5  A    between atoms: C_27  and  C_31
REMARK                            x       y       z     vdW  Elec       q    Type
REMARK                         _______ _______ _______ _____ _____    ______ ____
ROOT
ATOM      1  N   UNL     1      34.356 -12.978 -22.837  0.00  0.00    -0.314 N 
ATOM      2  N   UNL     1      34.579 -14.991 -21.580  0.00  0.00    -0.230 NA
ATOM      3  C   UNL     1      34.806 -17.099 -22.742  0.00  0.00    +0.002 C 
ATOM      4  C   UNL     1      34.731 -16.441 -23.965  0.00  0.00    +0.000 C 
ATOM      5  C   UNL     1      34.726 -16.335 -21.589  0.00  0.00    +0.096 C 
ATOM      6  C   UNL     1      34.509 -14.387 -22.788  0.00  0.00    +0.129 C 
ATOM      7  C   UNL     1      34.580 -15.060 -23.997  0.00  0.00    +0.034 C 
ATOM      8  H   UNL     1      34.303 -12.480 -21.991  0.00  0.00    +0.149 HD
ENDROOT
BRANCH   3   9
ATOM      9  C   UNL     1      34.974 -18.609 -22.674  0.00  0.00    +0.056 C 
BRANCH   9  13
ATOM     10 CL   UNL     1      33.330 -22.663 -18.657  0.00  0.00    -0.081 Cl
ATOM     11  N   UNL     1      37.711 -19.314 -20.354  0.00  0.00    -0.297 N 
ATOM     12  N   UNL     1      36.946 -20.962 -18.773  0.00  0.00    -0.228 NA
ATOM     13  C   UNL     1      35.896 -19.075 -21.618  0.00  0.00    -0.000 C 
ATOM     14  C   UNL     1      35.613 -20.033 -20.610  0.00  0.00    +0.030 C 
ATOM     15  C   UNL     1      36.765 -20.160 -19.839  0.00  0.00    +0.132 C 
ATOM     16  C   UNL     1      37.194 -18.649 -21.435  0.00  0.00    +0.059 C 
ATOM     17  C   UNL     1      34.506 -20.821 -20.252  0.00  0.00    +0.015 C 
ATOM     18  C   UNL     1      34.640 -21.670 -19.155  0.00  0.00    +0.077 C 
ATOM     19  C   UNL     1      35.849 -21.695 -18.473  0.00  0.00    +0.112 C 
ATOM     20  H   UNL     1      38.623 -19.201 -20.002  0.00  0.00    +0.154 HD
ENDBRANCH   9  13
ENDBRANCH   3   9
BRANCH   1  21
ATOM     21  C   UNL     1      34.273 -12.257 -24.064  0.00  0.00    +0.117 C 
BRANCH  21  23
ATOM     22  N   UNL     1      32.781  -8.971 -22.927  0.00  0.00    -0.240 NA
ATOM     23  C   UNL     1      34.120 -10.784 -23.800  0.00  0.00    +0.017 C 
ATOM     24  C   UNL     1      35.119  -9.884 -24.157  0.00  0.00    +0.000 C 
ATOM     25  C   UNL     1      32.981 -10.281 -23.193  0.00  0.00    +0.096 C 
ATOM     26  C   UNL     1      34.949  -8.528 -23.900  0.00  0.00    +0.023 C 
ATOM     27  C   UNL     1      33.773  -8.126 -23.288  0.00  0.00    +0.153 C 
BRANCH  27  31
ATOM     28  F   UNL     1      32.358  -6.203 -23.446  0.00  0.00    -0.164 F 
ATOM     29  F   UNL     1      33.584  -6.378 -21.665  0.00  0.00    -0.164 F 
ATOM     30  F   UNL     1      34.505  -5.881 -23.571  0.00  0.00    -0.164 F 
ATOM     31  C   UNL     1      33.557  -6.678 -22.997  0.00  0.00    +0.435 C 
ENDBRANCH  27  31
ENDBRANCH  21  23
ENDBRANCH   1  21
TORSDOF 5
ENDMDL
MODEL 7
REMARK VINA RESULT:     -11.4      5.632     10.058
REMARK  Name = 25151352
REMARK  5 active torsions:
REMARK  status: ('A' for Active; 'I' for Inactive)
REMARK    1  A    between atoms: N_1  and  C_21
REMARK    2  A    between atoms: C_3  and  C_9
REMARK    3  A    between atoms: C_9  and  C_13
REMARK    4  A    between atoms: C_21  and  C_23
REMARK    5  A    between atoms: C_27  and  C_31
REMARK                            x       y       z     vdW  Elec       q    Type
REMARK                         _______ _______ _______ _____ _____    ______ ____
ROOT
ATOM      1  N   UNL     1      36.069 -17.167 -22.761  0.00  0.00    -0.314 N 
ATOM      2  N   UNL     1      37.248 -18.549 -21.219  0.00  0.00    -0.230 NA
ATOM      3  C   UNL     1      36.130 -20.453 -20.233  0.00  0.00    +0.002 C 
ATOM      4  C   UNL     1      34.974 -20.151 -20.945  0.00  0.00    +0.000 C 
ATOM      5  C   UNL     1      37.230 -19.629 -20.404  0.00  0.00    +0.096 C 
ATOM      6  C   UNL     1      36.106 -18.287 -21.892  0.00  0.00    +0.129 C 
ATOM      7  C   UNL     1      34.953 -19.049 -21.792  0.00  0.00    +0.034 C 
ATOM      8  H   UNL     1      36.875 -16.611 -22.849  0.00  0.00    +0.149 HD
ENDROOT
BRANCH   3   9
ATOM      9  C   UNL     1      36.185 -21.653 -19.300  0.00  0.00    +0.056 C 
BRANCH   9  13
ATOM     10 CL   UNL     1      35.747 -23.689 -13.737  0.00  0.00    -0.081 Cl
ATOM     11  N   UNL     1      32.702 -22.394 -18.465  0.00  0.00    -0.297 N 
ATOM     12  N   UNL     1      32.633 -23.209 -16.199  0.00  0.00    -0.228 NA
ATOM     13  C   UNL     1      34.883 -22.028 -18.710  0.00  0.00    -0.000 C 
ATOM     14  C   UNL     1      34.660 -22.524 -17.399  0.00  0.00    +0.030 C 
ATOM     15  C   UNL     1      33.290 -22.741 -17.278  0.00  0.00    +0.132 C 
ATOM     16  C   UNL     1      33.660 -21.959 -19.343  0.00  0.00    +0.059 C 
ATOM     17  C   UNL     1      35.462 -22.819 -16.284  0.00  0.00    +0.015 C 
ATOM     18  C   UNL     1      34.832 -23.306 -15.140  0.00  0.00    +0.077 C 
ATOM     19  C   UNL     1      33.455 -23.476 -15.157  0.00  0.00    +0.112 C 
ATOM     20  H   UNL     1      31.739 -22.447 -18.658  0.00  0.00    +0.154 HD
ENDBRANCH   9  13
ENDBRANCH   3   9
BRANCH   1  21
ATOM     21  C   UNL     1      34.909 -16.815 -23.512  0.00  0.00    +0.117 C 
BRANCH  21  23
ATOM     22  N   UNL     1      33.020 -13.552 -23.186  0.00  0.00    -0.240 NA
ATOM     23  C   UNL     1      34.220 -15.630 -22.892  0.00  0.00    +0.017 C 
ATOM     24  C   UNL     1      34.134 -15.493 -21.511  0.00  0.00    +0.000 C 
ATOM     25  C   UNL     1      33.652 -14.641 -23.679  0.00  0.00    +0.096 C 
ATOM     26  C   UNL     1      33.492 -14.386 -20.967  0.00  0.00    +0.023 C 
ATOM     27  C   UNL     1      32.956 -13.453 -21.840  0.00  0.00    +0.153 C 
BRANCH  27  31
ATOM     28  F   UNL     1      32.541 -11.100 -21.965  0.00  0.00    -0.164 F 
ATOM     29  F   UNL     1      30.897 -12.355 -21.310  0.00  0.00    -0.164 F 
ATOM     30  F   UNL     1      32.589 -12.006 -19.989  0.00  0.00    -0.164 F 
ATOM     31  C   UNL     1      32.259 -12.253 -21.290  0.00  0.00    +0.435 C 
ENDBRANCH  27  31
ENDBRANCH  21  23
ENDBRANCH   1  21
TORSDOF 5
ENDMDL
MODEL 8
REMARK VINA RESULT:     -11.2      3.516      5.553
REMARK  Name = 25151352
REMARK  5 active torsions:
REMARK  status: ('A' for Active; 'I' for Inactive)
REMARK    1  A    between atoms: N_1  and  C_21
REMARK    2  A    between atoms: C_3  and  C_9
REMARK    3  A    between atoms: C_9  and  C_13
REMARK    4  A    between atoms: C_21  and  C_23
REMARK    5  A    between atoms: C_27  and  C_31
REMARK                            x       y       z     vdW  Elec       q    Type
REMARK                         _______ _______ _______ _____ _____    ______ ____
ROOT
ATOM      1  N   UNL     1      36.004 -18.165 -22.902  0.00  0.00    -0.314 N 
ATOM      2  N   UNL     1      34.615 -16.733 -24.206  0.00  0.00    -0.230 NA
ATOM      3  C   UNL     1      33.900 -14.614 -23.289  0.00  0.00    +0.002 C 
ATOM      4  C   UNL     1      34.596 -14.878 -22.115  0.00  0.00    +0.000 C 
ATOM      5  C   UNL     1      33.941 -15.564 -24.296  0.00  0.00    +0.096 C 
ATOM      6  C   UNL     1      35.279 -16.955 -23.050  0.00  0.00    +0.129 C 
ATOM      7  C   UNL     1      35.301 -16.069 -21.985  0.00  0.00    +0.034 C 
ATOM      8  H   UNL     1      36.003 -18.809 -23.645  0.00  0.00    +0.149 HD
ENDROOT
BRANCH   3   9
ATOM      9  C   UNL     1      33.120 -13.319 -23.462  0.00  0.00    +0.056 C 
BRANCH   9  13
ATOM     10 CL   UNL     1      32.579  -7.451 -22.721  0.00  0.00    -0.081 Cl
ATOM     11  N   UNL     1      31.813 -12.551 -20.134  0.00  0.00    -0.297 N 
ATOM     12  N   UNL     1      31.632 -10.158 -19.935  0.00  0.00    -0.228 NA
ATOM     13  C   UNL     1      32.611 -12.739 -22.202  0.00  0.00    -0.000 C 
ATOM     14  C   UNL     1      32.442 -11.359 -21.914  0.00  0.00    +0.030 C 
ATOM     15  C   UNL     1      31.942 -11.276 -20.618  0.00  0.00    +0.132 C 
ATOM     16  C   UNL     1      32.217 -13.449 -21.088  0.00  0.00    +0.059 C 
ATOM     17  C   UNL     1      32.653 -10.154 -22.603  0.00  0.00    +0.015 C 
ATOM     18  C   UNL     1      32.348  -8.965 -21.943  0.00  0.00    +0.077 C 
ATOM     19  C   UNL     1      31.856  -9.028 -20.646  0.00  0.00    +0.112 C 
ATOM     20  H   UNL     1      31.480 -12.788 -19.239  0.00  0.00    +0.154 HD
ENDBRANCH   9  13
ENDBRANCH   3   9
BRANCH   1  21
ATOM     21  C   UNL     1      36.734 -18.484 -21.719  0.00  0.00    +0.117 C 
BRANCH  21  23
ATOM     22  N   UNL     1      36.039 -21.266 -19.250  0.00  0.00    -0.240 NA
ATOM     23  C   UNL     1      35.986 -19.497 -20.897  0.00  0.00    +0.017 C 
ATOM     24  C   UNL     1      34.603 -19.620 -20.995  0.00  0.00    +0.000 C 
ATOM     25  C   UNL     1      36.650 -20.335 -20.017  0.00  0.00    +0.096 C 
ATOM     26  C   UNL     1      33.939 -20.566 -20.221  0.00  0.00    +0.023 C 
ATOM     27  C   UNL     1      34.696 -21.357 -19.372  0.00  0.00    +0.153 C 
BRANCH  27  31
ATOM     28  F   UNL     1      34.658 -22.633 -17.349  0.00  0.00    -0.164 F 
ATOM     29  F   UNL     1      32.741 -22.040 -18.173  0.00  0.00    -0.164 F 
ATOM     30  F   UNL     1      33.910 -23.590 -19.152  0.00  0.00    -0.164 F 
ATOM     31  C   UNL     1      34.015 -22.381 -18.527  0.00  0.00    +0.435 C 
ENDBRANCH  27  31
ENDBRANCH  21  23
ENDBRANCH   1  21
TORSDOF 5
ENDMDL
MODEL 9
REMARK VINA RESULT:     -11.2      6.854     10.765
REMARK  Name = 25151352
REMARK  5 active torsions:
REMARK  status: ('A' for Active; 'I' for Inactive)
REMARK    1  A    between atoms: N_1  and  C_21
REMARK    2  A    between atoms: C_3  and  C_9
REMARK    3  A    between atoms: C_9  and  C_13
REMARK    4  A    between atoms: C_21  and  C_23
REMARK    5  A    between atoms: C_27  and  C_31
REMARK                            x       y       z     vdW  Elec       q    Type
REMARK                         _______ _______ _______ _____ _____    ______ ____
ROOT
ATOM      1  N   UNL     1      33.276 -12.640 -24.035  0.00  0.00    -0.314 N 
ATOM      2  N   UNL     1      33.194 -10.500 -22.989  0.00  0.00    -0.230 NA
ATOM      3  C   UNL     1      34.793  -8.803 -23.625  0.00  0.00    +0.002 C 
ATOM      4  C   UNL     1      35.372  -9.680 -24.536  0.00  0.00    +0.000 C 
ATOM      5  C   UNL     1      33.715  -9.257 -22.883  0.00  0.00    +0.096 C 
ATOM      6  C   UNL     1      33.784 -11.325 -23.883  0.00  0.00    +0.129 C 
ATOM      7  C   UNL     1      34.864 -10.967 -24.673  0.00  0.00    +0.034 C 
ATOM      8  H   UNL     1      32.510 -12.916 -23.485  0.00  0.00    +0.149 HD
ENDROOT
BRANCH   3   9
ATOM      9  C   UNL     1      35.325  -7.388 -23.454  0.00  0.00    +0.056 C 
BRANCH   9  13
ATOM     10 CL   UNL     1      30.288  -5.157 -21.235  0.00  0.00    -0.081 Cl
ATOM     11  N   UNL     1      33.916  -4.882 -25.713  0.00  0.00    -0.297 N 
ATOM     12  N   UNL     1      31.885  -4.042 -24.727  0.00  0.00    -0.228 NA
ATOM     13  C   UNL     1      34.552  -6.353 -24.171  0.00  0.00    -0.000 C 
ATOM     14  C   UNL     1      33.341  -5.752 -23.739  0.00  0.00    +0.030 C 
ATOM     15  C   UNL     1      32.971  -4.838 -24.722  0.00  0.00    +0.132 C 
ATOM     16  C   UNL     1      34.882  -5.799 -25.389  0.00  0.00    +0.059 C 
ATOM     17  C   UNL     1      32.502  -5.871 -22.619  0.00  0.00    +0.015 C 
ATOM     18  C   UNL     1      31.363  -5.069 -22.572  0.00  0.00    +0.077 C 
ATOM     19  C   UNL     1      31.113  -4.200 -23.626  0.00  0.00    +0.112 C 
ATOM     20  H   UNL     1      33.904  -4.337 -26.533  0.00  0.00    +0.154 HD
ENDBRANCH   9  13
ENDBRANCH   3   9
BRANCH   1  21
ATOM     21  C   UNL     1      33.834 -13.577 -24.954  0.00  0.00    +0.117 C 
BRANCH  21  23
ATOM     22  N   UNL     1      34.944 -17.143 -24.346  0.00  0.00    -0.240 NA
ATOM     23  C   UNL     1      34.266 -14.825 -24.235  0.00  0.00    +0.017 C 
ATOM     24  C   UNL     1      34.393 -14.847 -22.850  0.00  0.00    +0.000 C 
ATOM     25  C   UNL     1      34.551 -15.989 -24.930  0.00  0.00    +0.096 C 
ATOM     26  C   UNL     1      34.794 -16.017 -22.213  0.00  0.00    +0.023 C 
ATOM     27  C   UNL     1      35.056 -17.127 -22.999  0.00  0.00    +0.153 C 
BRANCH  27  31
ATOM     28  F   UNL     1      36.820 -18.664 -22.501  0.00  0.00    -0.164 F 
ATOM     29  F   UNL     1      35.272 -18.424 -21.001  0.00  0.00    -0.164 F 
ATOM     30  F   UNL     1      34.838 -19.490 -22.846  0.00  0.00    -0.164 F 
ATOM     31  C   UNL     1      35.489 -18.398 -22.349  0.00  0.00    +0.435 C 
ENDBRANCH  27  31
ENDBRANCH  21  23
ENDBRANCH   1  21
TORSDOF 5
ENDMDL
