MODEL 1
REMARK VINA RESULT:     -12.5      0.000      0.000
REMARK  Name = 11610553
REMARK  5 active torsions:
REMARK  status: ('A' for Active; 'I' for Inactive)
REMARK    1  A    between atoms: C_1  and  C_9
REMARK    2  A    between atoms: C_4  and  O_19
REMARK    3  A    between atoms: C_10  and  C_14
REMARK    4  A    between atoms: O_19  and  C_20
REMARK    5  A    between atoms: C_20  and  C_22
REMARK                            x       y       z     vdW  Elec       q    Type
REMARK                         _______ _______ _______ _____ _____    ______ ____
ROOT
ATOM      1  C   UNL     1      33.667 -22.136 -18.148  0.00  0.00    +0.015 C 
ATOM      2  C   UNL     1      35.031 -22.364 -18.329  0.00  0.00    +0.004 C 
ATOM      3  C   UNL     1      32.981 -21.285 -19.014  0.00  0.00    +0.004 C 
ATOM      4  C   UNL     1      35.019 -20.894 -20.236  0.00  0.00    +0.139 C 
ATOM      5  C   UNL     1      35.709 -21.741 -19.377  0.00  0.00    +0.037 C 
ATOM      6  C   UNL     1      33.659 -20.662 -20.062  0.00  0.00    +0.037 C 
ENDROOT
BRANCH   1   9
ATOM      7  N   UNL     1      31.606 -22.887 -17.041  0.00  0.00    -0.236 N 
ATOM      8  N   UNL     1      31.129 -23.518 -15.954  0.00  0.00    -0.180 NA
ATOM      9  C   UNL     1      32.966 -22.780 -17.064  0.00  0.00    +0.067 C 
ATOM     10  C   UNL     1      33.410 -23.382 -15.911  0.00  0.00    +0.036 C 
ATOM     11  C   UNL     1      32.235 -23.818 -15.268  0.00  0.00    +0.119 C 
ATOM     12  H   UNL     1      31.028 -22.536 -17.755  0.00  0.00    +0.174 HD
BRANCH  10  14
ATOM     13  N   UNL     1      37.464 -23.733 -14.753  0.00  0.00    -0.242 NA
ATOM     14  C   UNL     1      34.782 -23.501 -15.520  0.00  0.00    +0.006 C 
ATOM     15  C   UNL     1      35.562 -22.362 -15.344  0.00  0.00    +0.021 C 
ATOM     16  C   UNL     1      35.346 -24.757 -15.310  0.00  0.00    +0.021 C 
ATOM     17  C   UNL     1      36.884 -22.529 -14.964  0.00  0.00    +0.099 C 
ATOM     18  C   UNL     1      36.678 -24.817 -14.932  0.00  0.00    +0.099 C 
ENDBRANCH  10  14
ENDBRANCH   1   9
BRANCH   4  19
ATOM     19  O   UNL     1      35.685 -20.282 -21.265  0.00  0.00    -0.468 OA
BRANCH  19  20
ATOM     20  C   UNL     1      36.383 -19.084 -20.954  0.00  0.00    +0.264 C 
BRANCH  20  22
ATOM     21  N   UNL     1      35.166 -17.002 -20.755  0.00  0.00    -0.406 NA
ATOM     22  C   UNL     1      35.690 -17.926 -21.591  0.00  0.00    +0.152 C 
ATOM     23  C   UNL     1      34.404 -15.783 -22.689  0.00  0.00    +0.026 C 
ATOM     24  C   UNL     1      34.531 -15.943 -21.293  0.00  0.00    +0.113 C 
ATOM     25  C   UNL     1      35.616 -17.855 -22.968  0.00  0.00    +0.031 C 
ATOM     26  C   UNL     1      34.961 -16.764 -23.520  0.00  0.00    +0.005 C 
ATOM     27  C   UNL     1      33.735 -14.665 -23.217  0.00  0.00    +0.002 C 
ATOM     28  C   UNL     1      33.977 -14.967 -20.469  0.00  0.00    +0.085 C 
ATOM     29  C   UNL     1      33.190 -13.705 -22.369  0.00  0.00    -0.004 C 
ATOM     30  C   UNL     1      33.311 -13.857 -20.994  0.00  0.00    -0.019 C 
ENDBRANCH  20  22
ENDBRANCH  19  20
ENDBRANCH   4  19
TORSDOF 5
ENDMDL
MODEL 2
REMARK VINA RESULT:     -12.5      0.962      1.719
REMARK  Name = 11610553
REMARK  5 active torsions:
REMARK  status: ('A' for Active; 'I' for Inactive)
REMARK    1  A    between atoms: C_1  and  C_9
REMARK    2  A    between atoms: C_4  and  O_19
REMARK    3  A    between atoms: C_10  and  C_14
REMARK    4  A    between atoms: O_19  and  C_20
REMARK    5  A    between atoms: C_20  and  C_22
REMARK                            x       y       z     vdW  Elec       q    Type
REMARK                         _______ _______ _______ _____ _____    ______ ____
ROOT
ATOM      1  C   UNL     1      33.819 -21.979 -18.376  0.00  0.00    +0.015 C 
ATOM      2  C   UNL     1      35.170 -22.131 -18.689  0.00  0.00    +0.004 C 
ATOM      3  C   UNL     1      33.014 -21.140 -19.146  0.00  0.00    +0.004 C 
ATOM      4  C   UNL     1      34.907 -20.607 -20.536  0.00  0.00    +0.139 C 
ATOM      5  C   UNL     1      35.715 -21.442 -19.773  0.00  0.00    +0.037 C 
ATOM      6  C   UNL     1      33.559 -20.452 -20.229  0.00  0.00    +0.037 C 
ENDROOT
BRANCH   1   9
ATOM      7  N   UNL     1      31.919 -22.953 -17.159  0.00  0.00    -0.236 N 
ATOM      8  N   UNL     1      31.576 -23.625 -16.047  0.00  0.00    -0.180 NA
ATOM      9  C   UNL     1      33.255 -22.691 -17.255  0.00  0.00    +0.067 C 
ATOM     10  C   UNL     1      33.825 -23.229 -16.126  0.00  0.00    +0.036 C 
ATOM     11  C   UNL     1      32.744 -23.791 -15.421  0.00  0.00    +0.119 C 
ATOM     12  H   UNL     1      31.268 -22.675 -17.842  0.00  0.00    +0.174 HD
BRANCH  10  14
ATOM     13  N   UNL     1      37.948 -23.105 -15.187  0.00  0.00    -0.242 NA
ATOM     14  C   UNL     1      35.220 -23.188 -15.809  0.00  0.00    +0.006 C 
ATOM     15  C   UNL     1      35.953 -22.023 -16.020  0.00  0.00    +0.021 C 
ATOM     16  C   UNL     1      35.856 -24.310 -15.285  0.00  0.00    +0.021 C 
ATOM     17  C   UNL     1      37.300 -22.033 -15.697  0.00  0.00    +0.099 C 
ATOM     18  C   UNL     1      37.207 -24.218 -14.994  0.00  0.00    +0.099 C 
ENDBRANCH  10  14
ENDBRANCH   1   9
BRANCH   4  19
ATOM     19  O   UNL     1      35.443 -19.931 -21.600  0.00  0.00    -0.468 OA
BRANCH  19  20
ATOM     20  C   UNL     1      36.191 -18.759 -21.304  0.00  0.00    +0.264 C 
BRANCH  20  22
ATOM     21  N   UNL     1      35.363 -17.490 -23.192  0.00  0.00    -0.406 NA
ATOM     22  C   UNL     1      35.477 -17.566 -21.846  0.00  0.00    +0.152 C 
ATOM     23  C   UNL     1      34.186 -15.406 -22.907  0.00  0.00    +0.026 C 
ATOM     24  C   UNL     1      34.727 -16.426 -23.718  0.00  0.00    +0.113 C 
ATOM     25  C   UNL     1      34.981 -16.619 -20.973  0.00  0.00    +0.031 C 
ATOM     26  C   UNL     1      34.326 -15.524 -21.518  0.00  0.00    +0.005 C 
ATOM     27  C   UNL     1      33.528 -14.310 -23.489  0.00  0.00    +0.002 C 
ATOM     28  C   UNL     1      34.587 -16.308 -25.098  0.00  0.00    +0.085 C 
ATOM     29  C   UNL     1      33.403 -14.217 -24.873  0.00  0.00    -0.004 C 
ATOM     30  C   UNL     1      33.933 -15.217 -25.677  0.00  0.00    -0.019 C 
ENDBRANCH  20  22
ENDBRANCH  19  20
ENDBRANCH   4  19
TORSDOF 5
ENDMDL
MODEL 3
REMARK VINA RESULT:     -12.3      7.402     14.418
REMARK  Name = 11610553
REMARK  5 active torsions:
REMARK  status: ('A' for Active; 'I' for Inactive)
REMARK    1  A    between atoms: C_1  and  C_9
REMARK    2  A    between atoms: C_4  and  O_19
REMARK    3  A    between atoms: C_10  and  C_14
REMARK    4  A    between atoms: O_19  and  C_20
REMARK    5  A    between atoms: C_20  and  C_22
REMARK                            x       y       z     vdW  Elec       q    Type
REMARK                         _______ _______ _______ _____ _____    ______ ____
ROOT
ATOM      1  C   UNL     1      31.451  -6.928 -21.810  0.00  0.00    +0.015 C 
ATOM      2  C   UNL     1      31.939  -7.175 -20.527  0.00  0.00    +0.004 C 
ATOM      3  C   UNL     1      31.183  -7.991 -22.672  0.00  0.00    +0.004 C 
ATOM      4  C   UNL     1      31.891  -9.542 -20.971  0.00  0.00    +0.139 C 
ATOM      5  C   UNL     1      32.159  -8.487 -20.107  0.00  0.00    +0.037 C 
ATOM      6  C   UNL     1      31.403  -9.302 -22.252  0.00  0.00    +0.037 C 
ENDROOT
BRANCH   1   9
ATOM      7  N   UNL     1      30.241  -4.791 -21.708  0.00  0.00    -0.236 N 
ATOM      8  N   UNL     1      30.177  -3.557 -22.236  0.00  0.00    -0.180 NA
ATOM      9  C   UNL     1      31.223  -5.572 -22.246  0.00  0.00    +0.067 C 
ATOM     10  C   UNL     1      31.845  -4.793 -23.192  0.00  0.00    +0.036 C 
ATOM     11  C   UNL     1      31.159  -3.564 -23.142  0.00  0.00    +0.119 C 
ATOM     12  H   UNL     1      29.636  -5.104 -20.998  0.00  0.00    +0.174 HD
BRANCH  10  14
ATOM     13  N   UNL     1      35.092  -6.027 -25.608  0.00  0.00    -0.242 NA
ATOM     14  C   UNL     1      32.943  -5.211 -24.010  0.00  0.00    +0.006 C 
ATOM     15  C   UNL     1      33.037  -4.783 -25.331  0.00  0.00    +0.021 C 
ATOM     16  C   UNL     1      33.927  -6.047 -23.490  0.00  0.00    +0.021 C 
ATOM     17  C   UNL     1      34.119  -5.215 -26.081  0.00  0.00    +0.099 C 
ATOM     18  C   UNL     1      34.969  -6.423 -24.322  0.00  0.00    +0.099 C 
ENDBRANCH  10  14
ENDBRANCH   1   9
BRANCH   4  19
ATOM     19  O   UNL     1      32.107 -10.830 -20.558  0.00  0.00    -0.468 OA
BRANCH  19  20
ATOM     20  C   UNL     1      31.439 -11.856 -21.280  0.00  0.00    +0.264 C 
BRANCH  20  22
ATOM     21  N   UNL     1      32.685 -13.415 -22.650  0.00  0.00    -0.406 NA
ATOM     22  C   UNL     1      32.334 -13.044 -21.397  0.00  0.00    +0.152 C 
ATOM     23  C   UNL     1      33.968 -15.212 -21.686  0.00  0.00    +0.026 C 
ATOM     24  C   UNL     1      33.490 -14.484 -22.796  0.00  0.00    +0.113 C 
ATOM     25  C   UNL     1      32.750 -13.694 -20.253  0.00  0.00    +0.031 C 
ATOM     26  C   UNL     1      33.580 -14.795 -20.406  0.00  0.00    +0.005 C 
ATOM     27  C   UNL     1      34.807 -16.324 -21.875  0.00  0.00    +0.002 C 
ATOM     28  C   UNL     1      33.877 -14.899 -24.067  0.00  0.00    +0.085 C 
ATOM     29  C   UNL     1      35.177 -16.717 -23.157  0.00  0.00    -0.004 C 
ATOM     30  C   UNL     1      34.711 -16.004 -24.254  0.00  0.00    -0.019 C 
ENDBRANCH  20  22
ENDBRANCH  19  20
ENDBRANCH   4  19
TORSDOF 5
ENDMDL
MODEL 4
REMARK VINA RESULT:     -12.2      1.481      2.187
REMARK  Name = 11610553
REMARK  5 active torsions:
REMARK  status: ('A' for Active; 'I' for Inactive)
REMARK    1  A    between atoms: C_1  and  C_9
REMARK    2  A    between atoms: C_4  and  O_19
REMARK    3  A    between atoms: C_10  and  C_14
REMARK    4  A    between atoms: O_19  and  C_20
REMARK    5  A    between atoms: C_20  and  C_22
REMARK                            x       y       z     vdW  Elec       q    Type
REMARK                         _______ _______ _______ _____ _____    ______ ____
ROOT
ATOM      1  C   UNL     1      34.373 -22.950 -16.284  0.00  0.00    +0.015 C 
ATOM      2  C   UNL     1      35.678 -22.498 -16.479  0.00  0.00    +0.004 C 
ATOM      3  C   UNL     1      33.455 -22.907 -17.333  0.00  0.00    +0.004 C 
ATOM      4  C   UNL     1      35.144 -21.961 -18.765  0.00  0.00    +0.139 C 
ATOM      5  C   UNL     1      36.064 -22.001 -17.724  0.00  0.00    +0.037 C 
ATOM      6  C   UNL     1      33.841 -22.410 -18.578  0.00  0.00    +0.037 C 
ENDROOT
BRANCH   1   9
ATOM      7  N   UNL     1      32.790 -23.115 -14.411  0.00  0.00    -0.236 N 
ATOM      8  N   UNL     1      32.586 -23.690 -13.214  0.00  0.00    -0.180 NA
ATOM      9  C   UNL     1      33.973 -23.463 -14.996  0.00  0.00    +0.067 C 
ATOM     10  C   UNL     1      34.585 -24.326 -14.119  0.00  0.00    +0.036 C 
ATOM     11  C   UNL     1      33.686 -24.428 -13.041  0.00  0.00    +0.119 C 
ATOM     12  H   UNL     1      32.145 -22.500 -14.829  0.00  0.00    +0.174 HD
BRANCH  10  14
ATOM     13  N   UNL     1      38.350 -26.154 -14.734  0.00  0.00    -0.242 NA
ATOM     14  C   UNL     1      35.859 -24.944 -14.328  0.00  0.00    +0.006 C 
ATOM     15  C   UNL     1      37.027 -24.297 -13.932  0.00  0.00    +0.021 C 
ATOM     16  C   UNL     1      35.941 -26.199 -14.927  0.00  0.00    +0.021 C 
ATOM     17  C   UNL     1      38.235 -24.938 -14.155  0.00  0.00    +0.099 C 
ATOM     18  C   UNL     1      37.198 -26.754 -15.107  0.00  0.00    +0.099 C 
ENDBRANCH  10  14
ENDBRANCH   1   9
BRANCH   4  19
ATOM     19  O   UNL     1      35.524 -21.473 -19.988  0.00  0.00    -0.468 OA
BRANCH  19  20
ATOM     20  C   UNL     1      36.340 -20.309 -19.989  0.00  0.00    +0.264 C 
BRANCH  20  22
ATOM     21  N   UNL     1      35.575 -18.121 -20.686  0.00  0.00    -0.406 NA
ATOM     22  C   UNL     1      35.882 -19.383 -21.065  0.00  0.00    +0.152 C 
ATOM     23  C   UNL     1      35.032 -17.635 -22.982  0.00  0.00    +0.026 C 
ATOM     24  C   UNL     1      35.156 -17.257 -21.629  0.00  0.00    +0.113 C 
ATOM     25  C   UNL     1      35.791 -19.844 -22.363  0.00  0.00    +0.031 C 
ATOM     26  C   UNL     1      35.359 -18.952 -23.332  0.00  0.00    +0.005 C 
ATOM     27  C   UNL     1      34.591 -16.707 -23.941  0.00  0.00    +0.002 C 
ATOM     28  C   UNL     1      34.831 -15.948 -21.283  0.00  0.00    +0.085 C 
ATOM     29  C   UNL     1      34.272 -15.405 -23.567  0.00  0.00    -0.004 C 
ATOM     30  C   UNL     1      34.392 -15.025 -22.236  0.00  0.00    -0.019 C 
ENDBRANCH  20  22
ENDBRANCH  19  20
ENDBRANCH   4  19
TORSDOF 5
ENDMDL
MODEL 5
REMARK VINA RESULT:     -11.9      1.719      3.743
REMARK  Name = 11610553
REMARK  5 active torsions:
REMARK  status: ('A' for Active; 'I' for Inactive)
REMARK    1  A    between atoms: C_1  and  C_9
REMARK    2  A    between atoms: C_4  and  O_19
REMARK    3  A    between atoms: C_10  and  C_14
REMARK    4  A    between atoms: O_19  and  C_20
REMARK    5  A    between atoms: C_20  and  C_22
REMARK                            x       y       z     vdW  Elec       q    Type
REMARK                         _______ _______ _______ _____ _____    ______ ____
ROOT
ATOM      1  C   UNL     1      33.836 -23.033 -16.388  0.00  0.00    +0.015 C 
ATOM      2  C   UNL     1      32.698 -22.728 -17.134  0.00  0.00    +0.004 C 
ATOM      3  C   UNL     1      35.101 -22.709 -16.879  0.00  0.00    +0.004 C 
ATOM      4  C   UNL     1      34.089 -21.779 -18.856  0.00  0.00    +0.139 C 
ATOM      5  C   UNL     1      32.826 -22.098 -18.373  0.00  0.00    +0.037 C 
ATOM      6  C   UNL     1      35.228 -22.080 -18.117  0.00  0.00    +0.037 C 
ENDROOT
BRANCH   1   9
ATOM      7  N   UNL     1      34.789 -24.061 -14.369  0.00  0.00    -0.236 N 
ATOM      8  N   UNL     1      34.475 -24.652 -13.204  0.00  0.00    -0.180 NA
ATOM      9  C   UNL     1      33.705 -23.684 -15.107  0.00  0.00    +0.067 C 
ATOM     10  C   UNL     1      32.604 -24.056 -14.373  0.00  0.00    +0.036 C 
ATOM     11  C   UNL     1      33.139 -24.646 -13.212  0.00  0.00    +0.119 C 
ATOM     12  H   UNL     1      35.716 -23.912 -14.663  0.00  0.00    +0.174 HD
BRANCH  10  14
ATOM     13  N   UNL     1      28.583 -23.456 -15.543  0.00  0.00    -0.242 NA
ATOM     14  C   UNL     1      31.244 -23.852 -14.769  0.00  0.00    +0.006 C 
ATOM     15  C   UNL     1      30.520 -24.890 -15.351  0.00  0.00    +0.021 C 
ATOM     16  C   UNL     1      30.633 -22.616 -14.575  0.00  0.00    +0.021 C 
ATOM     17  C   UNL     1      29.207 -24.643 -15.716  0.00  0.00    +0.099 C 
ATOM     18  C   UNL     1      29.315 -22.471 -14.976  0.00  0.00    +0.099 C 
ENDBRANCH  10  14
ENDBRANCH   1   9
BRANCH   4  19
ATOM     19  O   UNL     1      34.214 -21.161 -20.073  0.00  0.00    -0.468 OA
BRANCH  19  20
ATOM     20  C   UNL     1      35.462 -20.541 -20.351  0.00  0.00    +0.264 C 
BRANCH  20  22
ATOM     21  N   UNL     1      35.091 -18.181 -20.740  0.00  0.00    -0.406 NA
ATOM     22  C   UNL     1      35.251 -19.404 -21.295  0.00  0.00    +0.152 C 
ATOM     23  C   UNL     1      34.857 -17.278 -22.961  0.00  0.00    +0.026 C 
ATOM     24  C   UNL     1      34.897 -17.130 -21.559  0.00  0.00    +0.113 C 
ATOM     25  C   UNL     1      35.227 -19.646 -22.653  0.00  0.00    +0.031 C 
ATOM     26  C   UNL     1      35.027 -18.562 -23.495  0.00  0.00    +0.005 C 
ATOM     27  C   UNL     1      34.652 -16.159 -23.787  0.00  0.00    +0.002 C 
ATOM     28  C   UNL     1      34.729 -15.853 -21.030  0.00  0.00    +0.085 C 
ATOM     29  C   UNL     1      34.486 -14.894 -23.232  0.00  0.00    -0.004 C 
ATOM     30  C   UNL     1      34.524 -14.741 -21.851  0.00  0.00    -0.019 C 
ENDBRANCH  20  22
ENDBRANCH  19  20
ENDBRANCH   4  19
TORSDOF 5
ENDMDL
MODEL 6
REMARK VINA RESULT:     -11.8      2.981      5.303
REMARK  Name = 11610553
REMARK  5 active torsions:
REMARK  status: ('A' for Active; 'I' for Inactive)
REMARK    1  A    between atoms: C_1  and  C_9
REMARK    2  A    between atoms: C_4  and  O_19
REMARK    3  A    between atoms: C_10  and  C_14
REMARK    4  A    between atoms: O_19  and  C_20
REMARK    5  A    between atoms: C_20  and  C_22
REMARK                            x       y       z     vdW  Elec       q    Type
REMARK                         _______ _______ _______ _____ _____    ______ ____
ROOT
ATOM      1  C   UNL     1      34.891 -23.919 -13.445  0.00  0.00    +0.015 C 
ATOM      2  C   UNL     1      33.572 -24.251 -13.755  0.00  0.00    +0.004 C 
ATOM      3  C   UNL     1      35.669 -23.218 -14.367  0.00  0.00    +0.004 C 
ATOM      4  C   UNL     1      33.813 -23.185 -15.901  0.00  0.00    +0.139 C 
ATOM      5  C   UNL     1      33.032 -23.883 -14.987  0.00  0.00    +0.037 C 
ATOM      6  C   UNL     1      35.129 -22.850 -15.599  0.00  0.00    +0.037 C 
ENDROOT
BRANCH   1   9
ATOM      7  N   UNL     1      34.859 -23.962 -10.989  0.00  0.00    -0.236 N 
ATOM      8  N   UNL     1      35.521 -24.403  -9.905  0.00  0.00    -0.180 NA
ATOM      9  C   UNL     1      35.450 -24.300 -12.171  0.00  0.00    +0.067 C 
ATOM     10  C   UNL     1      36.578 -25.011 -11.837  0.00  0.00    +0.036 C 
ATOM     11  C   UNL     1      36.570 -25.043 -10.430  0.00  0.00    +0.119 C 
ATOM     12  H   UNL     1      34.024 -23.444 -10.935  0.00  0.00    +0.174 HD
BRANCH  10  14
ATOM     13  N   UNL     1      39.325 -26.650 -14.606  0.00  0.00    -0.242 NA
ATOM     14  C   UNL     1      37.507 -25.566 -12.773  0.00  0.00    +0.006 C 
ATOM     15  C   UNL     1      37.106 -26.572 -13.649  0.00  0.00    +0.021 C 
ATOM     16  C   UNL     1      38.820 -25.104 -12.818  0.00  0.00    +0.021 C 
ATOM     17  C   UNL     1      38.043 -27.076 -14.536  0.00  0.00    +0.099 C 
ATOM     18  C   UNL     1      39.681 -25.673 -13.743  0.00  0.00    +0.099 C 
ENDBRANCH  10  14
ENDBRANCH   1   9
BRANCH   4  19
ATOM     19  O   UNL     1      33.282 -22.824 -17.111  0.00  0.00    -0.468 OA
BRANCH  19  20
ATOM     20  C   UNL     1      34.023 -23.184 -18.269  0.00  0.00    +0.264 C 
BRANCH  20  22
ATOM     21  N   UNL     1      35.481 -21.577 -19.341  0.00  0.00    -0.406 NA
ATOM     22  C   UNL     1      34.208 -21.982 -19.134  0.00  0.00    +0.152 C 
ATOM     23  C   UNL     1      34.620 -19.785 -20.702  0.00  0.00    +0.026 C 
ATOM     24  C   UNL     1      35.688 -20.494 -20.114  0.00  0.00    +0.113 C 
ATOM     25  C   UNL     1      33.100 -21.354 -19.666  0.00  0.00    +0.031 C 
ATOM     26  C   UNL     1      33.316 -20.238 -20.462  0.00  0.00    +0.005 C 
ATOM     27  C   UNL     1      34.871 -18.659 -21.504  0.00  0.00    +0.002 C 
ATOM     28  C   UNL     1      36.983 -20.043 -20.354  0.00  0.00    +0.085 C 
ATOM     29  C   UNL     1      36.177 -18.230 -21.727  0.00  0.00    -0.004 C 
ATOM     30  C   UNL     1      37.234 -18.923 -21.150  0.00  0.00    -0.019 C 
ENDBRANCH  20  22
ENDBRANCH  19  20
ENDBRANCH   4  19
TORSDOF 5
ENDMDL
MODEL 7
REMARK VINA RESULT:     -11.6      2.908      5.544
REMARK  Name = 11610553
REMARK  5 active torsions:
REMARK  status: ('A' for Active; 'I' for Inactive)
REMARK    1  A    between atoms: C_1  and  C_9
REMARK    2  A    between atoms: C_4  and  O_19
REMARK    3  A    between atoms: C_10  and  C_14
REMARK    4  A    between atoms: O_19  and  C_20
REMARK    5  A    between atoms: C_20  and  C_22
REMARK                            x       y       z     vdW  Elec       q    Type
REMARK                         _______ _______ _______ _____ _____    ______ ____
ROOT
ATOM      1  C   UNL     1      37.354 -24.132 -15.180  0.00  0.00    +0.015 C 
ATOM      2  C   UNL     1      36.129 -24.796 -15.119  0.00  0.00    +0.004 C 
ATOM      3  C   UNL     1      37.455 -22.914 -15.851  0.00  0.00    +0.004 C 
ATOM      4  C   UNL     1      35.114 -23.027 -16.400  0.00  0.00    +0.139 C 
ATOM      5  C   UNL     1      35.005 -24.241 -15.732  0.00  0.00    +0.037 C 
ATOM      6  C   UNL     1      36.332 -22.360 -16.464  0.00  0.00    +0.037 C 
ENDROOT
BRANCH   1   9
ATOM      7  N   UNL     1      39.609 -25.107 -15.260  0.00  0.00    -0.236 N 
ATOM      8  N   UNL     1      40.595 -25.616 -14.503  0.00  0.00    -0.180 NA
ATOM      9  C   UNL     1      38.516 -24.706 -14.547  0.00  0.00    +0.067 C 
ATOM     10  C   UNL     1      38.810 -24.973 -13.231  0.00  0.00    +0.036 C 
ATOM     11  C   UNL     1      40.101 -25.532 -13.265  0.00  0.00    +0.119 C 
ATOM     12  H   UNL     1      39.668 -25.028 -16.239  0.00  0.00    +0.174 HD
BRANCH  10  14
ATOM     13  N   UNL     1      36.237 -24.198  -9.963  0.00  0.00    -0.242 NA
ATOM     14  C   UNL     1      37.940 -24.711 -12.125  0.00  0.00    +0.006 C 
ATOM     15  C   UNL     1      38.017 -23.500 -11.442  0.00  0.00    +0.021 C 
ATOM     16  C   UNL     1      37.007 -25.664 -11.723  0.00  0.00    +0.021 C 
ATOM     17  C   UNL     1      37.153 -23.294 -10.379  0.00  0.00    +0.099 C 
ATOM     18  C   UNL     1      36.188 -25.362 -10.647  0.00  0.00    +0.099 C 
ENDBRANCH  10  14
ENDBRANCH   1   9
BRANCH   4  19
ATOM     19  O   UNL     1      34.010 -22.483 -17.002  0.00  0.00    -0.468 OA
BRANCH  19  20
ATOM     20  C   UNL     1      33.763 -22.860 -18.350  0.00  0.00    +0.264 C 
BRANCH  20  22
ATOM     21  N   UNL     1      35.340 -21.386 -19.446  0.00  0.00    -0.406 NA
ATOM     22  C   UNL     1      34.039 -21.700 -19.248  0.00  0.00    +0.152 C 
ATOM     23  C   UNL     1      34.618 -19.586 -20.876  0.00  0.00    +0.026 C 
ATOM     24  C   UNL     1      35.629 -20.345 -20.248  0.00  0.00    +0.113 C 
ATOM     25  C   UNL     1      32.984 -21.017 -19.817  0.00  0.00    +0.031 C 
ATOM     26  C   UNL     1      33.284 -19.945 -20.643  0.00  0.00    +0.005 C 
ATOM     27  C   UNL     1      34.955 -18.505 -21.708  0.00  0.00    +0.002 C 
ATOM     28  C   UNL     1      36.954 -19.988 -20.481  0.00  0.00    +0.085 C 
ATOM     29  C   UNL     1      36.289 -18.170 -21.922  0.00  0.00    -0.004 C 
ATOM     30  C   UNL     1      37.290 -18.912 -21.307  0.00  0.00    -0.019 C 
ENDBRANCH  20  22
ENDBRANCH  19  20
ENDBRANCH   4  19
TORSDOF 5
ENDMDL
MODEL 8
REMARK VINA RESULT:     -11.6      1.904      9.312
REMARK  Name = 11610553
REMARK  5 active torsions:
REMARK  status: ('A' for Active; 'I' for Inactive)
REMARK    1  A    between atoms: C_1  and  C_9
REMARK    2  A    between atoms: C_4  and  O_19
REMARK    3  A    between atoms: C_10  and  C_14
REMARK    4  A    between atoms: O_19  and  C_20
REMARK    5  A    between atoms: C_20  and  C_22
REMARK                            x       y       z     vdW  Elec       q    Type
REMARK                         _______ _______ _______ _____ _____    ______ ____
ROOT
ATOM      1  C   UNL     1      35.288 -17.737 -22.751  0.00  0.00    +0.015 C 
ATOM      2  C   UNL     1      34.479 -18.815 -22.396  0.00  0.00    +0.004 C 
ATOM      3  C   UNL     1      36.514 -17.545 -22.115  0.00  0.00    +0.004 C 
ATOM      4  C   UNL     1      36.119 -19.504 -20.772  0.00  0.00    +0.139 C 
ATOM      5  C   UNL     1      34.896 -19.702 -21.402  0.00  0.00    +0.037 C 
ATOM      6  C   UNL     1      36.931 -18.431 -21.122  0.00  0.00    +0.037 C 
ENDROOT
BRANCH   1   9
ATOM      7  N   UNL     1      35.081 -17.056 -25.103  0.00  0.00    -0.236 N 
ATOM      8  N   UNL     1      34.608 -16.094 -25.914  0.00  0.00    -0.180 NA
ATOM      9  C   UNL     1      34.857 -16.820 -23.778  0.00  0.00    +0.067 C 
ATOM     10  C   UNL     1      34.192 -15.618 -23.718  0.00  0.00    +0.036 C 
ATOM     11  C   UNL     1      34.067 -15.218 -25.062  0.00  0.00    +0.119 C 
ATOM     12  H   UNL     1      35.544 -17.858 -25.435  0.00  0.00    +0.174 HD
BRANCH  10  14
ATOM     13  N   UNL     1      32.904 -13.727 -20.160  0.00  0.00    -0.242 NA
ATOM     14  C   UNL     1      33.756 -14.979 -22.514  0.00  0.00    +0.006 C 
ATOM     15  C   UNL     1      34.133 -15.485 -21.274  0.00  0.00    +0.021 C 
ATOM     16  C   UNL     1      32.951 -13.844 -22.574  0.00  0.00    +0.021 C 
ATOM     17  C   UNL     1      33.686 -14.830 -20.138  0.00  0.00    +0.099 C 
ATOM     18  C   UNL     1      32.556 -13.262 -21.380  0.00  0.00    +0.099 C 
ENDBRANCH  10  14
ENDBRANCH   1   9
BRANCH   4  19
ATOM     19  O   UNL     1      36.528 -20.375 -19.797  0.00  0.00    -0.468 OA
BRANCH  19  20
ATOM     20  C   UNL     1      35.971 -21.682 -19.829  0.00  0.00    +0.264 C 
BRANCH  20  22
ATOM     21  N   UNL     1      34.324 -22.454 -18.232  0.00  0.00    -0.406 NA
ATOM     22  C   UNL     1      35.613 -22.103 -18.443  0.00  0.00    +0.152 C 
ATOM     23  C   UNL     1      34.887 -22.880 -15.928  0.00  0.00    +0.026 C 
ATOM     24  C   UNL     1      33.962 -22.838 -16.993  0.00  0.00    +0.113 C 
ATOM     25  C   UNL     1      36.586 -22.111 -17.465  0.00  0.00    +0.031 C 
ATOM     26  C   UNL     1      36.212 -22.507 -16.189  0.00  0.00    +0.005 C 
ATOM     27  C   UNL     1      34.475 -23.285 -14.647  0.00  0.00    +0.002 C 
ATOM     28  C   UNL     1      32.646 -23.209 -16.733  0.00  0.00    +0.085 C 
ATOM     29  C   UNL     1      33.152 -23.651 -14.415  0.00  0.00    -0.004 C 
ATOM     30  C   UNL     1      32.237 -23.612 -15.459  0.00  0.00    -0.019 C 
ENDBRANCH  20  22
ENDBRANCH  19  20
ENDBRANCH   4  19
TORSDOF 5
ENDMDL
MODEL 9
REMARK VINA RESULT:     -11.5      1.199      3.320
REMARK  Name = 11610553
REMARK  5 active torsions:
REMARK  status: ('A' for Active; 'I' for Inactive)
REMARK    1  A    between atoms: C_1  and  C_9
REMARK    2  A    between atoms: C_4  and  O_19
REMARK    3  A    between atoms: C_10  and  C_14
REMARK    4  A    between atoms: O_19  and  C_20
REMARK    5  A    between atoms: C_20  and  C_22
REMARK                            x       y       z     vdW  Elec       q    Type
REMARK                         _______ _______ _______ _____ _____    ______ ____
ROOT
ATOM      1  C   UNL     1      35.493 -22.345 -17.507  0.00  0.00    +0.015 C 
ATOM      2  C   UNL     1      36.577 -21.680 -18.081  0.00  0.00    +0.004 C 
ATOM      3  C   UNL     1      34.235 -22.273 -18.103  0.00  0.00    +0.004 C 
ATOM      4  C   UNL     1      35.143 -20.874 -19.840  0.00  0.00    +0.139 C 
ATOM      5  C   UNL     1      36.400 -20.942 -19.251  0.00  0.00    +0.037 C 
ATOM      6  C   UNL     1      34.058 -21.535 -19.273  0.00  0.00    +0.037 C 
ENDROOT
BRANCH   1   9
ATOM      7  N   UNL     1      36.903 -23.548 -15.893  0.00  0.00    -0.236 N 
ATOM      8  N   UNL     1      36.880 -24.241 -14.742  0.00  0.00    -0.180 NA
ATOM      9  C   UNL     1      35.676 -23.108 -16.296  0.00  0.00    +0.067 C 
ATOM     10  C   UNL     1      34.789 -23.546 -15.342  0.00  0.00    +0.036 C 
ATOM     11  C   UNL     1      35.586 -24.237 -14.410  0.00  0.00    +0.119 C 
ATOM     12  H   UNL     1      37.729 -23.372 -16.398  0.00  0.00    +0.174 HD
BRANCH  10  14
ATOM     13  N   UNL     1      30.616 -22.851 -15.399  0.00  0.00    -0.242 NA
ATOM     14  C   UNL     1      33.377 -23.310 -15.362  0.00  0.00    +0.006 C 
ATOM     15  C   UNL     1      32.626 -23.641 -16.486  0.00  0.00    +0.021 C 
ATOM     16  C   UNL     1      32.743 -22.749 -14.256  0.00  0.00    +0.021 C 
ATOM     17  C   UNL     1      31.263 -23.394 -16.456  0.00  0.00    +0.099 C 
ATOM     18  C   UNL     1      31.375 -22.541 -14.325  0.00  0.00    +0.099 C 
ENDBRANCH  10  14
ENDBRANCH   1   9
BRANCH   4  19
ATOM     19  O   UNL     1      34.969 -20.149 -20.989  0.00  0.00    -0.468 OA
BRANCH  19  20
ATOM     20  C   UNL     1      36.015 -19.256 -21.347  0.00  0.00    +0.264 C 
BRANCH  20  22
ATOM     21  N   UNL     1      35.294 -17.835 -23.170  0.00  0.00    -0.406 NA
ATOM     22  C   UNL     1      35.428 -17.972 -21.831  0.00  0.00    +0.152 C 
ATOM     23  C   UNL     1      34.363 -15.646 -22.785  0.00  0.00    +0.026 C 
ATOM     24  C   UNL     1      34.769 -16.690 -23.644  0.00  0.00    +0.113 C 
ATOM     25  C   UNL     1      35.060 -17.008 -20.914  0.00  0.00    +0.031 C 
ATOM     26  C   UNL     1      34.520 -15.828 -21.405  0.00  0.00    +0.005 C 
ATOM     27  C   UNL     1      33.819 -14.463 -23.314  0.00  0.00    +0.002 C 
ATOM     28  C   UNL     1      34.612 -16.507 -25.015  0.00  0.00    +0.085 C 
ATOM     29  C   UNL     1      33.674 -14.308 -24.690  0.00  0.00    -0.004 C 
ATOM     30  C   UNL     1      34.072 -15.331 -25.541  0.00  0.00    -0.019 C 
ENDBRANCH  20  22
ENDBRANCH  19  20
ENDBRANCH   4  19
TORSDOF 5
ENDMDL
