MODEL 1
REMARK VINA RESULT:     -10.8      0.000      0.000
REMARK  Name = 9823820
REMARK  6 active torsions:
REMARK  status: ('A' for Active; 'I' for Inactive)
REMARK    1  A    between atoms: O_1  and  C_4
REMARK    2  A    between atoms: O_1  and  C_23
REMARK    3  A    between atoms: C_7  and  C_14
REMARK    4  A    between atoms: C_8  and  O_17
REMARK    5  A    between atoms: C_20  and  N_28
REMARK    6  A    between atoms: N_27  and  C_32
REMARK                            x       y       z     vdW  Elec       q    Type
REMARK                         _______ _______ _______ _____ _____    ______ ____
ROOT
ATOM      1  O   UNL     1      34.375 -22.814 -18.780  0.00  0.00    -0.454 OA
ENDROOT
BRANCH   1   4
ATOM      2  N   UNL     1      35.350 -22.653 -14.753  0.00  0.00    -0.248 NA
ATOM      3  C   UNL     1      33.677 -22.897 -16.470  0.00  0.00    +0.031 C 
ATOM      4  C   UNL     1      34.672 -22.764 -17.449  0.00  0.00    +0.144 C 
ATOM      5  C   UNL     1      34.066 -22.834 -15.116  0.00  0.00    +0.066 C 
ATOM      6  C   UNL     1      32.328 -23.087 -16.813  0.00  0.00    +0.064 C 
ATOM      7  C   UNL     1      31.360 -23.217 -15.821  0.00  0.00    +0.065 C 
ATOM      8  C   UNL     1      31.736 -23.156 -14.485  0.00  0.00    +0.123 C 
ATOM      9  C   UNL     1      33.078 -22.967 -14.144  0.00  0.00    +0.109 C 
ATOM     10  C   UNL     1      35.995 -22.577 -17.078  0.00  0.00    +0.058 C 
ATOM     11  C   UNL     1      36.279 -22.529 -15.728  0.00  0.00    +0.102 C 
BRANCH   7  14
ATOM     12  O   UNL     1      29.338 -22.540 -16.821  0.00  0.00    -0.271 OA
ATOM     13  N   UNL     1      29.372 -24.624 -15.864  0.00  0.00    -0.325 N 
ATOM     14  C   UNL     1      29.969 -23.414 -16.201  0.00  0.00    +0.242 C 
ATOM     15  H   UNL     1      28.433 -24.794 -16.106  0.00  0.00    +0.145 HD
ATOM     16  H   UNL     1      29.889 -25.311 -15.385  0.00  0.00    +0.145 HD
ENDBRANCH   7  14
BRANCH   8  17
ATOM     17  O   UNL     1      30.812 -23.281 -13.491  0.00  0.00    -0.475 OA
ATOM     18  C   UNL     1      30.823 -24.497 -12.745  0.00  0.00    +0.252 C 
ENDBRANCH   8  17
ENDBRANCH   1   4
BRANCH   1  23
ATOM     19 CL   UNL     1      37.405 -19.335 -20.890  0.00  0.00    -0.081 Cl
ATOM     20  C   UNL     1      34.677 -19.286 -20.947  0.00  0.00    +0.062 C 
ATOM     21  C   UNL     1      35.832 -19.948 -20.528  0.00  0.00    +0.074 C 
ATOM     22  C   UNL     1      33.422 -19.811 -20.639  0.00  0.00    +0.019 C 
ATOM     23  C   UNL     1      34.476 -21.639 -19.503  0.00  0.00    +0.146 C 
ATOM     24  C   UNL     1      35.730 -21.134 -19.800  0.00  0.00    +0.050 C 
ATOM     25  C   UNL     1      33.320 -20.997 -19.911  0.00  0.00    +0.039 C 
BRANCH  20  28
ATOM     26  O   UNL     1      34.459 -16.430 -20.042  0.00  0.00    -0.252 OA
ATOM     27  N   UNL     1      34.753 -15.861 -22.261  0.00  0.00    -0.290 N 
ATOM     28  N   UNL     1      34.743 -18.097 -21.678  0.00  0.00    -0.268 N 
ATOM     29  C   UNL     1      34.634 -16.775 -21.209  0.00  0.00    +0.304 C 
ATOM     30  H   UNL     1      34.893 -16.206 -23.173  0.00  0.00    +0.151 HD
ATOM     31  H   UNL     1      34.883 -18.197 -22.648  0.00  0.00    +0.156 HD
BRANCH  27  32
ATOM     32  C   UNL     1      34.680 -14.441 -22.068  0.00  0.00    +0.073 C 
ATOM     33  C   UNL     1      33.361 -13.739 -22.045  0.00  0.00    +0.021 C 
ATOM     34  C   UNL     1      34.303 -13.535 -23.194  0.00  0.00    +0.021 C 
ENDBRANCH  27  32
ENDBRANCH  20  28
ENDBRANCH   1  23
TORSDOF 6
ENDMDL
MODEL 2
REMARK VINA RESULT:     -10.7      1.650      2.133
REMARK  Name = 9823820
REMARK  6 active torsions:
REMARK  status: ('A' for Active; 'I' for Inactive)
REMARK    1  A    between atoms: O_1  and  C_4
REMARK    2  A    between atoms: O_1  and  C_23
REMARK    3  A    between atoms: C_7  and  C_14
REMARK    4  A    between atoms: C_8  and  O_17
REMARK    5  A    between atoms: C_20  and  N_28
REMARK    6  A    between atoms: N_27  and  C_32
REMARK                            x       y       z     vdW  Elec       q    Type
REMARK                         _______ _______ _______ _____ _____    ______ ____
ROOT
ATOM      1  O   UNL     1      34.724 -22.645 -18.195  0.00  0.00    -0.454 OA
ENDROOT
BRANCH   1   4
ATOM      2  N   UNL     1      37.513 -22.388 -15.138  0.00  0.00    -0.248 NA
ATOM      3  C   UNL     1      35.293 -22.972 -15.871  0.00  0.00    +0.031 C 
ATOM      4  C   UNL     1      35.625 -22.570 -17.172  0.00  0.00    +0.144 C 
ATOM      5  C   UNL     1      36.282 -22.862 -14.871  0.00  0.00    +0.066 C 
ATOM      6  C   UNL     1      34.019 -23.471 -15.557  0.00  0.00    +0.064 C 
ATOM      7  C   UNL     1      33.716 -23.864 -14.257  0.00  0.00    +0.065 C 
ATOM      8  C   UNL     1      34.684 -23.759 -13.266  0.00  0.00    +0.123 C 
ATOM      9  C   UNL     1      35.952 -23.262 -13.579  0.00  0.00    +0.109 C 
ATOM     10  C   UNL     1      36.892 -22.081 -17.450  0.00  0.00    +0.058 C 
ATOM     11  C   UNL     1      37.792 -22.010 -16.406  0.00  0.00    +0.102 C 
BRANCH   7  14
ATOM     12  O   UNL     1      31.365 -23.824 -14.393  0.00  0.00    -0.271 OA
ATOM     13  N   UNL     1      32.301 -25.528 -13.179  0.00  0.00    -0.325 N 
ATOM     14  C   UNL     1      32.388 -24.379 -13.956  0.00  0.00    +0.242 C 
ATOM     15  H   UNL     1      31.420 -25.907 -12.955  0.00  0.00    +0.145 HD
ATOM     16  H   UNL     1      33.121 -25.965 -12.852  0.00  0.00    +0.145 HD
ENDBRANCH   7  14
BRANCH   8  17
ATOM     17  O   UNL     1      34.419 -24.136 -11.984  0.00  0.00    -0.475 OA
ATOM     18  C   UNL     1      35.511 -24.646 -11.220  0.00  0.00    +0.252 C 
ENDBRANCH   8  17
ENDBRANCH   1   4
BRANCH   1  23
ATOM     19 CL   UNL     1      37.428 -19.394 -20.996  0.00  0.00    -0.081 Cl
ATOM     20  C   UNL     1      34.704 -19.559 -20.971  0.00  0.00    +0.062 C 
ATOM     21  C   UNL     1      35.915 -20.046 -20.478  0.00  0.00    +0.074 C 
ATOM     22  C   UNL     1      33.500 -20.110 -20.531  0.00  0.00    +0.019 C 
ATOM     23  C   UNL     1      34.717 -21.618 -19.121  0.00  0.00    +0.146 C 
ATOM     24  C   UNL     1      35.921 -21.083 -19.545  0.00  0.00    +0.050 C 
ATOM     25  C   UNL     1      33.507 -21.148 -19.599  0.00  0.00    +0.039 C 
BRANCH  20  28
ATOM     26  O   UNL     1      34.963 -16.590 -20.597  0.00  0.00    -0.252 OA
ATOM     27  N   UNL     1      34.688 -16.428 -22.884  0.00  0.00    -0.290 N 
ATOM     28  N   UNL     1      34.661 -18.521 -21.906  0.00  0.00    -0.268 N 
ATOM     29  C   UNL     1      34.787 -17.138 -21.683  0.00  0.00    +0.304 C 
ATOM     30  H   UNL     1      34.547 -16.931 -23.719  0.00  0.00    +0.151 HD
ATOM     31  H   UNL     1      34.524 -18.794 -22.842  0.00  0.00    +0.156 HD
BRANCH  27  32
ATOM     32  C   UNL     1      34.781 -14.998 -22.951  0.00  0.00    +0.073 C 
ATOM     33  C   UNL     1      33.662 -14.134 -22.464  0.00  0.00    +0.021 C 
ATOM     34  C   UNL     1      33.961 -14.223 -23.931  0.00  0.00    +0.021 C 
ENDBRANCH  27  32
ENDBRANCH  20  28
ENDBRANCH   1  23
TORSDOF 6
ENDMDL
MODEL 3
REMARK VINA RESULT:     -10.5      2.552      4.016
REMARK  Name = 9823820
REMARK  6 active torsions:
REMARK  status: ('A' for Active; 'I' for Inactive)
REMARK    1  A    between atoms: O_1  and  C_4
REMARK    2  A    between atoms: O_1  and  C_23
REMARK    3  A    between atoms: C_7  and  C_14
REMARK    4  A    between atoms: C_8  and  O_17
REMARK    5  A    between atoms: C_20  and  N_28
REMARK    6  A    between atoms: N_27  and  C_32
REMARK                            x       y       z     vdW  Elec       q    Type
REMARK                         _______ _______ _______ _____ _____    ______ ____
ROOT
ATOM      1  O   UNL     1      33.731 -23.549 -18.114  0.00  0.00    -0.454 OA
ENDROOT
BRANCH   1   4
ATOM      2  N   UNL     1      32.155 -23.165 -14.297  0.00  0.00    -0.248 NA
ATOM      3  C   UNL     1      34.039 -23.646 -15.720  0.00  0.00    +0.031 C 
ATOM      4  C   UNL     1      33.234 -23.429 -16.847  0.00  0.00    +0.144 C 
ATOM      5  C   UNL     1      33.450 -23.501 -14.447  0.00  0.00    +0.066 C 
ATOM      6  C   UNL     1      35.394 -23.997 -15.840  0.00  0.00    +0.064 C 
ATOM      7  C   UNL     1      36.170 -24.207 -14.704  0.00  0.00    +0.065 C 
ATOM      8  C   UNL     1      35.597 -24.066 -13.446  0.00  0.00    +0.123 C 
ATOM      9  C   UNL     1      34.250 -23.716 -13.328  0.00  0.00    +0.109 C 
ATOM     10  C   UNL     1      31.900 -23.082 -16.696  0.00  0.00    +0.058 C 
ATOM     11  C   UNL     1      31.413 -22.964 -15.410  0.00  0.00    +0.102 C 
BRANCH   7  14
ATOM     12  O   UNL     1      38.450 -23.705 -15.020  0.00  0.00    -0.271 OA
ATOM     13  N   UNL     1      37.902 -25.919 -14.784  0.00  0.00    -0.325 N 
ATOM     14  C   UNL     1      37.572 -24.570 -14.853  0.00  0.00    +0.242 C 
ATOM     15  H   UNL     1      38.840 -26.203 -14.880  0.00  0.00    +0.145 HD
ATOM     16  H   UNL     1      37.197 -26.591 -14.638  0.00  0.00    +0.145 HD
ENDBRANCH   7  14
BRANCH   8  17
ATOM     17  O   UNL     1      36.331 -24.264 -12.315  0.00  0.00    -0.475 OA
ATOM     18  C   UNL     1      36.813 -23.100 -11.644  0.00  0.00    +0.252 C 
ENDBRANCH   8  17
ENDBRANCH   1   4
BRANCH   1  23
ATOM     19 CL   UNL     1      37.173 -20.333 -19.994  0.00  0.00    -0.081 Cl
ATOM     20  C   UNL     1      34.469 -20.052 -20.225  0.00  0.00    +0.062 C 
ATOM     21  C   UNL     1      35.534 -20.811 -19.739  0.00  0.00    +0.074 C 
ATOM     22  C   UNL     1      33.157 -20.469 -20.002  0.00  0.00    +0.019 C 
ATOM     23  C   UNL     1      33.977 -22.384 -18.818  0.00  0.00    +0.146 C 
ATOM     24  C   UNL     1      35.285 -21.987 -19.030  0.00  0.00    +0.050 C 
ATOM     25  C   UNL     1      32.908 -21.645 -19.293  0.00  0.00    +0.039 C 
BRANCH  20  28
ATOM     26  O   UNL     1      35.085 -19.620 -23.133  0.00  0.00    -0.252 OA
ATOM     27  N   UNL     1      35.114 -17.364 -22.639  0.00  0.00    -0.290 N 
ATOM     28  N   UNL     1      34.682 -18.870 -20.940  0.00  0.00    -0.268 N 
ATOM     29  C   UNL     1      34.970 -18.716 -22.308  0.00  0.00    +0.304 C 
ATOM     30  H   UNL     1      35.008 -16.691 -21.928  0.00  0.00    +0.151 HD
ATOM     31  H   UNL     1      34.623 -18.037 -20.418  0.00  0.00    +0.156 HD
BRANCH  27  32
ATOM     32  C   UNL     1      35.412 -16.918 -23.969  0.00  0.00    +0.073 C 
ATOM     33  C   UNL     1      35.074 -15.529 -24.404  0.00  0.00    +0.021 C 
ATOM     34  C   UNL     1      34.319 -16.698 -24.964  0.00  0.00    +0.021 C 
ENDBRANCH  27  32
ENDBRANCH  20  28
ENDBRANCH   1  23
TORSDOF 6
ENDMDL
MODEL 4
REMARK VINA RESULT:     -10.3      1.352      1.425
REMARK  Name = 9823820
REMARK  6 active torsions:
REMARK  status: ('A' for Active; 'I' for Inactive)
REMARK    1  A    between atoms: O_1  and  C_4
REMARK    2  A    between atoms: O_1  and  C_23
REMARK    3  A    between atoms: C_7  and  C_14
REMARK    4  A    between atoms: C_8  and  O_17
REMARK    5  A    between atoms: C_20  and  N_28
REMARK    6  A    between atoms: N_27  and  C_32
REMARK                            x       y       z     vdW  Elec       q    Type
REMARK                         _______ _______ _______ _____ _____    ______ ____
ROOT
ATOM      1  O   UNL     1      34.263 -22.995 -18.668  0.00  0.00    -0.454 OA
ENDROOT
BRANCH   1   4
ATOM      2  N   UNL     1      35.159 -22.833 -14.623  0.00  0.00    -0.248 NA
ATOM      3  C   UNL     1      33.515 -23.034 -16.372  0.00  0.00    +0.031 C 
ATOM      4  C   UNL     1      34.534 -22.944 -17.331  0.00  0.00    +0.144 C 
ATOM      5  C   UNL     1      33.878 -22.973 -15.011  0.00  0.00    +0.066 C 
ATOM      6  C   UNL     1      32.168 -23.181 -16.741  0.00  0.00    +0.064 C 
ATOM      7  C   UNL     1      31.176 -23.268 -15.769  0.00  0.00    +0.065 C 
ATOM      8  C   UNL     1      31.526 -23.209 -14.426  0.00  0.00    +0.123 C 
ATOM      9  C   UNL     1      32.866 -23.063 -14.059  0.00  0.00    +0.109 C 
ATOM     10  C   UNL     1      35.855 -22.799 -16.935  0.00  0.00    +0.058 C 
ATOM     11  C   UNL     1      36.112 -22.749 -15.580  0.00  0.00    +0.102 C 
BRANCH   7  14
ATOM     12  O   UNL     1      29.204 -22.539 -16.831  0.00  0.00    -0.271 OA
ATOM     13  N   UNL     1      29.136 -24.599 -15.826  0.00  0.00    -0.325 N 
ATOM     14  C   UNL     1      29.787 -23.421 -16.176  0.00  0.00    +0.242 C 
ATOM     15  H   UNL     1      28.196 -24.738 -16.084  0.00  0.00    +0.145 HD
ATOM     16  H   UNL     1      29.615 -25.294 -15.319  0.00  0.00    +0.145 HD
ENDBRANCH   7  14
BRANCH   8  17
ATOM     17  O   UNL     1      30.578 -23.293 -13.450  0.00  0.00    -0.475 OA
ATOM     18  C   UNL     1      30.638 -24.426 -12.585  0.00  0.00    +0.252 C 
ENDBRANCH   8  17
ENDBRANCH   1   4
BRANCH   1  23
ATOM     19 CL   UNL     1      37.319 -19.506 -20.723  0.00  0.00    -0.081 Cl
ATOM     20  C   UNL     1      34.593 -19.467 -20.830  0.00  0.00    +0.062 C 
ATOM     21  C   UNL     1      35.741 -20.124 -20.390  0.00  0.00    +0.074 C 
ATOM     22  C   UNL     1      33.334 -19.995 -20.544  0.00  0.00    +0.019 C 
ATOM     23  C   UNL     1      34.373 -21.820 -19.389  0.00  0.00    +0.146 C 
ATOM     24  C   UNL     1      35.630 -21.311 -19.663  0.00  0.00    +0.050 C 
ATOM     25  C   UNL     1      33.223 -21.181 -19.818  0.00  0.00    +0.039 C 
BRANCH  20  28
ATOM     26  O   UNL     1      34.801 -19.011 -23.791  0.00  0.00    -0.252 OA
ATOM     27  N   UNL     1      34.818 -16.755 -23.293  0.00  0.00    -0.290 N 
ATOM     28  N   UNL     1      34.668 -18.277 -21.560  0.00  0.00    -0.268 N 
ATOM     29  C   UNL     1      34.766 -18.112 -22.953  0.00  0.00    +0.304 C 
ATOM     30  H   UNL     1      34.785 -16.087 -22.570  0.00  0.00    +0.151 HD
ATOM     31  H   UNL     1      34.651 -17.447 -21.030  0.00  0.00    +0.156 HD
BRANCH  27  32
ATOM     32  C   UNL     1      34.920 -16.297 -24.648  0.00  0.00    +0.073 C 
ATOM     33  C   UNL     1      34.900 -14.838 -24.967  0.00  0.00    +0.021 C 
ATOM     34  C   UNL     1      33.738 -15.708 -25.347  0.00  0.00    +0.021 C 
ENDBRANCH  27  32
ENDBRANCH  20  28
ENDBRANCH   1  23
TORSDOF 6
ENDMDL
MODEL 5
REMARK VINA RESULT:     -10.1      2.719      4.026
REMARK  Name = 9823820
REMARK  6 active torsions:
REMARK  status: ('A' for Active; 'I' for Inactive)
REMARK    1  A    between atoms: O_1  and  C_4
REMARK    2  A    between atoms: O_1  and  C_23
REMARK    3  A    between atoms: C_7  and  C_14
REMARK    4  A    between atoms: C_8  and  O_17
REMARK    5  A    between atoms: C_20  and  N_28
REMARK    6  A    between atoms: N_27  and  C_32
REMARK                            x       y       z     vdW  Elec       q    Type
REMARK                         _______ _______ _______ _____ _____    ______ ____
ROOT
ATOM      1  O   UNL     1      35.519 -23.030 -17.449  0.00  0.00    -0.454 OA
ENDROOT
BRANCH   1   4
ATOM      2  N   UNL     1      32.300 -23.358 -14.854  0.00  0.00    -0.248 NA
ATOM      3  C   UNL     1      34.659 -23.620 -15.270  0.00  0.00    +0.031 C 
ATOM      4  C   UNL     1      34.475 -23.147 -16.577  0.00  0.00    +0.144 C 
ATOM      5  C   UNL     1      33.529 -23.710 -14.432  0.00  0.00    +0.066 C 
ATOM      6  C   UNL     1      35.927 -23.996 -14.796  0.00  0.00    +0.064 C 
ATOM      7  C   UNL     1      36.082 -24.462 -13.494  0.00  0.00    +0.065 C 
ATOM      8  C   UNL     1      34.973 -24.554 -12.662  0.00  0.00    +0.123 C 
ATOM      9  C   UNL     1      33.713 -24.180 -13.134  0.00  0.00    +0.109 C 
ATOM     10  C   UNL     1      33.210 -22.783 -17.015  0.00  0.00    +0.058 C 
ATOM     11  C   UNL     1      32.165 -22.906 -16.123  0.00  0.00    +0.102 C 
BRANCH   7  14
ATOM     12  O   UNL     1      38.309 -24.004 -12.881  0.00  0.00    -0.271 OA
ATOM     13  N   UNL     1      37.622 -26.186 -12.724  0.00  0.00    -0.325 N 
ATOM     14  C   UNL     1      37.406 -24.846 -13.025  0.00  0.00    +0.242 C 
ATOM     15  H   UNL     1      38.505 -26.483 -12.403  0.00  0.00    +0.145 HD
ATOM     16  H   UNL     1      36.893 -26.838 -12.831  0.00  0.00    +0.145 HD
ENDBRANCH   7  14
BRANCH   8  17
ATOM     17  O   UNL     1      35.093 -25.006 -11.381  0.00  0.00    -0.475 OA
ATOM     18  C   UNL     1      35.665 -24.110 -10.429  0.00  0.00    +0.252 C 
ENDBRANCH   8  17
ENDBRANCH   1   4
BRANCH   1  23
ATOM     19 CL   UNL     1      32.432 -20.470 -20.556  0.00  0.00    -0.081 Cl
ATOM     20  C   UNL     1      35.154 -20.270 -20.528  0.00  0.00    +0.062 C 
ATOM     21  C   UNL     1      34.014 -20.860 -19.982  0.00  0.00    +0.074 C 
ATOM     22  C   UNL     1      36.416 -20.607 -20.038  0.00  0.00    +0.019 C 
ATOM     23  C   UNL     1      35.397 -22.110 -18.474  0.00  0.00    +0.146 C 
ATOM     24  C   UNL     1      34.137 -21.787 -18.946  0.00  0.00    +0.050 C 
ATOM     25  C   UNL     1      36.539 -21.534 -19.003  0.00  0.00    +0.039 C 
BRANCH  20  28
ATOM     26  O   UNL     1      35.380 -17.275 -20.476  0.00  0.00    -0.252 OA
ATOM     27  N   UNL     1      35.032 -17.358 -22.758  0.00  0.00    -0.290 N 
ATOM     28  N   UNL     1      35.067 -19.337 -21.565  0.00  0.00    -0.268 N 
ATOM     29  C   UNL     1      35.179 -17.937 -21.493  0.00  0.00    +0.304 C 
ATOM     30  H   UNL     1      34.874 -17.948 -23.530  0.00  0.00    +0.151 HD
ATOM     31  H   UNL     1      34.905 -19.708 -22.462  0.00  0.00    +0.156 HD
BRANCH  27  32
ATOM     32  C   UNL     1      35.102 -15.942 -22.977  0.00  0.00    +0.073 C 
ATOM     33  C   UNL     1      33.951 -15.056 -22.625  0.00  0.00    +0.021 C 
ATOM     34  C   UNL     1      34.305 -15.297 -24.063  0.00  0.00    +0.021 C 
ENDBRANCH  27  32
ENDBRANCH  20  28
ENDBRANCH   1  23
TORSDOF 6
ENDMDL
MODEL 6
REMARK VINA RESULT:      -9.7      4.133     10.294
REMARK  Name = 9823820
REMARK  6 active torsions:
REMARK  status: ('A' for Active; 'I' for Inactive)
REMARK    1  A    between atoms: O_1  and  C_4
REMARK    2  A    between atoms: O_1  and  C_23
REMARK    3  A    between atoms: C_7  and  C_14
REMARK    4  A    between atoms: C_8  and  O_17
REMARK    5  A    between atoms: C_20  and  N_28
REMARK    6  A    between atoms: N_27  and  C_32
REMARK                            x       y       z     vdW  Elec       q    Type
REMARK                         _______ _______ _______ _____ _____    ______ ____
ROOT
ATOM      1  O   UNL     1      34.812 -17.811 -22.350  0.00  0.00    -0.454 OA
ENDROOT
BRANCH   1   4
ATOM      2  N   UNL     1      34.331 -14.006 -20.775  0.00  0.00    -0.248 NA
ATOM      3  C   UNL     1      34.365 -15.463 -22.693  0.00  0.00    +0.031 C 
ATOM      4  C   UNL     1      34.650 -16.550 -21.854  0.00  0.00    +0.144 C 
ATOM      5  C   UNL     1      34.212 -14.192 -22.103  0.00  0.00    +0.066 C 
ATOM      6  C   UNL     1      34.235 -15.621 -24.083  0.00  0.00    +0.064 C 
ATOM      7  C   UNL     1      33.952 -14.525 -24.893  0.00  0.00    +0.065 C 
ATOM      8  C   UNL     1      33.799 -13.269 -24.318  0.00  0.00    +0.123 C 
ATOM      9  C   UNL     1      33.929 -13.113 -22.936  0.00  0.00    +0.109 C 
ATOM     10  C   UNL     1      34.772 -16.362 -20.486  0.00  0.00    +0.058 C 
ATOM     11  C   UNL     1      34.605 -15.080 -20.000  0.00  0.00    +0.102 C 
BRANCH   7  14
ATOM     12  O   UNL     1      33.270 -15.724 -26.802  0.00  0.00    -0.271 OA
ATOM     13  N   UNL     1      34.315 -13.715 -27.162  0.00  0.00    -0.325 N 
ATOM     14  C   UNL     1      33.821 -14.713 -26.330  0.00  0.00    +0.242 C 
ATOM     15  H   UNL     1      34.244 -13.807 -28.139  0.00  0.00    +0.145 HD
ATOM     16  H   UNL     1      34.736 -12.914 -26.772  0.00  0.00    +0.145 HD
ENDBRANCH   7  14
BRANCH   8  17
ATOM     17  O   UNL     1      33.521 -12.177 -25.085  0.00  0.00    -0.475 OA
ATOM     18  C   UNL     1      34.292 -11.001 -24.841  0.00  0.00    +0.252 C 
ENDBRANCH   8  17
ENDBRANCH   1   4
BRANCH   1  23
ATOM     19 CL   UNL     1      33.419 -21.619 -19.301  0.00  0.00    -0.081 Cl
ATOM     20  C   UNL     1      35.985 -20.779 -19.695  0.00  0.00    +0.062 C 
ATOM     21  C   UNL     1      34.634 -20.612 -20.002  0.00  0.00    +0.074 C 
ATOM     22  C   UNL     1      36.941 -19.949 -20.280  0.00  0.00    +0.019 C 
ATOM     23  C   UNL     1      35.202 -18.801 -21.466  0.00  0.00    +0.146 C 
ATOM     24  C   UNL     1      34.240 -19.615 -20.895  0.00  0.00    +0.050 C 
ATOM     25  C   UNL     1      36.547 -18.952 -21.173  0.00  0.00    +0.039 C 
BRANCH  20  28
ATOM     26  O   UNL     1      37.325 -20.540 -17.017  0.00  0.00    -0.252 OA
ATOM     27  N   UNL     1      37.314 -22.849 -16.972  0.00  0.00    -0.290 N 
ATOM     28  N   UNL     1      36.414 -21.768 -18.805  0.00  0.00    -0.268 N 
ATOM     29  C   UNL     1      37.041 -21.608 -17.556  0.00  0.00    +0.304 C 
ATOM     30  H   UNL     1      37.059 -23.666 -17.459  0.00  0.00    +0.151 HD
ATOM     31  H   UNL     1      36.259 -22.697 -19.090  0.00  0.00    +0.156 HD
BRANCH  27  32
ATOM     32  C   UNL     1      37.952 -22.982 -15.693  0.00  0.00    +0.073 C 
ATOM     33  C   UNL     1      37.838 -24.249 -14.909  0.00  0.00    +0.021 C 
ATOM     34  C   UNL     1      37.145 -23.005 -14.436  0.00  0.00    +0.021 C 
ENDBRANCH  27  32
ENDBRANCH  20  28
ENDBRANCH   1  23
TORSDOF 6
ENDMDL
MODEL 7
REMARK VINA RESULT:      -9.5      4.625     12.186
REMARK  Name = 9823820
REMARK  6 active torsions:
REMARK  status: ('A' for Active; 'I' for Inactive)
REMARK    1  A    between atoms: O_1  and  C_4
REMARK    2  A    between atoms: O_1  and  C_23
REMARK    3  A    between atoms: C_7  and  C_14
REMARK    4  A    between atoms: C_8  and  O_17
REMARK    5  A    between atoms: C_20  and  N_28
REMARK    6  A    between atoms: N_27  and  C_32
REMARK                            x       y       z     vdW  Elec       q    Type
REMARK                         _______ _______ _______ _____ _____    ______ ____
ROOT
ATOM      1  O   UNL     1      33.075 -12.792 -22.924  0.00  0.00    -0.454 OA
ENDROOT
BRANCH   1   4
ATOM      2  N   UNL     1      31.015 -10.497 -20.151  0.00  0.00    -0.248 NA
ATOM      3  C   UNL     1      32.594 -10.627 -21.966  0.00  0.00    +0.031 C 
ATOM      4  C   UNL     1      32.409 -12.016 -22.020  0.00  0.00    +0.144 C 
ATOM      5  C   UNL     1      31.868  -9.898 -21.003  0.00  0.00    +0.066 C 
ATOM      6  C   UNL     1      33.476  -9.969 -22.840  0.00  0.00    +0.064 C 
ATOM      7  C   UNL     1      33.642  -8.589 -22.765  0.00  0.00    +0.065 C 
ATOM      8  C   UNL     1      32.929  -7.863 -21.819  0.00  0.00    +0.123 C 
ATOM      9  C   UNL     1      32.052  -8.518 -20.951  0.00  0.00    +0.109 C 
ATOM     10  C   UNL     1      31.531 -12.637 -21.143  0.00  0.00    +0.058 C 
ATOM     11  C   UNL     1      30.864 -11.839 -20.236  0.00  0.00    +0.102 C 
BRANCH   7  14
ATOM     12  O   UNL     1      35.690  -8.394 -23.912  0.00  0.00    -0.271 OA
ATOM     13  N   UNL     1      34.124  -6.768 -24.309  0.00  0.00    -0.325 N 
ATOM     14  C   UNL     1      34.560  -7.929 -23.682  0.00  0.00    +0.242 C 
ATOM     15  H   UNL     1      34.717  -6.294 -24.937  0.00  0.00    +0.145 HD
ATOM     16  H   UNL     1      33.221  -6.419 -24.127  0.00  0.00    +0.145 HD
ENDBRANCH   7  14
BRANCH   8  17
ATOM     17  O   UNL     1      33.068  -6.511 -21.722  0.00  0.00    -0.475 OA
ATOM     18  C   UNL     1      31.871  -5.740 -21.638  0.00  0.00    +0.252 C 
ENDBRANCH   8  17
ENDBRANCH   1   4
BRANCH   1  23
ATOM     19 CL   UNL     1      35.193 -17.271 -24.013  0.00  0.00    -0.081 Cl
ATOM     20  C   UNL     1      34.935 -16.222 -21.507  0.00  0.00    +0.062 C 
ATOM     21  C   UNL     1      34.711 -16.065 -22.875  0.00  0.00    +0.074 C 
ATOM     22  C   UNL     1      34.534 -15.227 -20.616  0.00  0.00    +0.019 C 
ATOM     23  C   UNL     1      33.696 -13.934 -22.452  0.00  0.00    +0.146 C 
ATOM     24  C   UNL     1      34.086 -14.911 -23.351  0.00  0.00    +0.050 C 
ATOM     25  C   UNL     1      33.910 -14.073 -21.092  0.00  0.00    +0.039 C 
BRANCH  20  28
ATOM     26  O   UNL     1      34.002 -19.076 -21.423  0.00  0.00    -0.252 OA
ATOM     27  N   UNL     1      36.007 -19.544 -20.376  0.00  0.00    -0.290 N 
ATOM     28  N   UNL     1      35.558 -17.364 -20.997  0.00  0.00    -0.268 N 
ATOM     29  C   UNL     1      35.080 -18.687 -20.979  0.00  0.00    +0.304 C 
ATOM     30  H   UNL     1      36.852 -19.166 -20.042  0.00  0.00    +0.151 HD
ATOM     31  H   UNL     1      36.447 -17.225 -20.597  0.00  0.00    +0.156 HD
BRANCH  27  32
ATOM     32  C   UNL     1      35.776 -20.952 -20.223  0.00  0.00    +0.073 C 
ATOM     33  C   UNL     1      34.714 -21.459 -19.302  0.00  0.00    +0.021 C 
ATOM     34  C   UNL     1      36.162 -21.657 -18.963  0.00  0.00    +0.021 C 
ENDBRANCH  27  32
ENDBRANCH  20  28
ENDBRANCH   1  23
TORSDOF 6
ENDMDL
MODEL 8
REMARK VINA RESULT:      -9.3      9.179     16.525
REMARK  Name = 9823820
REMARK  6 active torsions:
REMARK  status: ('A' for Active; 'I' for Inactive)
REMARK    1  A    between atoms: O_1  and  C_4
REMARK    2  A    between atoms: O_1  and  C_23
REMARK    3  A    between atoms: C_7  and  C_14
REMARK    4  A    between atoms: C_8  and  O_17
REMARK    5  A    between atoms: C_20  and  N_28
REMARK    6  A    between atoms: N_27  and  C_32
REMARK                            x       y       z     vdW  Elec       q    Type
REMARK                         _______ _______ _______ _____ _____    ______ ____
ROOT
ATOM      1  O   UNL     1      33.815  -6.663 -22.194  0.00  0.00    -0.454 OA
ENDROOT
BRANCH   1   4
ATOM      2  N   UNL     1      30.214  -4.607 -22.178  0.00  0.00    -0.248 NA
ATOM      3  C   UNL     1      32.308  -5.106 -23.260  0.00  0.00    +0.031 C 
ATOM      4  C   UNL     1      32.635  -5.975 -22.210  0.00  0.00    +0.144 C 
ATOM      5  C   UNL     1      31.070  -4.433 -23.202  0.00  0.00    +0.066 C 
ATOM      6  C   UNL     1      33.177  -4.901 -24.345  0.00  0.00    +0.064 C 
ATOM      7  C   UNL     1      32.826  -4.032 -25.374  0.00  0.00    +0.065 C 
ATOM      8  C   UNL     1      31.608  -3.366 -25.324  0.00  0.00    +0.123 C 
ATOM      9  C   UNL     1      30.744  -3.570 -24.245  0.00  0.00    +0.109 C 
ATOM     10  C   UNL     1      31.756  -6.156 -21.154  0.00  0.00    +0.058 C 
ATOM     11  C   UNL     1      30.568  -5.455 -21.185  0.00  0.00    +0.102 C 
BRANCH   7  14
ATOM     12  O   UNL     1      34.062  -4.778 -27.235  0.00  0.00    -0.271 OA
ATOM     13  N   UNL     1      34.239  -2.555 -26.700  0.00  0.00    -0.325 N 
ATOM     14  C   UNL     1      33.744  -3.837 -26.487  0.00  0.00    +0.242 C 
ATOM     15  H   UNL     1      34.861  -2.384 -27.444  0.00  0.00    +0.145 HD
ATOM     16  H   UNL     1      33.967  -1.818 -26.107  0.00  0.00    +0.145 HD
ENDBRANCH   7  14
BRANCH   8  17
ATOM     17  O   UNL     1      31.236  -2.510 -26.317  0.00  0.00    -0.475 OA
ATOM     18  C   UNL     1      29.859  -2.143 -26.373  0.00  0.00    +0.252 C 
ENDBRANCH   8  17
ENDBRANCH   1   4
BRANCH   1  23
ATOM     19 CL   UNL     1      36.066 -10.033 -25.245  0.00  0.00    -0.081 Cl
ATOM     20  C   UNL     1      33.819 -10.503 -23.769  0.00  0.00    +0.062 C 
ATOM     21  C   UNL     1      34.814  -9.597 -24.138  0.00  0.00    +0.074 C 
ATOM     22  C   UNL     1      32.824 -10.118 -22.871  0.00  0.00    +0.019 C 
ATOM     23  C   UNL     1      33.817  -7.943 -22.718  0.00  0.00    +0.146 C 
ATOM     24  C   UNL     1      34.813  -8.307 -23.607  0.00  0.00    +0.050 C 
ATOM     25  C   UNL     1      32.822  -8.828 -22.341  0.00  0.00    +0.039 C 
BRANCH  20  28
ATOM     26  O   UNL     1      34.177 -13.146 -22.387  0.00  0.00    -0.252 OA
ATOM     27  N   UNL     1      33.866 -14.106 -24.465  0.00  0.00    -0.290 N 
ATOM     28  N   UNL     1      33.791 -11.804 -24.280  0.00  0.00    -0.268 N 
ATOM     29  C   UNL     1      33.966 -13.018 -23.592  0.00  0.00    +0.304 C 
ATOM     30  H   UNL     1      33.694 -13.931 -25.419  0.00  0.00    +0.151 HD
ATOM     31  H   UNL     1      33.629 -11.880 -25.249  0.00  0.00    +0.156 HD
BRANCH  27  32
ATOM     32  C   UNL     1      34.004 -15.466 -24.030  0.00  0.00    +0.073 C 
ATOM     33  C   UNL     1      35.273 -15.944 -23.402  0.00  0.00    +0.021 C 
ATOM     34  C   UNL     1      34.883 -16.420 -24.770  0.00  0.00    +0.021 C 
ENDBRANCH  27  32
ENDBRANCH  20  28
ENDBRANCH   1  23
TORSDOF 6
ENDMDL
MODEL 9
REMARK VINA RESULT:      -9.2      6.409     10.323
REMARK  Name = 9823820
REMARK  6 active torsions:
REMARK  status: ('A' for Active; 'I' for Inactive)
REMARK    1  A    between atoms: O_1  and  C_4
REMARK    2  A    between atoms: O_1  and  C_23
REMARK    3  A    between atoms: C_7  and  C_14
REMARK    4  A    between atoms: C_8  and  O_17
REMARK    5  A    between atoms: C_20  and  N_28
REMARK    6  A    between atoms: N_27  and  C_32
REMARK                            x       y       z     vdW  Elec       q    Type
REMARK                         _______ _______ _______ _____ _____    ______ ____
ROOT
ATOM      1  O   UNL     1      34.362 -13.792 -22.480  0.00  0.00    -0.454 OA
ENDROOT
BRANCH   1   4
ATOM      2  N   UNL     1      34.008 -16.082 -25.919  0.00  0.00    -0.248 NA
ATOM      3  C   UNL     1      34.532 -15.940 -23.571  0.00  0.00    +0.031 C 
ATOM      4  C   UNL     1      34.253 -14.566 -23.599  0.00  0.00    +0.144 C 
ATOM      5  C   UNL     1      34.395 -16.668 -24.770  0.00  0.00    +0.066 C 
ATOM      6  C   UNL     1      34.939 -16.584 -22.391  0.00  0.00    +0.064 C 
ATOM      7  C   UNL     1      35.210 -17.949 -22.391  0.00  0.00    +0.065 C 
ATOM      8  C   UNL     1      35.077 -18.674 -23.569  0.00  0.00    +0.123 C 
ATOM      9  C   UNL     1      34.673 -18.033 -24.742  0.00  0.00    +0.109 C 
ATOM     10  C   UNL     1      33.854 -13.959 -24.780  0.00  0.00    +0.058 C 
ATOM     11  C   UNL     1      33.748 -14.755 -25.903  0.00  0.00    +0.102 C 
BRANCH   7  14
ATOM     12  O   UNL     1      36.696 -18.289 -20.595  0.00  0.00    -0.271 OA
ATOM     13  N   UNL     1      34.784 -19.555 -20.610  0.00  0.00    -0.325 N 
ATOM     14  C   UNL     1      35.629 -18.595 -21.156  0.00  0.00    +0.242 C 
ATOM     15  H   UNL     1      35.033 -20.013 -19.774  0.00  0.00    +0.145 HD
ATOM     16  H   UNL     1      33.936 -19.777 -21.058  0.00  0.00    +0.145 HD
ENDBRANCH   7  14
BRANCH   8  17
ATOM     17  O   UNL     1      35.334 -20.012 -23.601  0.00  0.00    -0.475 OA
ATOM     18  C   UNL     1      34.982 -20.711 -24.794  0.00  0.00    +0.252 C 
ENDBRANCH   8  17
ENDBRANCH   1   4
BRANCH   1  23
ATOM     19 CL   UNL     1      30.463 -11.189 -20.543  0.00  0.00    -0.081 Cl
ATOM     20  C   UNL     1      32.226 -10.234 -22.393  0.00  0.00    +0.062 C 
ATOM     21  C   UNL     1      31.832 -11.303 -21.589  0.00  0.00    +0.074 C 
ATOM     22  C   UNL     1      33.338 -10.360 -23.225  0.00  0.00    +0.019 C 
ATOM     23  C   UNL     1      33.651 -12.606 -22.450  0.00  0.00    +0.146 C 
ATOM     24  C   UNL     1      32.550 -12.499 -21.618  0.00  0.00    +0.050 C 
ATOM     25  C   UNL     1      34.057 -11.555 -23.254  0.00  0.00    +0.039 C 
BRANCH  20  28
ATOM     26  O   UNL     1      33.110  -7.484 -21.566  0.00  0.00    -0.252 OA
ATOM     27  N   UNL     1      30.981  -6.791 -22.135  0.00  0.00    -0.290 N 
ATOM     28  N   UNL     1      31.530  -9.022 -22.388  0.00  0.00    -0.268 N 
ATOM     29  C   UNL     1      31.987  -7.753 -21.989  0.00  0.00    +0.304 C 
ATOM     30  H   UNL     1      30.104  -7.075 -22.480  0.00  0.00    +0.151 HD
ATOM     31  H   UNL     1      30.598  -9.062 -22.703  0.00  0.00    +0.156 HD
BRANCH  27  32
ATOM     32  C   UNL     1      31.174  -5.409 -21.801  0.00  0.00    +0.073 C 
ATOM     33  C   UNL     1      30.394  -4.339 -22.493  0.00  0.00    +0.021 C 
ATOM     34  C   UNL     1      31.865  -4.484 -22.749  0.00  0.00    +0.021 C 
ENDBRANCH  27  32
ENDBRANCH  20  28
ENDBRANCH   1  23
TORSDOF 6
ENDMDL
