MODEL 1
REMARK VINA RESULT:     -11.5      0.000      0.000
REMARK  Name = 16363
REMARK  6 active torsions:
REMARK  status: ('A' for Active; 'I' for Inactive)
REMARK    1  A    between atoms: N_1  and  C_19
REMARK    2  A    between atoms: C_2  and  N_9
REMARK    3  A    between atoms: C_19  and  C_20
REMARK    4  A    between atoms: C_20  and  C_21
REMARK    5  A    between atoms: C_21  and  C_23
REMARK    6  A    between atoms: C_23  and  C_25
REMARK                            x       y       z     vdW  Elec       q    Type
REMARK                         _______ _______ _______ _____ _____    ______ ____
ROOT
ATOM      1  N   UNL     1      35.065 -15.663 -23.135  0.00  0.00    +0.387 N 
ATOM      2  C   UNL     1      34.870 -18.193 -21.679  0.00  0.00    +0.086 C 
ATOM      3  C   UNL     1      35.470 -18.102 -23.082  0.00  0.00    -0.000 C 
ATOM      4  C   UNL     1      34.995 -16.847 -20.965  0.00  0.00    -0.000 C 
ATOM      5  C   UNL     1      34.881 -16.926 -23.863  0.00  0.00    -0.075 C 
ATOM      6  C   UNL     1      34.422 -15.712 -21.815  0.00  0.00    -0.075 C 
ATOM      7  H   UNL     1      36.065 -15.525 -22.992  0.00  0.00    -0.080 HD
ENDROOT
BRANCH   2   9
ATOM      8  O   UNL     1      37.799 -18.697 -21.162  0.00  0.00    -0.247 OA
ATOM      9  N   UNL     1      35.497 -19.241 -20.913  0.00  0.00    -0.282 N 
ATOM     10  N   UNL     1      37.046 -20.556 -19.908  0.00  0.00    -0.305 N 
ATOM     11  C   UNL     1      34.824 -20.266 -20.235  0.00  0.00    +0.079 A 
ATOM     12  C   UNL     1      36.897 -19.398 -20.724  0.00  0.00    +0.328 A 
ATOM     13  C   UNL     1      35.781 -21.070 -19.621  0.00  0.00    +0.076 A 
ATOM     14  C   UNL     1      33.476 -20.536 -20.123  0.00  0.00    +0.019 C 
ATOM     15  C   UNL     1      35.447 -22.174 -18.869  0.00  0.00    +0.019 C 
ATOM     16  C   UNL     1      33.110 -21.652 -19.364  0.00  0.00    +0.002 C 
ATOM     17  C   UNL     1      34.085 -22.463 -18.744  0.00  0.00    +0.002 C 
ATOM     18  H   UNL     1      37.901 -20.932 -19.598  0.00  0.00    +0.170 HD
ENDBRANCH   2   9
BRANCH   1  19
ATOM     19  C   UNL     1      34.543 -14.542 -23.917  0.00  0.00    -0.077 C 
BRANCH  19  20
ATOM     20  C   UNL     1      34.219 -13.363 -22.998  0.00  0.00    -0.015 C 
BRANCH  20  21
ATOM     21  C   UNL     1      32.713 -13.106 -22.891  0.00  0.00    +0.067 C 
BRANCH  21  23
ATOM     22  O   UNL     1      31.970 -13.926 -20.746  0.00  0.00    -0.291 OA
ATOM     23  C   UNL     1      32.225 -12.956 -21.457  0.00  0.00    +0.173 C 
BRANCH  23  25
ATOM     24  F   UNL     1      31.653  -7.817 -19.352  0.00  0.00    -0.204 F 
ATOM     25  C   UNL     1      32.073 -11.584 -20.894  0.00  0.00    +0.035 C 
ATOM     26  C   UNL     1      32.138 -10.508 -21.751  0.00  0.00    +0.005 C 
ATOM     27  C   UNL     1      31.872 -11.443 -19.540  0.00  0.00    +0.005 C 
ATOM     28  C   UNL     1      31.995  -9.225 -21.226  0.00  0.00    +0.030 C 
ATOM     29  C   UNL     1      31.729 -10.160 -19.014  0.00  0.00    +0.030 C 
ATOM     30  C   UNL     1      31.790  -9.050 -19.856  0.00  0.00    +0.140 C 
ENDBRANCH  23  25
ENDBRANCH  21  23
ENDBRANCH  20  21
ENDBRANCH  19  20
ENDBRANCH   1  19
TORSDOF 6
ENDMDL
MODEL 2
REMARK VINA RESULT:     -11.4      2.037      2.406
REMARK  Name = 16363
REMARK  6 active torsions:
REMARK  status: ('A' for Active; 'I' for Inactive)
REMARK    1  A    between atoms: N_1  and  C_19
REMARK    2  A    between atoms: C_2  and  N_9
REMARK    3  A    between atoms: C_19  and  C_20
REMARK    4  A    between atoms: C_20  and  C_21
REMARK    5  A    between atoms: C_21  and  C_23
REMARK    6  A    between atoms: C_23  and  C_25
REMARK                            x       y       z     vdW  Elec       q    Type
REMARK                         _______ _______ _______ _____ _____    ______ ____
ROOT
ATOM      1  N   UNL     1      35.104 -15.897 -23.485  0.00  0.00    +0.387 N 
ATOM      2  C   UNL     1      34.912 -18.304 -21.833  0.00  0.00    +0.086 C 
ATOM      3  C   UNL     1      35.525 -18.321 -23.233  0.00  0.00    -0.000 C 
ATOM      4  C   UNL     1      35.020 -16.904 -21.228  0.00  0.00    -0.000 C 
ATOM      5  C   UNL     1      34.936 -17.216 -24.112  0.00  0.00    -0.075 C 
ATOM      6  C   UNL     1      34.448 -15.845 -22.171  0.00  0.00    -0.075 C 
ATOM      7  H   UNL     1      36.101 -15.740 -23.345  0.00  0.00    -0.080 HD
ENDROOT
BRANCH   2   9
ATOM      8  O   UNL     1      37.835 -18.710 -21.210  0.00  0.00    -0.247 OA
ATOM      9  N   UNL     1      35.538 -19.282 -20.980  0.00  0.00    -0.282 N 
ATOM     10  N   UNL     1      37.084 -20.491 -19.847  0.00  0.00    -0.305 N 
ATOM     11  C   UNL     1      34.867 -20.271 -20.248  0.00  0.00    +0.079 A 
ATOM     12  C   UNL     1      36.936 -19.397 -20.746  0.00  0.00    +0.328 A 
ATOM     13  C   UNL     1      35.823 -21.010 -19.555  0.00  0.00    +0.076 A 
ATOM     14  C   UNL     1      33.522 -20.559 -20.150  0.00  0.00    +0.019 C 
ATOM     15  C   UNL     1      35.489 -22.065 -18.735  0.00  0.00    +0.019 C 
ATOM     16  C   UNL     1      33.157 -21.627 -19.323  0.00  0.00    +0.002 C 
ATOM     17  C   UNL     1      34.131 -22.372 -18.624  0.00  0.00    +0.002 C 
ATOM     18  H   UNL     1      37.939 -20.827 -19.490  0.00  0.00    +0.170 HD
ENDBRANCH   2   9
BRANCH   1  19
ATOM     19  C   UNL     1      34.582 -14.846 -24.359  0.00  0.00    -0.077 C 
BRANCH  19  20
ATOM     20  C   UNL     1      33.541 -14.008 -23.615  0.00  0.00    -0.015 C 
BRANCH  20  21
ATOM     21  C   UNL     1      34.119 -12.689 -23.096  0.00  0.00    +0.067 C 
BRANCH  21  23
ATOM     22  O   UNL     1      34.272 -11.850 -25.353  0.00  0.00    -0.291 OA
ATOM     23  C   UNL     1      34.179 -11.597 -24.154  0.00  0.00    +0.173 C 
BRANCH  23  25
ATOM     24  F   UNL     1      33.891  -6.266 -22.520  0.00  0.00    -0.204 F 
ATOM     25  C   UNL     1      34.102 -10.174 -23.717  0.00  0.00    +0.035 C 
ATOM     26  C   UNL     1      35.147  -9.331 -24.025  0.00  0.00    +0.005 C 
ATOM     27  C   UNL     1      32.989  -9.754 -23.023  0.00  0.00    +0.005 C 
ATOM     28  C   UNL     1      35.075  -8.000 -23.617  0.00  0.00    +0.030 C 
ATOM     29  C   UNL     1      32.918  -8.423 -22.615  0.00  0.00    +0.030 C 
ATOM     30  C   UNL     1      33.960  -7.545 -22.912  0.00  0.00    +0.140 C 
ENDBRANCH  23  25
ENDBRANCH  21  23
ENDBRANCH  20  21
ENDBRANCH  19  20
ENDBRANCH   1  19
TORSDOF 6
ENDMDL
MODEL 3
REMARK VINA RESULT:     -11.4      3.688      9.846
REMARK  Name = 16363
REMARK  6 active torsions:
REMARK  status: ('A' for Active; 'I' for Inactive)
REMARK    1  A    between atoms: N_1  and  C_19
REMARK    2  A    between atoms: C_2  and  N_9
REMARK    3  A    between atoms: C_19  and  C_20
REMARK    4  A    between atoms: C_20  and  C_21
REMARK    5  A    between atoms: C_21  and  C_23
REMARK    6  A    between atoms: C_23  and  C_25
REMARK                            x       y       z     vdW  Elec       q    Type
REMARK                         _______ _______ _______ _____ _____    ______ ____
ROOT
ATOM      1  N   UNL     1      34.715 -15.079 -23.442  0.00  0.00    +0.387 N 
ATOM      2  C   UNL     1      32.995 -12.785 -22.860  0.00  0.00    +0.086 C 
ATOM      3  C   UNL     1      33.944 -13.380 -21.819  0.00  0.00    -0.000 C 
ATOM      4  C   UNL     1      33.503 -13.089 -24.269  0.00  0.00    -0.000 C 
ATOM      5  C   UNL     1      34.198 -14.865 -22.083  0.00  0.00    -0.075 C 
ATOM      6  C   UNL     1      33.773 -14.583 -24.454  0.00  0.00    -0.075 C 
ATOM      7  H   UNL     1      35.583 -14.552 -23.536  0.00  0.00    -0.080 HD
ENDROOT
BRANCH   2   9
ATOM      8  O   UNL     1      30.876 -11.290 -21.321  0.00  0.00    -0.247 OA
ATOM      9  N   UNL     1      32.835 -11.366 -22.666  0.00  0.00    -0.282 N 
ATOM     10  N   UNL     1      32.042  -9.349 -22.004  0.00  0.00    -0.305 N 
ATOM     11  C   UNL     1      33.679 -10.375 -23.185  0.00  0.00    +0.079 A 
ATOM     12  C   UNL     1      31.796 -10.749 -21.918  0.00  0.00    +0.328 A 
ATOM     13  C   UNL     1      33.185  -9.139 -22.774  0.00  0.00    +0.076 A 
ATOM     14  C   UNL     1      34.811 -10.476 -23.965  0.00  0.00    +0.019 C 
ATOM     15  C   UNL     1      33.791  -7.950 -23.118  0.00  0.00    +0.019 C 
ATOM     16  C   UNL     1      35.445  -9.283 -24.328  0.00  0.00    +0.002 C 
ATOM     17  C   UNL     1      34.940  -8.034 -23.909  0.00  0.00    +0.002 C 
ATOM     18  H   UNL     1      31.494  -8.645 -21.587  0.00  0.00    +0.170 HD
ENDBRANCH   2   9
BRANCH   1  19
ATOM     19  C   UNL     1      35.002 -16.497 -23.662  0.00  0.00    -0.077 C 
BRANCH  19  20
ATOM     20  C   UNL     1      35.320 -17.185 -22.333  0.00  0.00    -0.015 C 
BRANCH  20  21
ATOM     21  C   UNL     1      35.737 -18.646 -22.520  0.00  0.00    +0.067 C 
BRANCH  21  23
ATOM     22  O   UNL     1      37.444 -19.056 -20.864  0.00  0.00    -0.291 OA
ATOM     23  C   UNL     1      36.301 -19.281 -21.257  0.00  0.00    +0.173 C 
BRANCH  23  25
ATOM     24  F   UNL     1      33.024 -22.684 -18.282  0.00  0.00    -0.204 F 
ATOM     25  C   UNL     1      35.427 -20.189 -20.462  0.00  0.00    +0.035 C 
ATOM     26  C   UNL     1      34.061 -20.054 -20.572  0.00  0.00    +0.005 C 
ATOM     27  C   UNL     1      36.016 -21.130 -19.648  0.00  0.00    +0.005 C 
ATOM     28  C   UNL     1      33.242 -20.904 -19.829  0.00  0.00    +0.030 C 
ATOM     29  C   UNL     1      35.198 -21.980 -18.905  0.00  0.00    +0.030 C 
ATOM     30  C   UNL     1      33.811 -21.867 -18.995  0.00  0.00    +0.140 C 
ENDBRANCH  23  25
ENDBRANCH  21  23
ENDBRANCH  20  21
ENDBRANCH  19  20
ENDBRANCH   1  19
TORSDOF 6
ENDMDL
MODEL 4
REMARK VINA RESULT:     -11.4      3.534      9.156
REMARK  Name = 16363
REMARK  6 active torsions:
REMARK  status: ('A' for Active; 'I' for Inactive)
REMARK    1  A    between atoms: N_1  and  C_19
REMARK    2  A    between atoms: C_2  and  N_9
REMARK    3  A    between atoms: C_19  and  C_20
REMARK    4  A    between atoms: C_20  and  C_21
REMARK    5  A    between atoms: C_21  and  C_23
REMARK    6  A    between atoms: C_23  and  C_25
REMARK                            x       y       z     vdW  Elec       q    Type
REMARK                         _______ _______ _______ _____ _____    ______ ____
ROOT
ATOM      1  N   UNL     1      35.028 -15.933 -24.068  0.00  0.00    +0.387 N 
ATOM      2  C   UNL     1      33.368 -13.737 -23.075  0.00  0.00    +0.086 C 
ATOM      3  C   UNL     1      34.589 -14.249 -22.310  0.00  0.00    -0.000 C 
ATOM      4  C   UNL     1      33.515 -14.040 -24.566  0.00  0.00    -0.000 C 
ATOM      5  C   UNL     1      34.864 -15.721 -22.623  0.00  0.00    -0.075 C 
ATOM      6  C   UNL     1      33.826 -15.518 -24.806  0.00  0.00    -0.075 C 
ATOM      7  H   UNL     1      35.806 -15.354 -24.384  0.00  0.00    -0.080 HD
ENDROOT
BRANCH   2   9
ATOM      8  O   UNL     1      34.311 -11.391 -24.717  0.00  0.00    -0.247 OA
ATOM      9  N   UNL     1      33.170 -12.327 -22.854  0.00  0.00    -0.282 N 
ATOM     10  N   UNL     1      33.223 -10.073 -23.083  0.00  0.00    -0.305 N 
ATOM     11  C   UNL     1      32.466 -11.764 -21.780  0.00  0.00    +0.079 A 
ATOM     12  C   UNL     1      33.656 -11.286 -23.690  0.00  0.00    +0.328 A 
ATOM     13  C   UNL     1      32.503 -10.379 -21.928  0.00  0.00    +0.076 A 
ATOM     14  C   UNL     1      31.818 -12.359 -20.719  0.00  0.00    +0.019 C 
ATOM     15  C   UNL     1      31.900  -9.524 -21.032  0.00  0.00    +0.019 C 
ATOM     16  C   UNL     1      31.197 -11.512 -19.795  0.00  0.00    +0.002 C 
ATOM     17  C   UNL     1      31.238 -10.110 -19.949  0.00  0.00    +0.002 C 
ATOM     18  H   UNL     1      33.401  -9.167 -23.424  0.00  0.00    +0.170 HD
ENDBRANCH   2   9
BRANCH   1  19
ATOM     19  C   UNL     1      35.341 -17.334 -24.347  0.00  0.00    -0.077 C 
BRANCH  19  20
ATOM     20  C   UNL     1      34.658 -18.243 -23.323  0.00  0.00    -0.015 C 
BRANCH  20  21
ATOM     21  C   UNL     1      35.602 -19.320 -22.781  0.00  0.00    +0.067 C 
BRANCH  21  23
ATOM     22  O   UNL     1      36.486 -18.374 -20.744  0.00  0.00    -0.291 OA
ATOM     23  C   UNL     1      35.801 -19.246 -21.274  0.00  0.00    +0.173 C 
BRANCH  23  25
ATOM     24  F   UNL     1      33.267 -23.035 -18.050  0.00  0.00    -0.204 F 
ATOM     25  C   UNL     1      35.124 -20.258 -20.413  0.00  0.00    +0.035 C 
ATOM     26  C   UNL     1      35.900 -21.145 -19.702  0.00  0.00    +0.005 C 
ATOM     27  C   UNL     1      33.748 -20.268 -20.361  0.00  0.00    +0.005 C 
ATOM     28  C   UNL     1      35.268 -22.092 -18.897  0.00  0.00    +0.030 C 
ATOM     29  C   UNL     1      33.116 -21.214 -19.556  0.00  0.00    +0.030 C 
ATOM     30  C   UNL     1      33.874 -22.126 -18.823  0.00  0.00    +0.140 C 
ENDBRANCH  23  25
ENDBRANCH  21  23
ENDBRANCH  20  21
ENDBRANCH  19  20
ENDBRANCH   1  19
TORSDOF 6
ENDMDL
MODEL 5
REMARK VINA RESULT:     -11.3      4.197      9.418
REMARK  Name = 16363
REMARK  6 active torsions:
REMARK  status: ('A' for Active; 'I' for Inactive)
REMARK    1  A    between atoms: N_1  and  C_19
REMARK    2  A    between atoms: C_2  and  N_9
REMARK    3  A    between atoms: C_19  and  C_20
REMARK    4  A    between atoms: C_20  and  C_21
REMARK    5  A    between atoms: C_21  and  C_23
REMARK    6  A    between atoms: C_23  and  C_25
REMARK                            x       y       z     vdW  Elec       q    Type
REMARK                         _______ _______ _______ _____ _____    ______ ____
ROOT
ATOM      1  N   UNL     1      36.132 -19.791 -20.206  0.00  0.00    +0.387 N 
ATOM      2  C   UNL     1      35.448 -18.162 -22.539  0.00  0.00    +0.086 C 
ATOM      3  C   UNL     1      34.396 -18.940 -21.748  0.00  0.00    -0.000 C 
ATOM      4  C   UNL     1      36.651 -17.849 -21.648  0.00  0.00    -0.000 C 
ATOM      5  C   UNL     1      35.006 -20.169 -21.070  0.00  0.00    -0.075 C 
ATOM      6  C   UNL     1      37.187 -19.113 -20.973  0.00  0.00    -0.075 C 
ATOM      7  H   UNL     1      35.786 -19.137 -19.504  0.00  0.00    -0.080 HD
ENDROOT
BRANCH   2   9
ATOM      8  O   UNL     1      35.014 -17.407 -25.426  0.00  0.00    -0.247 OA
ATOM      9  N   UNL     1      34.892 -16.955 -23.095  0.00  0.00    -0.282 N 
ATOM     10  N   UNL     1      34.147 -15.388 -24.552  0.00  0.00    -0.305 N 
ATOM     11  C   UNL     1      34.430 -15.858 -22.355  0.00  0.00    +0.079 A 
ATOM     12  C   UNL     1      34.726 -16.687 -24.481  0.00  0.00    +0.328 A 
ATOM     13  C   UNL     1      33.973 -14.899 -23.257  0.00  0.00    +0.076 A 
ATOM     14  C   UNL     1      34.382 -15.647 -20.994  0.00  0.00    +0.019 C 
ATOM     15  C   UNL     1      33.450 -13.692 -22.851  0.00  0.00    +0.019 C 
ATOM     16  C   UNL     1      33.855 -14.428 -20.555  0.00  0.00    +0.002 C 
ATOM     17  C   UNL     1      33.395 -13.461 -21.473  0.00  0.00    +0.002 C 
ATOM     18  H   UNL     1      33.907 -14.913 -25.381  0.00  0.00    +0.170 HD
ENDBRANCH   2   9
BRANCH   1  19
ATOM     19  C   UNL     1      36.672 -20.968 -19.525  0.00  0.00    -0.077 C 
BRANCH  19  20
ATOM     20  C   UNL     1      35.626 -22.083 -19.488  0.00  0.00    -0.015 C 
BRANCH  20  21
ATOM     21  C   UNL     1      35.141 -22.378 -18.066  0.00  0.00    +0.067 C 
BRANCH  21  23
ATOM     22  O   UNL     1      32.894 -22.461 -18.944  0.00  0.00    -0.291 OA
ATOM     23  C   UNL     1      33.637 -22.591 -17.973  0.00  0.00    +0.173 C 
BRANCH  23  25
ATOM     24  F   UNL     1      31.450 -24.090 -13.059  0.00  0.00    -0.204 F 
ATOM     25  C   UNL     1      33.052 -22.992 -16.661  0.00  0.00    +0.035 C 
ATOM     26  C   UNL     1      33.893 -23.477 -15.685  0.00  0.00    +0.005 C 
ATOM     27  C   UNL     1      31.694 -22.862 -16.475  0.00  0.00    +0.005 C 
ATOM     28  C   UNL     1      33.347 -23.851 -14.457  0.00  0.00    +0.030 C 
ATOM     29  C   UNL     1      31.149 -23.236 -15.247  0.00  0.00    +0.030 C 
ATOM     30  C   UNL     1      31.974 -23.730 -14.238  0.00  0.00    +0.140 C 
ENDBRANCH  23  25
ENDBRANCH  21  23
ENDBRANCH  20  21
ENDBRANCH  19  20
ENDBRANCH   1  19
TORSDOF 6
ENDMDL
MODEL 6
REMARK VINA RESULT:     -11.2      5.033      8.356
REMARK  Name = 16363
REMARK  6 active torsions:
REMARK  status: ('A' for Active; 'I' for Inactive)
REMARK    1  A    between atoms: N_1  and  C_19
REMARK    2  A    between atoms: C_2  and  N_9
REMARK    3  A    between atoms: C_19  and  C_20
REMARK    4  A    between atoms: C_20  and  C_21
REMARK    5  A    between atoms: C_21  and  C_23
REMARK    6  A    between atoms: C_23  and  C_25
REMARK                            x       y       z     vdW  Elec       q    Type
REMARK                         _______ _______ _______ _____ _____    ______ ____
ROOT
ATOM      1  N   UNL     1      34.607 -22.832 -17.938  0.00  0.00    +0.387 N 
ATOM      2  C   UNL     1      35.021 -23.164 -15.061  0.00  0.00    +0.086 C 
ATOM      3  C   UNL     1      33.917 -23.902 -15.818  0.00  0.00    -0.000 C 
ATOM      4  C   UNL     1      36.160 -22.800 -16.013  0.00  0.00    -0.000 C 
ATOM      5  C   UNL     1      33.469 -23.117 -17.052  0.00  0.00    -0.075 C 
ATOM      6  C   UNL     1      35.640 -22.052 -17.242  0.00  0.00    -0.075 C 
ATOM      7  H   UNL     1      35.019 -23.721 -18.217  0.00  0.00    -0.080 HD
ENDROOT
BRANCH   2   9
ATOM      8  O   UNL     1      33.609 -23.980 -12.524  0.00  0.00    -0.247 OA
ATOM      9  N   UNL     1      35.508 -23.950 -13.955  0.00  0.00    -0.282 N 
ATOM     10  N   UNL     1      35.641 -25.063 -11.986  0.00  0.00    -0.305 N 
ATOM     11  C   UNL     1      36.791 -24.505 -13.855  0.00  0.00    +0.079 A 
ATOM     12  C   UNL     1      34.762 -24.286 -12.792  0.00  0.00    +0.328 A 
ATOM     13  C   UNL     1      36.865 -25.187 -12.643  0.00  0.00    +0.076 A 
ATOM     14  C   UNL     1      37.862 -24.456 -14.722  0.00  0.00    +0.019 C 
ATOM     15  C   UNL     1      38.002 -25.850 -12.237  0.00  0.00    +0.019 C 
ATOM     16  C   UNL     1      39.029 -25.122 -14.333  0.00  0.00    +0.002 C 
ATOM     17  C   UNL     1      39.098 -25.811 -13.103  0.00  0.00    +0.002 C 
ATOM     18  H   UNL     1      35.420 -25.450 -11.108  0.00  0.00    +0.170 HD
ENDBRANCH   2   9
BRANCH   1  19
ATOM     19  C   UNL     1      34.156 -22.126 -19.138  0.00  0.00    -0.077 C 
BRANCH  19  20
ATOM     20  C   UNL     1      35.266 -21.213 -19.662  0.00  0.00    -0.015 C 
BRANCH  20  21
ATOM     21  C   UNL     1      34.731 -20.130 -20.604  0.00  0.00    +0.067 C 
BRANCH  21  23
ATOM     22  O   UNL     1      36.926 -19.128 -20.556  0.00  0.00    -0.291 OA
ATOM     23  C   UNL     1      35.762 -19.064 -20.946  0.00  0.00    +0.173 C 
BRANCH  23  25
ATOM     24  F   UNL     1      34.197 -14.762 -24.142  0.00  0.00    -0.204 F 
ATOM     25  C   UNL     1      35.344 -17.915 -21.798  0.00  0.00    +0.035 C 
ATOM     26  C   UNL     1      35.331 -18.078 -23.166  0.00  0.00    +0.005 C 
ATOM     27  C   UNL     1      34.987 -16.734 -21.188  0.00  0.00    +0.005 C 
ATOM     28  C   UNL     1      34.940 -17.004 -23.964  0.00  0.00    +0.030 C 
ATOM     29  C   UNL     1      34.596 -15.659 -21.987  0.00  0.00    +0.030 C 
ATOM     30  C   UNL     1      34.572 -15.794 -23.374  0.00  0.00    +0.140 C 
ENDBRANCH  23  25
ENDBRANCH  21  23
ENDBRANCH  20  21
ENDBRANCH  19  20
ENDBRANCH   1  19
TORSDOF 6
ENDMDL
MODEL 7
REMARK VINA RESULT:     -11.2      5.290     11.759
REMARK  Name = 16363
REMARK  6 active torsions:
REMARK  status: ('A' for Active; 'I' for Inactive)
REMARK    1  A    between atoms: N_1  and  C_19
REMARK    2  A    between atoms: C_2  and  N_9
REMARK    3  A    between atoms: C_19  and  C_20
REMARK    4  A    between atoms: C_20  and  C_21
REMARK    5  A    between atoms: C_21  and  C_23
REMARK    6  A    between atoms: C_23  and  C_25
REMARK                            x       y       z     vdW  Elec       q    Type
REMARK                         _______ _______ _______ _____ _____    ______ ____
ROOT
ATOM      1  N   UNL     1      31.624  -9.656 -20.439  0.00  0.00    +0.387 N 
ATOM      2  C   UNL     1      32.379  -7.350 -22.074  0.00  0.00    +0.086 C 
ATOM      3  C   UNL     1      31.530  -8.498 -22.622  0.00  0.00    -0.000 C 
ATOM      4  C   UNL     1      32.225  -7.259 -20.556  0.00  0.00    -0.000 C 
ATOM      5  C   UNL     1      31.825  -9.807 -21.887  0.00  0.00    -0.075 C 
ATOM      6  C   UNL     1      32.496  -8.608 -19.888  0.00  0.00    -0.075 C 
ATOM      7  H   UNL     1      30.657  -9.374 -20.282  0.00  0.00    -0.080 HD
ENDROOT
BRANCH   2   9
ATOM      8  O   UNL     1      30.193  -5.397 -21.366  0.00  0.00    -0.247 OA
ATOM      9  N   UNL     1      32.030  -6.101 -22.701  0.00  0.00    -0.282 N 
ATOM     10  N   UNL     1      31.006  -4.140 -23.197  0.00  0.00    -0.305 N 
ATOM     11  C   UNL     1      32.678  -5.539 -23.810  0.00  0.00    +0.079 A 
ATOM     12  C   UNL     1      30.974  -5.241 -22.293  0.00  0.00    +0.328 A 
ATOM     13  C   UNL     1      32.043  -4.335 -24.109  0.00  0.00    +0.076 A 
ATOM     14  C   UNL     1      33.747  -5.994 -24.552  0.00  0.00    +0.019 C 
ATOM     15  C   UNL     1      32.441  -3.530 -25.153  0.00  0.00    +0.019 C 
ATOM     16  C   UNL     1      34.170  -5.193 -25.618  0.00  0.00    +0.002 C 
ATOM     17  C   UNL     1      33.524  -3.975 -25.916  0.00  0.00    +0.002 C 
ATOM     18  H   UNL     1      30.396  -3.367 -23.179  0.00  0.00    +0.170 HD
ENDBRANCH   2   9
BRANCH   1  19
ATOM     19  C   UNL     1      31.859 -10.928 -19.755  0.00  0.00    -0.077 C 
BRANCH  19  20
ATOM     20  C   UNL     1      31.479 -12.096 -20.667  0.00  0.00    -0.015 C 
BRANCH  20  21
ATOM     21  C   UNL     1      32.489 -13.245 -20.591  0.00  0.00    +0.067 C 
BRANCH  21  23
ATOM     22  O   UNL     1      33.060 -12.814 -22.896  0.00  0.00    -0.291 OA
ATOM     23  C   UNL     1      33.135 -13.570 -21.930  0.00  0.00    +0.173 C 
BRANCH  23  25
ATOM     24  F   UNL     1      36.002 -18.335 -22.426  0.00  0.00    -0.204 F 
ATOM     25  C   UNL     1      33.901 -14.842 -22.063  0.00  0.00    +0.035 C 
ATOM     26  C   UNL     1      34.243 -15.530 -20.920  0.00  0.00    +0.005 C 
ATOM     27  C   UNL     1      34.238 -15.283 -23.323  0.00  0.00    +0.005 C 
ATOM     28  C   UNL     1      34.959 -16.720 -21.043  0.00  0.00    +0.030 C 
ATOM     29  C   UNL     1      34.954 -16.473 -23.446  0.00  0.00    +0.030 C 
ATOM     30  C   UNL     1      35.315 -17.192 -22.307  0.00  0.00    +0.140 C 
ENDBRANCH  23  25
ENDBRANCH  21  23
ENDBRANCH  20  21
ENDBRANCH  19  20
ENDBRANCH   1  19
TORSDOF 6
ENDMDL
MODEL 8
REMARK VINA RESULT:     -11.2      3.354      5.574
REMARK  Name = 16363
REMARK  6 active torsions:
REMARK  status: ('A' for Active; 'I' for Inactive)
REMARK    1  A    between atoms: N_1  and  C_19
REMARK    2  A    between atoms: C_2  and  N_9
REMARK    3  A    between atoms: C_19  and  C_20
REMARK    4  A    between atoms: C_20  and  C_21
REMARK    5  A    between atoms: C_21  and  C_23
REMARK    6  A    between atoms: C_23  and  C_25
REMARK                            x       y       z     vdW  Elec       q    Type
REMARK                         _______ _______ _______ _____ _____    ______ ____
ROOT
ATOM      1  N   UNL     1      31.872 -12.075 -21.652  0.00  0.00    +0.387 N 
ATOM      2  C   UNL     1      33.897 -14.070 -22.343  0.00  0.00    +0.086 C 
ATOM      3  C   UNL     1      32.765 -14.362 -21.358  0.00  0.00    -0.000 C 
ATOM      4  C   UNL     1      33.482 -12.960 -23.308  0.00  0.00    -0.000 C 
ATOM      5  C   UNL     1      32.285 -13.084 -20.668  0.00  0.00    -0.075 C 
ATOM      6  C   UNL     1      32.978 -11.727 -22.555  0.00  0.00    -0.075 C 
ATOM      7  H   UNL     1      31.121 -12.474 -22.215  0.00  0.00    -0.080 HD
ENDROOT
BRANCH   2   9
ATOM      8  O   UNL     1      33.777 -14.640 -25.302  0.00  0.00    -0.247 OA
ATOM      9  N   UNL     1      34.280 -15.259 -23.062  0.00  0.00    -0.282 N 
ATOM     10  N   UNL     1      34.672 -16.751 -24.722  0.00  0.00    -0.305 N 
ATOM     11  C   UNL     1      34.804 -16.424 -22.486  0.00  0.00    +0.079 A 
ATOM     12  C   UNL     1      34.186 -15.437 -24.469  0.00  0.00    +0.328 A 
ATOM     13  C   UNL     1      35.042 -17.336 -23.512  0.00  0.00    +0.076 A 
ATOM     14  C   UNL     1      35.078 -16.731 -21.170  0.00  0.00    +0.019 C 
ATOM     15  C   UNL     1      35.561 -18.590 -23.279  0.00  0.00    +0.019 C 
ATOM     16  C   UNL     1      35.606 -17.999 -20.907  0.00  0.00    +0.002 C 
ATOM     17  C   UNL     1      35.845 -18.919 -21.951  0.00  0.00    +0.002 C 
ATOM     18  H   UNL     1      34.736 -17.177 -25.608  0.00  0.00    +0.170 HD
ENDBRANCH   2   9
BRANCH   1  19
ATOM     19  C   UNL     1      31.368 -10.879 -20.977  0.00  0.00    -0.077 C 
BRANCH  19  20
ATOM     20  C   UNL     1      31.748  -9.626 -21.768  0.00  0.00    -0.015 C 
BRANCH  20  21
ATOM     21  C   UNL     1      32.304  -8.518 -20.870  0.00  0.00    +0.067 C 
BRANCH  21  23
ATOM     22  O   UNL     1      31.331  -6.317 -21.057  0.00  0.00    -0.291 OA
ATOM     23  C   UNL     1      32.161  -7.126 -21.468  0.00  0.00    +0.173 C 
BRANCH  23  25
ATOM     24  F   UNL     1      35.582  -5.632 -25.620  0.00  0.00    -0.204 F 
ATOM     25  C   UNL     1      33.075  -6.728 -22.577  0.00  0.00    +0.035 C 
ATOM     26  C   UNL     1      32.620  -5.828 -23.516  0.00  0.00    +0.005 C 
ATOM     27  C   UNL     1      34.338  -7.273 -22.621  0.00  0.00    +0.005 C 
ATOM     28  C   UNL     1      33.474  -5.455 -24.553  0.00  0.00    +0.030 C 
ATOM     29  C   UNL     1      35.192  -6.899 -23.658  0.00  0.00    +0.030 C 
ATOM     30  C   UNL     1      34.761  -5.991 -24.624  0.00  0.00    +0.140 C 
ENDBRANCH  23  25
ENDBRANCH  21  23
ENDBRANCH  20  21
ENDBRANCH  19  20
ENDBRANCH   1  19
TORSDOF 6
ENDMDL
MODEL 9
REMARK VINA RESULT:     -11.0      3.661      6.215
REMARK  Name = 16363
REMARK  6 active torsions:
REMARK  status: ('A' for Active; 'I' for Inactive)
REMARK    1  A    between atoms: N_1  and  C_19
REMARK    2  A    between atoms: C_2  and  N_9
REMARK    3  A    between atoms: C_19  and  C_20
REMARK    4  A    between atoms: C_20  and  C_21
REMARK    5  A    between atoms: C_21  and  C_23
REMARK    6  A    between atoms: C_23  and  C_25
REMARK                            x       y       z     vdW  Elec       q    Type
REMARK                         _______ _______ _______ _____ _____    ______ ____
ROOT
ATOM      1  N   UNL     1      34.796 -20.500 -19.938  0.00  0.00    +0.387 N 
ATOM      2  C   UNL     1      34.451 -22.623 -17.955  0.00  0.00    +0.086 C 
ATOM      3  C   UNL     1      35.768 -21.866 -18.121  0.00  0.00    -0.000 C 
ATOM      4  C   UNL     1      33.285 -21.763 -18.442  0.00  0.00    -0.000 C 
ATOM      5  C   UNL     1      35.934 -21.344 -19.549  0.00  0.00    -0.075 C 
ATOM      6  C   UNL     1      33.531 -21.244 -19.860  0.00  0.00    -0.075 C 
ATOM      7  H   UNL     1      34.744 -19.721 -19.283  0.00  0.00    -0.080 HD
ENDROOT
BRANCH   2   9
ATOM      8  O   UNL     1      36.494 -23.326 -15.852  0.00  0.00    -0.247 OA
ATOM      9  N   UNL     1      34.253 -23.029 -16.587  0.00  0.00    -0.282 N 
ATOM     10  N   UNL     1      34.624 -23.686 -14.450  0.00  0.00    -0.305 N 
ATOM     11  C   UNL     1      33.011 -23.176 -15.955  0.00  0.00    +0.079 A 
ATOM     12  C   UNL     1      35.286 -23.342 -15.662  0.00  0.00    +0.328 A 
ATOM     13  C   UNL     1      33.247 -23.580 -14.642  0.00  0.00    +0.076 A 
ATOM     14  C   UNL     1      31.731 -22.988 -16.432  0.00  0.00    +0.019 C 
ATOM     15  C   UNL     1      32.227 -23.815 -13.746  0.00  0.00    +0.019 C 
ATOM     16  C   UNL     1      30.677 -23.220 -15.541  0.00  0.00    +0.002 C 
ATOM     17  C   UNL     1      30.923 -23.629 -14.213  0.00  0.00    +0.002 C 
ATOM     18  H   UNL     1      35.067 -23.953 -13.611  0.00  0.00    +0.170 HD
ENDBRANCH   2   9
BRANCH   1  19
ATOM     19  C   UNL     1      34.993 -19.967 -21.287  0.00  0.00    -0.077 C 
BRANCH  19  20
ATOM     20  C   UNL     1      36.174 -18.995 -21.304  0.00  0.00    -0.015 C 
BRANCH  20  21
ATOM     21  C   UNL     1      36.047 -17.945 -22.411  0.00  0.00    +0.067 C 
BRANCH  21  23
ATOM     22  O   UNL     1      34.900 -16.485 -20.869  0.00  0.00    -0.291 OA
ATOM     23  C   UNL     1      35.144 -16.778 -22.038  0.00  0.00    +0.173 C 
BRANCH  23  25
ATOM     24  F   UNL     1      32.934 -13.687 -26.128  0.00  0.00    -0.204 F 
ATOM     25  C   UNL     1      34.554 -15.954 -23.130  0.00  0.00    +0.035 C 
ATOM     26  C   UNL     1      33.862 -14.811 -22.795  0.00  0.00    +0.005 C 
ATOM     27  C   UNL     1      34.722 -16.364 -24.433  0.00  0.00    +0.005 C 
ATOM     28  C   UNL     1      33.310 -14.038 -23.816  0.00  0.00    +0.030 C 
ATOM     29  C   UNL     1      34.170 -15.591 -25.455  0.00  0.00    +0.030 C 
ATOM     30  C   UNL     1      33.465 -14.429 -25.147  0.00  0.00    +0.140 C 
ENDBRANCH  23  25
ENDBRANCH  21  23
ENDBRANCH  20  21
ENDBRANCH  19  20
ENDBRANCH   1  19
TORSDOF 6
ENDMDL
