MODEL 1
REMARK VINA RESULT:     -11.8      0.000      0.000
REMARK  Name = 11978813
REMARK  7 active torsions:
REMARK  status: ('A' for Active; 'I' for Inactive)
REMARK    1  A    between atoms: C_1  and  N_2
REMARK    2  A    between atoms: C_1  and  C_18
REMARK    3  A    between atoms: N_3  and  C_10
REMARK    4  A    between atoms: C_18  and  C_19
REMARK    5  A    between atoms: C_19  and  C_20
REMARK    6  A    between atoms: C_20  and  O_21
REMARK    7  A    between atoms: O_21  and  C_24
REMARK                            x       y       z     vdW  Elec       q    Type
REMARK                         _______ _______ _______ _____ _____    ______ ____
ROOT
ATOM      1  C   UNL     1      31.561  -9.894 -19.439  0.00  0.00    -0.077 C 
ENDROOT
BRANCH   1   2
ATOM      2  N   UNL     1      32.353  -9.241 -20.479  0.00  0.00    +0.389 N 
ATOM      3  N   UNL     1      32.902  -7.315 -22.517  0.00  0.00    -0.312 N 
ATOM      4  C   UNL     1      31.663  -9.312 -21.773  0.00  0.00    -0.055 C 
ATOM      5  C   UNL     1      32.611  -7.840 -20.127  0.00  0.00    -0.055 C 
ATOM      6  C   UNL     1      32.509  -8.682 -22.882  0.00  0.00    +0.068 C 
ATOM      7  C   UNL     1      33.488  -7.159 -21.181  0.00  0.00    +0.068 C 
ATOM      8  H   UNL     1      33.245  -9.731 -20.555  0.00  0.00    -0.080 HD
BRANCH   3  10
ATOM      9  S   UNL     1      31.881  -3.095 -25.112  0.00  0.00    -0.086 S 
ATOM     10  C   UNL     1      33.273  -6.440 -23.544  0.00  0.00    +0.048 C 
ATOM     11  C   UNL     1      32.512  -5.269 -23.864  0.00  0.00    +0.020 C 
ATOM     12  C   UNL     1      34.435  -6.710 -24.300  0.00  0.00    +0.015 C 
ATOM     13  C   UNL     1      32.941  -4.438 -24.904  0.00  0.00    +0.031 C 
ATOM     14  C   UNL     1      31.310  -4.769 -23.263  0.00  0.00    +0.009 C 
ATOM     15  C   UNL     1      34.841  -5.870 -25.328  0.00  0.00    +0.002 C 
ATOM     16  C   UNL     1      34.104  -4.727 -25.645  0.00  0.00    +0.007 C 
ATOM     17  C   UNL     1      30.866  -3.605 -23.842  0.00  0.00    +0.035 C 
ENDBRANCH   3  10
ENDBRANCH   1   2
BRANCH   1  18
ATOM     18  C   UNL     1      30.933 -11.179 -19.977  0.00  0.00    -0.019 C 
BRANCH  18  19
ATOM     19  C   UNL     1      31.922 -12.343 -19.921  0.00  0.00    +0.045 C 
BRANCH  19  20
ATOM     20  C   UNL     1      32.157 -12.947 -21.299  0.00  0.00    +0.205 C 
BRANCH  20  21
ATOM     21  O   UNL     1      33.552 -13.096 -21.529  0.00  0.00    -0.475 OA
BRANCH  21  24
ATOM     22  O   UNL     1      36.204 -19.612 -20.466  0.00  0.00    -0.270 OA
ATOM     23  N   UNL     1      35.348 -17.499 -20.792  0.00  0.00    -0.280 N 
ATOM     24  C   UNL     1      33.971 -14.304 -22.023  0.00  0.00    +0.140 C 
ATOM     25  C   UNL     1      34.444 -15.276 -21.150  0.00  0.00    +0.052 C 
ATOM     26  C   UNL     1      34.868 -16.504 -21.663  0.00  0.00    +0.054 C 
ATOM     27  C   UNL     1      33.919 -14.540 -23.393  0.00  0.00    +0.037 C 
ATOM     28  C   UNL     1      34.821 -16.758 -23.038  0.00  0.00    +0.014 C 
ATOM     29  C   UNL     1      34.343 -15.769 -23.904  0.00  0.00    +0.004 C 
ATOM     30  C   UNL     1      35.274 -18.055 -23.534  0.00  0.00    +0.006 C 
ATOM     31  C   UNL     1      35.784 -18.737 -21.221  0.00  0.00    +0.250 C 
ATOM     32  C   UNL     1      35.727 -18.988 -22.687  0.00  0.00    +0.058 C 
ATOM     33  H   UNL     1      35.374 -17.303 -19.827  0.00  0.00    +0.155 HD
ENDBRANCH  21  24
ENDBRANCH  20  21
ENDBRANCH  19  20
ENDBRANCH  18  19
ENDBRANCH   1  18
TORSDOF 7
ENDMDL
MODEL 2
REMARK VINA RESULT:     -11.7      6.972     11.198
REMARK  Name = 11978813
REMARK  7 active torsions:
REMARK  status: ('A' for Active; 'I' for Inactive)
REMARK    1  A    between atoms: C_1  and  N_2
REMARK    2  A    between atoms: C_1  and  C_18
REMARK    3  A    between atoms: N_3  and  C_10
REMARK    4  A    between atoms: C_18  and  C_19
REMARK    5  A    between atoms: C_19  and  C_20
REMARK    6  A    between atoms: C_20  and  O_21
REMARK    7  A    between atoms: O_21  and  C_24
REMARK                            x       y       z     vdW  Elec       q    Type
REMARK                         _______ _______ _______ _____ _____    ______ ____
ROOT
ATOM      1  C   UNL     1      36.716 -21.447 -19.431  0.00  0.00    -0.077 C 
ENDROOT
BRANCH   1   2
ATOM      2  N   UNL     1      36.222 -20.155 -19.905  0.00  0.00    +0.389 N 
ATOM      3  N   UNL     1      35.399 -18.232 -21.850  0.00  0.00    -0.312 N 
ATOM      4  C   UNL     1      37.211 -19.517 -20.782  0.00  0.00    -0.055 C 
ATOM      5  C   UNL     1      34.952 -20.320 -20.621  0.00  0.00    -0.055 C 
ATOM      6  C   UNL     1      36.730 -18.137 -21.239  0.00  0.00    +0.068 C 
ATOM      7  C   UNL     1      34.395 -18.968 -21.074  0.00  0.00    +0.068 C 
ATOM      8  H   UNL     1      36.067 -19.557 -19.093  0.00  0.00    -0.080 HD
BRANCH   3  10
ATOM      9  S   UNL     1      33.577 -13.538 -22.337  0.00  0.00    -0.086 S 
ATOM     10  C   UNL     1      34.994 -17.204 -22.710  0.00  0.00    +0.048 C 
ATOM     11  C   UNL     1      34.511 -15.946 -22.223  0.00  0.00    +0.020 C 
ATOM     12  C   UNL     1      35.059 -17.401 -24.106  0.00  0.00    +0.015 C 
ATOM     13  C   UNL     1      34.122 -14.963 -23.139  0.00  0.00    +0.031 C 
ATOM     14  C   UNL     1      34.345 -15.492 -20.873  0.00  0.00    +0.009 C 
ATOM     15  C   UNL     1      34.668 -16.410 -24.996  0.00  0.00    +0.002 C 
ATOM     16  C   UNL     1      34.196 -15.181 -24.529  0.00  0.00    +0.007 C 
ATOM     17  C   UNL     1      33.850 -14.212 -20.796  0.00  0.00    +0.035 C 
ENDBRANCH   3  10
ENDBRANCH   1   2
BRANCH   1  18
ATOM     18  C   UNL     1      36.051 -21.816 -18.105  0.00  0.00    -0.019 C 
BRANCH  18  19
ATOM     19  C   UNL     1      37.092 -22.046 -17.011  0.00  0.00    +0.045 C 
BRANCH  19  20
ATOM     20  C   UNL     1      36.439 -22.353 -15.670  0.00  0.00    +0.205 C 
BRANCH  20  21
ATOM     21  O   UNL     1      35.772 -23.606 -15.735  0.00  0.00    -0.475 OA
BRANCH  21  24
ATOM     22  O   UNL     1      28.845 -22.445 -16.868  0.00  0.00    -0.270 OA
ATOM     23  N   UNL     1      31.091 -22.813 -16.517  0.00  0.00    -0.280 N 
ATOM     24  C   UNL     1      34.474 -23.640 -15.296  0.00  0.00    +0.140 C 
ATOM     25  C   UNL     1      33.455 -23.207 -16.135  0.00  0.00    +0.052 C 
ATOM     26  C   UNL     1      32.134 -23.246 -15.680  0.00  0.00    +0.054 C 
ATOM     27  C   UNL     1      34.194 -24.106 -14.016  0.00  0.00    +0.037 C 
ATOM     28  C   UNL     1      31.837 -23.712 -14.394  0.00  0.00    +0.014 C 
ATOM     29  C   UNL     1      32.873 -24.144 -13.562  0.00  0.00    +0.004 C 
ATOM     30  C   UNL     1      30.443 -23.737 -13.957  0.00  0.00    +0.006 C 
ATOM     31  C   UNL     1      29.762 -22.821 -16.141  0.00  0.00    +0.250 C 
ATOM     32  C   UNL     1      29.466 -23.320 -14.771  0.00  0.00    +0.058 C 
ATOM     33  H   UNL     1      31.319 -22.487 -17.419  0.00  0.00    +0.155 HD
ENDBRANCH  21  24
ENDBRANCH  20  21
ENDBRANCH  19  20
ENDBRANCH  18  19
ENDBRANCH   1  18
TORSDOF 7
ENDMDL
MODEL 3
REMARK VINA RESULT:     -11.7      7.250     14.248
REMARK  Name = 11978813
REMARK  7 active torsions:
REMARK  status: ('A' for Active; 'I' for Inactive)
REMARK    1  A    between atoms: C_1  and  N_2
REMARK    2  A    between atoms: C_1  and  C_18
REMARK    3  A    between atoms: N_3  and  C_10
REMARK    4  A    between atoms: C_18  and  C_19
REMARK    5  A    between atoms: C_19  and  C_20
REMARK    6  A    between atoms: C_20  and  O_21
REMARK    7  A    between atoms: O_21  and  C_24
REMARK                            x       y       z     vdW  Elec       q    Type
REMARK                         _______ _______ _______ _____ _____    ______ ____
ROOT
ATOM      1  C   UNL     1      36.631 -21.607 -18.393  0.00  0.00    -0.077 C 
ENDROOT
BRANCH   1   2
ATOM      2  N   UNL     1      35.772 -22.537 -17.662  0.00  0.00    +0.389 N 
ATOM      3  N   UNL     1      33.619 -23.299 -15.945  0.00  0.00    -0.312 N 
ATOM      4  C   UNL     1      35.847 -22.282 -16.218  0.00  0.00    -0.055 C 
ATOM      5  C   UNL     1      34.381 -22.421 -18.117  0.00  0.00    -0.055 C 
ATOM      6  C   UNL     1      34.997 -23.286 -15.438  0.00  0.00    +0.068 C 
ATOM      7  C   UNL     1      33.480 -23.429 -17.399  0.00  0.00    +0.068 C 
ATOM      8  H   UNL     1      36.100 -23.485 -17.846  0.00  0.00    -0.080 HD
BRANCH   3  10
ATOM      9  S   UNL     1      28.675 -23.580 -14.914  0.00  0.00    -0.086 S 
ATOM     10  C   UNL     1      32.613 -23.790 -15.106  0.00  0.00    +0.048 C 
ATOM     11  C   UNL     1      31.225 -23.513 -15.332  0.00  0.00    +0.020 C 
ATOM     12  C   UNL     1      32.963 -24.586 -13.993  0.00  0.00    +0.015 C 
ATOM     13  C   UNL     1      30.272 -24.036 -14.452  0.00  0.00    +0.031 C 
ATOM     14  C   UNL     1      30.605 -22.744 -16.372  0.00  0.00    +0.009 C 
ATOM     15  C   UNL     1      31.998 -25.093 -13.133  0.00  0.00    +0.002 C 
ATOM     16  C   UNL     1      30.644 -24.828 -13.348  0.00  0.00    +0.007 C 
ATOM     17  C   UNL     1      29.236 -22.701 -16.262  0.00  0.00    +0.035 C 
ENDBRANCH   3  10
ENDBRANCH   1   2
BRANCH   1  18
ATOM     18  C   UNL     1      36.040 -21.309 -19.771  0.00  0.00    -0.019 C 
BRANCH  18  19
ATOM     19  C   UNL     1      36.681 -20.068 -20.389  0.00  0.00    +0.045 C 
BRANCH  19  20
ATOM     20  C   UNL     1      35.649 -19.191 -21.086  0.00  0.00    +0.205 C 
BRANCH  20  21
ATOM     21  O   UNL     1      35.727 -17.864 -20.584  0.00  0.00    -0.475 OA
BRANCH  21  24
ATOM     22  O   UNL     1      33.949 -15.110 -26.899  0.00  0.00    -0.270 OA
ATOM     23  N   UNL     1      34.535 -16.014 -24.864  0.00  0.00    -0.280 N 
ATOM     24  C   UNL     1      35.116 -16.885 -21.325  0.00  0.00    +0.140 C 
ATOM     25  C   UNL     1      35.144 -16.957 -22.712  0.00  0.00    +0.052 C 
ATOM     26  C   UNL     1      34.517 -15.956 -23.458  0.00  0.00    +0.054 C 
ATOM     27  C   UNL     1      34.476 -15.834 -20.678  0.00  0.00    +0.037 C 
ATOM     28  C   UNL     1      33.869 -14.892 -22.822  0.00  0.00    +0.014 C 
ATOM     29  C   UNL     1      33.850 -14.834 -21.426  0.00  0.00    +0.004 C 
ATOM     30  C   UNL     1      33.225 -13.866 -23.639  0.00  0.00    +0.006 C 
ATOM     31  C   UNL     1      33.939 -15.065 -25.670  0.00  0.00    +0.250 C 
ATOM     32  C   UNL     1      33.255 -13.941 -24.976  0.00  0.00    +0.058 C 
ATOM     33  H   UNL     1      34.997 -16.770 -25.295  0.00  0.00    +0.155 HD
ENDBRANCH  21  24
ENDBRANCH  20  21
ENDBRANCH  19  20
ENDBRANCH  18  19
ENDBRANCH   1  18
TORSDOF 7
ENDMDL
MODEL 4
REMARK VINA RESULT:     -11.6      0.913      2.061
REMARK  Name = 11978813
REMARK  7 active torsions:
REMARK  status: ('A' for Active; 'I' for Inactive)
REMARK    1  A    between atoms: C_1  and  N_2
REMARK    2  A    between atoms: C_1  and  C_18
REMARK    3  A    between atoms: N_3  and  C_10
REMARK    4  A    between atoms: C_18  and  C_19
REMARK    5  A    between atoms: C_19  and  C_20
REMARK    6  A    between atoms: C_20  and  O_21
REMARK    7  A    between atoms: O_21  and  C_24
REMARK                            x       y       z     vdW  Elec       q    Type
REMARK                         _______ _______ _______ _____ _____    ______ ____
ROOT
ATOM      1  C   UNL     1      32.301  -9.657 -19.498  0.00  0.00    -0.077 C 
ENDROOT
BRANCH   1   2
ATOM      2  N   UNL     1      31.847  -8.527 -20.306  0.00  0.00    +0.389 N 
ATOM      3  N   UNL     1      32.061  -6.495 -22.303  0.00  0.00    -0.312 N 
ATOM      4  C   UNL     1      32.707  -7.358 -20.086  0.00  0.00    -0.055 C 
ATOM      5  C   UNL     1      31.840  -8.881 -21.730  0.00  0.00    -0.055 C 
ATOM      6  C   UNL     1      32.207  -6.151 -20.883  0.00  0.00    +0.068 C 
ATOM      7  C   UNL     1      31.312  -7.725 -22.583  0.00  0.00    +0.068 C 
ATOM      8  H   UNL     1      30.895  -8.294 -20.020  0.00  0.00    -0.080 HD
BRANCH   3  10
ATOM      9  S   UNL     1      34.290  -4.319 -26.288  0.00  0.00    -0.086 S 
ATOM     10  C   UNL     1      32.057  -5.452 -23.236  0.00  0.00    +0.048 C 
ATOM     11  C   UNL     1      33.057  -5.333 -24.254  0.00  0.00    +0.020 C 
ATOM     12  C   UNL     1      31.037  -4.476 -23.183  0.00  0.00    +0.015 C 
ATOM     13  C   UNL     1      32.993  -4.264 -25.154  0.00  0.00    +0.031 C 
ATOM     14  C   UNL     1      34.187  -6.174 -24.528  0.00  0.00    +0.009 C 
ATOM     15  C   UNL     1      30.994  -3.424 -24.088  0.00  0.00    +0.002 C 
ATOM     16  C   UNL     1      31.966  -3.302 -25.083  0.00  0.00    +0.007 C 
ATOM     17  C   UNL     1      34.932  -5.739 -25.597  0.00  0.00    +0.035 C 
ENDBRANCH   3  10
ENDBRANCH   1   2
BRANCH   1  18
ATOM     18  C   UNL     1      31.270 -10.785 -19.534  0.00  0.00    -0.019 C 
BRANCH  18  19
ATOM     19  C   UNL     1      31.945 -12.145 -19.708  0.00  0.00    +0.045 C 
BRANCH  19  20
ATOM     20  C   UNL     1      31.915 -12.605 -21.159  0.00  0.00    +0.205 C 
BRANCH  20  21
ATOM     21  O   UNL     1      33.236 -12.630 -21.683  0.00  0.00    -0.475 OA
BRANCH  21  24
ATOM     22  O   UNL     1      36.043 -19.066 -20.538  0.00  0.00    -0.270 OA
ATOM     23  N   UNL     1      35.137 -16.979 -20.891  0.00  0.00    -0.280 N 
ATOM     24  C   UNL     1      33.689 -13.832 -22.163  0.00  0.00    +0.140 C 
ATOM     25  C   UNL     1      34.180 -14.783 -21.277  0.00  0.00    +0.052 C 
ATOM     26  C   UNL     1      34.637 -16.005 -21.775  0.00  0.00    +0.054 C 
ATOM     27  C   UNL     1      33.651 -14.083 -23.530  0.00  0.00    +0.037 C 
ATOM     28  C   UNL     1      34.606 -16.273 -23.147  0.00  0.00    +0.014 C 
ATOM     29  C   UNL     1      34.110 -15.306 -24.026  0.00  0.00    +0.004 C 
ATOM     30  C   UNL     1      35.094 -17.564 -23.627  0.00  0.00    +0.006 C 
ATOM     31  C   UNL     1      35.606 -18.210 -21.305  0.00  0.00    +0.250 C 
ATOM     32  C   UNL     1      35.565 -18.477 -22.768  0.00  0.00    +0.058 C 
ATOM     33  H   UNL     1      35.152 -16.773 -19.928  0.00  0.00    +0.155 HD
ENDBRANCH  21  24
ENDBRANCH  20  21
ENDBRANCH  19  20
ENDBRANCH  18  19
ENDBRANCH   1  18
TORSDOF 7
ENDMDL
MODEL 5
REMARK VINA RESULT:     -11.5      2.097      3.166
REMARK  Name = 11978813
REMARK  7 active torsions:
REMARK  status: ('A' for Active; 'I' for Inactive)
REMARK    1  A    between atoms: C_1  and  N_2
REMARK    2  A    between atoms: C_1  and  C_18
REMARK    3  A    between atoms: N_3  and  C_10
REMARK    4  A    between atoms: C_18  and  C_19
REMARK    5  A    between atoms: C_19  and  C_20
REMARK    6  A    between atoms: C_20  and  O_21
REMARK    7  A    between atoms: O_21  and  C_24
REMARK                            x       y       z     vdW  Elec       q    Type
REMARK                         _______ _______ _______ _____ _____    ______ ____
ROOT
ATOM      1  C   UNL     1      32.431  -9.421 -19.925  0.00  0.00    -0.077 C 
ENDROOT
BRANCH   1   2
ATOM      2  N   UNL     1      31.917  -8.313 -20.728  0.00  0.00    +0.389 N 
ATOM      3  N   UNL     1      32.055  -6.190 -22.635  0.00  0.00    -0.312 N 
ATOM      4  C   UNL     1      32.626  -7.069 -20.404  0.00  0.00    -0.055 C 
ATOM      5  C   UNL     1      32.054  -8.607 -22.160  0.00  0.00    -0.055 C 
ATOM      6  C   UNL     1      32.058  -5.890 -21.197  0.00  0.00    +0.068 C 
ATOM      7  C   UNL     1      31.468  -7.479 -23.012  0.00  0.00    +0.068 C 
ATOM      8  H   UNL     1      30.927  -8.194 -20.510  0.00  0.00    -0.080 HD
BRANCH   3  10
ATOM      9  S   UNL     1      34.139  -3.832 -26.596  0.00  0.00    -0.086 S 
ATOM     10  C   UNL     1      32.007  -5.116 -23.530  0.00  0.00    +0.048 C 
ATOM     11  C   UNL     1      32.978  -4.941 -24.569  0.00  0.00    +0.020 C 
ATOM     12  C   UNL     1      30.969  -4.164 -23.419  0.00  0.00    +0.015 C 
ATOM     13  C   UNL     1      32.870  -3.844 -25.429  0.00  0.00    +0.031 C 
ATOM     14  C   UNL     1      34.118  -5.748 -24.899  0.00  0.00    +0.009 C 
ATOM     15  C   UNL     1      30.882  -3.083 -24.285  0.00  0.00    +0.002 C 
ATOM     16  C   UNL     1      31.826  -2.906 -25.299  0.00  0.00    +0.007 C 
ATOM     17  C   UNL     1      34.826  -5.261 -25.971  0.00  0.00    +0.035 C 
ENDBRANCH   3  10
ENDBRANCH   1   2
BRANCH   1  18
ATOM     18  C   UNL     1      31.317 -10.012 -19.061  0.00  0.00    -0.019 C 
BRANCH  18  19
ATOM     19  C   UNL     1      30.746 -11.282 -19.689  0.00  0.00    +0.045 C 
BRANCH  19  20
ATOM     20  C   UNL     1      31.728 -11.916 -20.665  0.00  0.00    +0.205 C 
BRANCH  20  21
ATOM     21  O   UNL     1      32.382 -13.015 -20.044  0.00  0.00    -0.475 OA
BRANCH  21  24
ATOM     22  O   UNL     1      33.990 -15.303 -26.586  0.00  0.00    -0.270 OA
ATOM     23  N   UNL     1      33.457 -14.551 -24.476  0.00  0.00    -0.280 N 
ATOM     24  C   UNL     1      33.041 -13.889 -20.869  0.00  0.00    +0.140 C 
ATOM     25  C   UNL     1      32.906 -13.767 -22.246  0.00  0.00    +0.052 C 
ATOM     26  C   UNL     1      33.583 -14.661 -23.079  0.00  0.00    +0.054 C 
ATOM     27  C   UNL     1      33.837 -14.887 -20.316  0.00  0.00    +0.037 C 
ATOM     28  C   UNL     1      34.387 -15.671 -22.538  0.00  0.00    +0.014 C 
ATOM     29  C   UNL     1      34.513 -15.781 -21.150  0.00  0.00    +0.004 C 
ATOM     30  C   UNL     1      35.078 -16.585 -23.444  0.00  0.00    +0.006 C 
ATOM     31  C   UNL     1      34.094 -15.395 -25.364  0.00  0.00    +0.250 C 
ATOM     32  C   UNL     1      34.944 -16.462 -24.770  0.00  0.00    +0.058 C 
ATOM     33  H   UNL     1      32.886 -13.835 -24.839  0.00  0.00    +0.155 HD
ENDBRANCH  21  24
ENDBRANCH  20  21
ENDBRANCH  19  20
ENDBRANCH  18  19
ENDBRANCH   1  18
TORSDOF 7
ENDMDL
MODEL 6
REMARK VINA RESULT:     -11.3      7.860     15.106
REMARK  Name = 11978813
REMARK  7 active torsions:
REMARK  status: ('A' for Active; 'I' for Inactive)
REMARK    1  A    between atoms: C_1  and  N_2
REMARK    2  A    between atoms: C_1  and  C_18
REMARK    3  A    between atoms: N_3  and  C_10
REMARK    4  A    between atoms: C_18  and  C_19
REMARK    5  A    between atoms: C_19  and  C_20
REMARK    6  A    between atoms: C_20  and  O_21
REMARK    7  A    between atoms: O_21  and  C_24
REMARK                            x       y       z     vdW  Elec       q    Type
REMARK                         _______ _______ _______ _____ _____    ______ ____
ROOT
ATOM      1  C   UNL     1      34.387 -22.125 -19.248  0.00  0.00    -0.077 C 
ENDROOT
BRANCH   1   2
ATOM      2  N   UNL     1      34.499 -22.237 -17.795  0.00  0.00    +0.389 N 
ATOM      3  N   UNL     1      35.237 -23.463 -15.322  0.00  0.00    -0.312 N 
ATOM      4  C   UNL     1      33.785 -23.425 -17.313  0.00  0.00    -0.055 C 
ATOM      5  C   UNL     1      35.908 -22.303 -17.390  0.00  0.00    -0.055 C 
ATOM      6  C   UNL     1      33.846 -23.522 -15.787  0.00  0.00    +0.068 C 
ATOM      7  C   UNL     1      36.041 -22.364 -15.866  0.00  0.00    +0.068 C 
ATOM      8  H   UNL     1      34.076 -21.407 -17.379  0.00  0.00    -0.080 HD
BRANCH   3  10
ATOM      9  S   UNL     1      38.609 -25.710 -12.294  0.00  0.00    -0.086 S 
ATOM     10  C   UNL     1      35.529 -23.975 -14.053  0.00  0.00    +0.048 C 
ATOM     11  C   UNL     1      36.798 -24.561 -13.738  0.00  0.00    +0.020 C 
ATOM     12  C   UNL     1      34.549 -23.919 -13.039  0.00  0.00    +0.015 C 
ATOM     13  C   UNL     1      37.022 -25.053 -12.448  0.00  0.00    +0.031 C 
ATOM     14  C   UNL     1      37.953 -24.741 -14.570  0.00  0.00    +0.009 C 
ATOM     15  C   UNL     1      34.794 -24.415 -11.766  0.00  0.00    +0.002 C 
ATOM     16  C   UNL     1      36.029 -24.987 -11.452  0.00  0.00    +0.007 C 
ATOM     17  C   UNL     1      38.996 -25.348 -13.913  0.00  0.00    +0.035 C 
ENDBRANCH   3  10
ENDBRANCH   1   2
BRANCH   1  18
ATOM     18  C   UNL     1      35.409 -21.122 -19.784  0.00  0.00    -0.019 C 
BRANCH  18  19
ATOM     19  C   UNL     1      34.743 -20.083 -20.684  0.00  0.00    +0.045 C 
BRANCH  19  20
ATOM     20  C   UNL     1      35.764 -19.136 -21.300  0.00  0.00    +0.205 C 
BRANCH  20  21
ATOM     21  O   UNL     1      35.668 -17.858 -20.686  0.00  0.00    -0.475 OA
BRANCH  21  24
ATOM     22  O   UNL     1      33.939 -15.031 -26.982  0.00  0.00    -0.270 OA
ATOM     23  N   UNL     1      34.508 -15.959 -24.953  0.00  0.00    -0.280 N 
ATOM     24  C   UNL     1      35.078 -16.861 -21.420  0.00  0.00    +0.140 C 
ATOM     25  C   UNL     1      35.101 -16.927 -22.808  0.00  0.00    +0.052 C 
ATOM     26  C   UNL     1      34.495 -15.907 -23.547  0.00  0.00    +0.054 C 
ATOM     27  C   UNL     1      34.465 -15.798 -20.766  0.00  0.00    +0.037 C 
ATOM     28  C   UNL     1      33.875 -14.831 -22.904  0.00  0.00    +0.014 C 
ATOM     29  C   UNL     1      33.861 -14.780 -21.507  0.00  0.00    +0.004 C 
ATOM     30  C   UNL     1      33.253 -13.786 -23.714  0.00  0.00    +0.006 C 
ATOM     31  C   UNL     1      33.932 -14.992 -25.753  0.00  0.00    +0.250 C 
ATOM     32  C   UNL     1      33.277 -13.855 -25.051  0.00  0.00    +0.058 C 
ATOM     33  H   UNL     1      34.951 -16.723 -25.389  0.00  0.00    +0.155 HD
ENDBRANCH  21  24
ENDBRANCH  20  21
ENDBRANCH  19  20
ENDBRANCH  18  19
ENDBRANCH   1  18
TORSDOF 7
ENDMDL
MODEL 7
REMARK VINA RESULT:     -11.3      3.760      7.180
REMARK  Name = 11978813
REMARK  7 active torsions:
REMARK  status: ('A' for Active; 'I' for Inactive)
REMARK    1  A    between atoms: C_1  and  N_2
REMARK    2  A    between atoms: C_1  and  C_18
REMARK    3  A    between atoms: N_3  and  C_10
REMARK    4  A    between atoms: C_18  and  C_19
REMARK    5  A    between atoms: C_19  and  C_20
REMARK    6  A    between atoms: C_20  and  O_21
REMARK    7  A    between atoms: O_21  and  C_24
REMARK                            x       y       z     vdW  Elec       q    Type
REMARK                         _______ _______ _______ _____ _____    ______ ____
ROOT
ATOM      1  C   UNL     1      34.792 -16.249 -23.824  0.00  0.00    -0.077 C 
ENDROOT
BRANCH   1   2
ATOM      2  N   UNL     1      33.833 -15.406 -23.113  0.00  0.00    +0.389 N 
ATOM      3  N   UNL     1      32.931 -13.073 -21.733  0.00  0.00    -0.312 N 
ATOM      4  C   UNL     1      34.310 -15.115 -21.756  0.00  0.00    -0.055 C 
ATOM      5  C   UNL     1      33.606 -14.153 -23.842  0.00  0.00    -0.055 C 
ATOM      6  C   UNL     1      33.287 -14.282 -20.980  0.00  0.00    +0.068 C 
ATOM      7  C   UNL     1      32.561 -13.286 -23.136  0.00  0.00    +0.068 C 
ATOM      8  H   UNL     1      32.950 -15.914 -23.049  0.00  0.00    -0.080 HD
BRANCH   3  10
ATOM      9  S   UNL     1      31.856  -8.131 -21.642  0.00  0.00    -0.086 S 
ATOM     10  C   UNL     1      32.384 -11.995 -21.028  0.00  0.00    +0.048 C 
ATOM     11  C   UNL     1      32.351 -10.667 -21.565  0.00  0.00    +0.020 C 
ATOM     12  C   UNL     1      31.844 -12.209 -19.741  0.00  0.00    +0.015 C 
ATOM     13  C   UNL     1      31.790  -9.636 -20.804  0.00  0.00    +0.031 C 
ATOM     14  C   UNL     1      32.824 -10.181 -22.829  0.00  0.00    +0.009 C 
ATOM     15  C   UNL     1      31.293 -11.170 -19.004  0.00  0.00    +0.002 C 
ATOM     16  C   UNL     1      31.257  -9.873 -19.522  0.00  0.00    +0.007 C 
ATOM     17  C   UNL     1      32.618  -8.833 -22.995  0.00  0.00    +0.035 C 
ENDBRANCH   3  10
ENDBRANCH   1   2
BRANCH   1  18
ATOM     18  C   UNL     1      35.698 -16.977 -22.833  0.00  0.00    -0.019 C 
BRANCH  18  19
ATOM     19  C   UNL     1      35.416 -18.478 -22.825  0.00  0.00    +0.045 C 
BRANCH  19  20
ATOM     20  C   UNL     1      35.461 -19.052 -21.415  0.00  0.00    +0.205 C 
BRANCH  20  21
ATOM     21  O   UNL     1      34.588 -20.170 -21.321  0.00  0.00    -0.475 OA
BRANCH  21  24
ATOM     22  O   UNL     1      31.200 -23.485 -16.016  0.00  0.00    -0.270 OA
ATOM     23  N   UNL     1      32.281 -22.406 -17.739  0.00  0.00    -0.280 N 
ATOM     24  C   UNL     1      34.622 -20.884 -20.152  0.00  0.00    +0.140 C 
ATOM     25  C   UNL     1      33.432 -21.274 -19.551  0.00  0.00    +0.052 C 
ATOM     26  C   UNL     1      33.477 -22.003 -18.360  0.00  0.00    +0.054 C 
ATOM     27  C   UNL     1      35.849 -21.210 -19.583  0.00  0.00    +0.037 C 
ATOM     28  C   UNL     1      34.702 -22.338 -17.774  0.00  0.00    +0.014 C 
ATOM     29  C   UNL     1      35.892 -21.939 -18.391  0.00  0.00    +0.004 C 
ATOM     30  C   UNL     1      34.706 -23.102 -16.529  0.00  0.00    +0.006 C 
ATOM     31  C   UNL     1      32.242 -23.128 -16.563  0.00  0.00    +0.250 C 
ATOM     32  C   UNL     1      33.555 -23.475 -15.955  0.00  0.00    +0.058 C 
ATOM     33  H   UNL     1      31.427 -22.160 -18.165  0.00  0.00    +0.155 HD
ENDBRANCH  21  24
ENDBRANCH  20  21
ENDBRANCH  19  20
ENDBRANCH  18  19
ENDBRANCH   1  18
TORSDOF 7
ENDMDL
MODEL 8
REMARK VINA RESULT:     -11.3      1.987      2.464
REMARK  Name = 11978813
REMARK  7 active torsions:
REMARK  status: ('A' for Active; 'I' for Inactive)
REMARK    1  A    between atoms: C_1  and  N_2
REMARK    2  A    between atoms: C_1  and  C_18
REMARK    3  A    between atoms: N_3  and  C_10
REMARK    4  A    between atoms: C_18  and  C_19
REMARK    5  A    between atoms: C_19  and  C_20
REMARK    6  A    between atoms: C_20  and  O_21
REMARK    7  A    between atoms: O_21  and  C_24
REMARK                            x       y       z     vdW  Elec       q    Type
REMARK                         _______ _______ _______ _____ _____    ______ ____
ROOT
ATOM      1  C   UNL     1      31.518  -8.807 -19.375  0.00  0.00    -0.077 C 
ENDROOT
BRANCH   1   2
ATOM      2  N   UNL     1      32.366  -8.081 -20.320  0.00  0.00    +0.389 N 
ATOM      3  N   UNL     1      32.956  -6.595 -22.687  0.00  0.00    -0.312 N 
ATOM      4  C   UNL     1      32.358  -8.740 -21.631  0.00  0.00    -0.055 C 
ATOM      5  C   UNL     1      31.915  -6.692 -20.457  0.00  0.00    -0.055 C 
ATOM      6  C   UNL     1      33.288  -8.023 -22.612  0.00  0.00    +0.068 C 
ATOM      7  C   UNL     1      32.828  -5.905 -21.399  0.00  0.00    +0.068 C 
ATOM      8  H   UNL     1      33.320  -8.083 -19.956  0.00  0.00    -0.080 HD
BRANCH   3  10
ATOM      9  S   UNL     1      32.058  -2.794 -25.902  0.00  0.00    -0.086 S 
ATOM     10  C   UNL     1      33.367  -5.882 -23.819  0.00  0.00    +0.048 C 
ATOM     11  C   UNL     1      32.629  -4.766 -24.330  0.00  0.00    +0.020 C 
ATOM     12  C   UNL     1      34.549  -6.265 -24.490  0.00  0.00    +0.015 C 
ATOM     13  C   UNL     1      33.098  -4.098 -25.466  0.00  0.00    +0.031 C 
ATOM     14  C   UNL     1      31.413  -4.177 -23.847  0.00  0.00    +0.009 C 
ATOM     15  C   UNL     1      34.995  -5.587 -25.616  0.00  0.00    +0.002 C 
ATOM     16  C   UNL     1      34.280  -4.498 -26.120  0.00  0.00    +0.007 C 
ATOM     17  C   UNL     1      30.999  -3.107 -24.604  0.00  0.00    +0.035 C 
ENDBRANCH   3  10
ENDBRANCH   1   2
BRANCH   1  18
ATOM     18  C   UNL     1      32.094 -10.196 -19.103  0.00  0.00    -0.019 C 
BRANCH  18  19
ATOM     19  C   UNL     1      31.084 -11.289 -19.450  0.00  0.00    +0.045 C 
BRANCH  19  20
ATOM     20  C   UNL     1      31.613 -12.217 -20.536  0.00  0.00    +0.205 C 
BRANCH  20  21
ATOM     21  O   UNL     1      32.697 -12.984 -20.029  0.00  0.00    -0.475 OA
BRANCH  21  24
ATOM     22  O   UNL     1      33.878 -15.322 -26.644  0.00  0.00    -0.270 OA
ATOM     23  N   UNL     1      33.484 -14.552 -24.510  0.00  0.00    -0.280 N 
ATOM     24  C   UNL     1      33.269 -13.888 -20.886  0.00  0.00    +0.140 C 
ATOM     25  C   UNL     1      33.079 -13.751 -22.256  0.00  0.00    +0.052 C 
ATOM     26  C   UNL     1      33.667 -14.677 -23.121  0.00  0.00    +0.054 C 
ATOM     27  C   UNL     1      34.032 -14.931 -20.373  0.00  0.00    +0.037 C 
ATOM     28  C   UNL     1      34.437 -15.732 -22.621  0.00  0.00    +0.014 C 
ATOM     29  C   UNL     1      34.619 -15.857 -21.240  0.00  0.00    +0.004 C 
ATOM     30  C   UNL     1      35.034 -16.679 -23.559  0.00  0.00    +0.006 C 
ATOM     31  C   UNL     1      34.032 -15.425 -25.429  0.00  0.00    +0.250 C 
ATOM     32  C   UNL     1      34.848 -16.541 -24.878  0.00  0.00    +0.058 C 
ATOM     33  H   UNL     1      32.938 -13.804 -24.845  0.00  0.00    +0.155 HD
ENDBRANCH  21  24
ENDBRANCH  20  21
ENDBRANCH  19  20
ENDBRANCH  18  19
ENDBRANCH   1  18
TORSDOF 7
ENDMDL
MODEL 9
REMARK VINA RESULT:     -11.1      3.764      7.286
REMARK  Name = 11978813
REMARK  7 active torsions:
REMARK  status: ('A' for Active; 'I' for Inactive)
REMARK    1  A    between atoms: C_1  and  N_2
REMARK    2  A    between atoms: C_1  and  C_18
REMARK    3  A    between atoms: N_3  and  C_10
REMARK    4  A    between atoms: C_18  and  C_19
REMARK    5  A    between atoms: C_19  and  C_20
REMARK    6  A    between atoms: C_20  and  O_21
REMARK    7  A    between atoms: O_21  and  C_24
REMARK                            x       y       z     vdW  Elec       q    Type
REMARK                         _______ _______ _______ _____ _____    ______ ____
ROOT
ATOM      1  C   UNL     1      35.201 -16.552 -23.797  0.00  0.00    -0.077 C 
ENDROOT
BRANCH   1   2
ATOM      2  N   UNL     1      34.178 -15.721 -23.165  0.00  0.00    +0.389 N 
ATOM      3  N   UNL     1      33.132 -13.387 -21.894  0.00  0.00    -0.312 N 
ATOM      4  C   UNL     1      34.560 -15.393 -21.787  0.00  0.00    -0.055 C 
ATOM      5  C   UNL     1      33.968 -14.488 -23.933  0.00  0.00    -0.055 C 
ATOM      6  C   UNL     1      33.469 -14.571 -21.095  0.00  0.00    +0.068 C 
ATOM      7  C   UNL     1      32.859 -13.635 -23.313  0.00  0.00    +0.068 C 
ATOM      8  H   UNL     1      33.305 -16.250 -23.148  0.00  0.00    -0.080 HD
BRANCH   3  10
ATOM      9  S   UNL     1      31.971  -8.463 -21.951  0.00  0.00    -0.086 S 
ATOM     10  C   UNL     1      32.515 -12.310 -21.247  0.00  0.00    +0.048 C 
ATOM     11  C   UNL     1      32.501 -10.990 -21.802  0.00  0.00    +0.020 C 
ATOM     12  C   UNL     1      31.881 -12.518 -20.002  0.00  0.00    +0.015 C 
ATOM     13  C   UNL     1      31.866  -9.959 -21.101  0.00  0.00    +0.031 C 
ATOM     14  C   UNL     1      33.062 -10.510 -23.033  0.00  0.00    +0.009 C 
ATOM     15  C   UNL     1      31.257 -11.480 -19.324  0.00  0.00    +0.002 C 
ATOM     16  C   UNL     1      31.240 -10.190 -19.860  0.00  0.00    +0.007 C 
ATOM     17  C   UNL     1      32.847  -9.168 -23.232  0.00  0.00    +0.035 C 
ENDBRANCH   3  10
ENDBRANCH   1   2
BRANCH   1  18
ATOM     18  C   UNL     1      34.908 -18.032 -23.556  0.00  0.00    -0.019 C 
BRANCH  18  19
ATOM     19  C   UNL     1      35.969 -18.667 -22.659  0.00  0.00    +0.045 C 
BRANCH  19  20
ATOM     20  C   UNL     1      35.426 -18.959 -21.266  0.00  0.00    +0.205 C 
BRANCH  20  21
ATOM     21  O   UNL     1      35.836 -20.256 -20.852  0.00  0.00    -0.475 OA
BRANCH  21  24
ATOM     22  O   UNL     1      35.120 -24.324 -15.059  0.00  0.00    -0.270 OA
ATOM     23  N   UNL     1      35.370 -23.010 -16.933  0.00  0.00    -0.280 N 
ATOM     24  C   UNL     1      35.037 -20.895 -19.939  0.00  0.00    +0.140 C 
ATOM     25  C   UNL     1      35.619 -21.623 -18.909  0.00  0.00    +0.052 C 
ATOM     26  C   UNL     1      34.797 -22.269 -17.983  0.00  0.00    +0.054 C 
ATOM     27  C   UNL     1      33.654 -20.805 -20.057  0.00  0.00    +0.037 C 
ATOM     28  C   UNL     1      33.404 -22.190 -18.088  0.00  0.00    +0.014 C 
ATOM     29  C   UNL     1      32.834 -21.453 -19.130  0.00  0.00    +0.004 C 
ATOM     30  C   UNL     1      32.580 -22.880 -17.099  0.00  0.00    +0.006 C 
ATOM     31  C   UNL     1      34.626 -23.676 -15.979  0.00  0.00    +0.250 C 
ATOM     32  C   UNL     1      33.147 -23.579 -16.108  0.00  0.00    +0.058 C 
ATOM     33  H   UNL     1      36.352 -23.056 -16.875  0.00  0.00    +0.155 HD
ENDBRANCH  21  24
ENDBRANCH  20  21
ENDBRANCH  19  20
ENDBRANCH  18  19
ENDBRANCH   1  18
TORSDOF 7
ENDMDL
