MODEL 1
REMARK VINA RESULT:     -12.0      0.000      0.000
REMARK  Name = 66571548
REMARK  8 active torsions:
REMARK  status: ('A' for Active; 'I' for Inactive)
REMARK    1  A    between atoms: C_2  and  C_10
REMARK    2  A    between atoms: C_2  and  C_22
REMARK    3  A    between atoms: N_3  and  C_15
REMARK    4  A    between atoms: C_15  and  C_18
REMARK    5  A    between atoms: C_18  and  O_19
REMARK    6  A    between atoms: C_25  and  N_28
REMARK    7  A    between atoms: C_29  and  C_31
REMARK    8  A    between atoms: C_31  and  C_34
REMARK                            x       y       z     vdW  Elec       q    Type
REMARK                         _______ _______ _______ _____ _____    ______ ____
ROOT
ATOM      1  O   UNL     1      37.134 -18.910 -22.107  0.00  0.00    -0.286 OA
ATOM      2  C   UNL     1      35.991 -18.690 -21.652  0.00  0.00    +0.199 C 
ENDROOT
BRANCH   2  10
ATOM      3  N   UNL     1      34.164 -15.579 -21.730  0.00  0.00    -0.261 N 
ATOM      4  N   UNL     1      33.790 -14.981 -24.036  0.00  0.00    -0.322 NA
ATOM      5  N   UNL     1      34.720 -16.599 -25.600  0.00  0.00    -0.170 NA
ATOM      6  N   UNL     1      33.593 -14.689 -26.348  0.00  0.00    -0.293 N 
ATOM      7  C   UNL     1      34.274 -15.791 -23.079  0.00  0.00    +0.201 C 
ATOM      8  C   UNL     1      34.774 -16.604 -21.054  0.00  0.00    +0.071 C 
ATOM      9  C   UNL     1      34.969 -16.979 -23.270  0.00  0.00    +0.069 C 
ATOM     10  C   UNL     1      35.282 -17.488 -21.984  0.00  0.00    +0.059 C 
ATOM     11  C   UNL     1      35.184 -17.372 -24.590  0.00  0.00    +0.116 C 
ATOM     12  C   UNL     1      34.061 -15.467 -25.264  0.00  0.00    +0.143 C 
ATOM     13  H   UNL     1      33.105 -13.851 -26.177  0.00  0.00    +0.155 HD
ATOM     14  H   UNL     1      33.756 -14.984 -27.272  0.00  0.00    +0.155 HD
BRANCH   3  15
ATOM     15  C   UNL     1      33.464 -14.379 -21.063  0.00  0.00    +0.091 C 
ATOM     16  C   UNL     1      32.454 -14.785 -19.962  0.00  0.00    +0.023 C 
ATOM     17  C   UNL     1      34.531 -13.486 -20.387  0.00  0.00    +0.023 C 
BRANCH  15  18
ATOM     18  C   UNL     1      32.712 -13.537 -22.124  0.00  0.00    +0.155 C 
BRANCH  18  19
ATOM     19  O   UNL     1      31.695 -12.749 -21.512  0.00  0.00    -0.380 OA
ATOM     20  H   UNL     1      31.354 -13.212 -20.731  0.00  0.00    +0.211 HD
ENDBRANCH  18  19
ENDBRANCH  15  18
ENDBRANCH   3  15
ENDBRANCH   2  10
BRANCH   2  22
ATOM     21  N   UNL     1      33.504 -21.009 -19.992  0.00  0.00    -0.241 NA
ATOM     22  C   UNL     1      35.426 -19.754 -20.751  0.00  0.00    +0.059 C 
ATOM     23  C   UNL     1      36.241 -20.454 -19.867  0.00  0.00    +0.021 C 
ATOM     24  C   UNL     1      34.076 -20.066 -20.774  0.00  0.00    +0.102 C 
ATOM     25  C   UNL     1      35.688 -21.430 -19.045  0.00  0.00    +0.070 C 
ATOM     26  C   UNL     1      34.327 -21.668 -19.146  0.00  0.00    +0.113 C 
BRANCH  25  28
ATOM     27  O   UNL     1      37.274 -20.494 -16.674  0.00  0.00    -0.274 OA
ATOM     28  N   UNL     1      36.479 -22.146 -18.150  0.00  0.00    -0.282 N 
ATOM     29  C   UNL     1      37.206 -21.661 -17.048  0.00  0.00    +0.232 C 
ATOM     30  H   UNL     1      36.537 -23.115 -18.309  0.00  0.00    +0.155 HD
BRANCH  29  31
ATOM     31  C   UNL     1      37.937 -22.787 -16.334  0.00  0.00    +0.131 C 
BRANCH  31  34
ATOM     32 CL   UNL     1      35.311 -24.582 -11.307  0.00  0.00    -0.081 Cl
ATOM     33  N   UNL     1      37.941 -23.134 -13.926  0.00  0.00    -0.247 NA
ATOM     34  C   UNL     1      37.245 -23.250 -15.079  0.00  0.00    +0.068 C 
ATOM     35  C   UNL     1      35.960 -23.762 -15.161  0.00  0.00    +0.016 C 
ATOM     36  C   UNL     1      35.349 -24.180 -13.984  0.00  0.00    +0.014 C 
ATOM     37  C   UNL     1      37.315 -23.550 -12.802  0.00  0.00    +0.110 C 
ATOM     38  C   UNL     1      36.033 -24.076 -12.778  0.00  0.00    +0.077 C 
ENDBRANCH  31  34
ENDBRANCH  29  31
ENDBRANCH  25  28
ENDBRANCH   2  22
TORSDOF 8
ENDMDL
MODEL 2
REMARK VINA RESULT:     -11.9      4.021     10.611
REMARK  Name = 66571548
REMARK  8 active torsions:
REMARK  status: ('A' for Active; 'I' for Inactive)
REMARK    1  A    between atoms: C_2  and  C_10
REMARK    2  A    between atoms: C_2  and  C_22
REMARK    3  A    between atoms: N_3  and  C_15
REMARK    4  A    between atoms: C_15  and  C_18
REMARK    5  A    between atoms: C_18  and  O_19
REMARK    6  A    between atoms: C_25  and  N_28
REMARK    7  A    between atoms: C_29  and  C_31
REMARK    8  A    between atoms: C_31  and  C_34
REMARK                            x       y       z     vdW  Elec       q    Type
REMARK                         _______ _______ _______ _____ _____    ______ ____
ROOT
ATOM      1  O   UNL     1      32.356 -22.427 -18.609  0.00  0.00    -0.286 OA
ATOM      2  C   UNL     1      33.457 -22.406 -18.017  0.00  0.00    +0.199 C 
ENDROOT
BRANCH   2  10
ATOM      3  N   UNL     1      34.575 -23.739 -14.856  0.00  0.00    -0.261 N 
ATOM      4  N   UNL     1      32.640 -24.479 -13.621  0.00  0.00    -0.322 NA
ATOM      5  N   UNL     1      30.554 -24.127 -14.826  0.00  0.00    -0.170 NA
ATOM      6  N   UNL     1      30.583 -25.091 -12.694  0.00  0.00    -0.293 N 
ATOM      7  C   UNL     1      33.228 -23.935 -14.701  0.00  0.00    +0.201 C 
ATOM      8  C   UNL     1      34.817 -23.161 -16.075  0.00  0.00    +0.071 C 
ATOM      9  C   UNL     1      32.595 -23.473 -15.848  0.00  0.00    +0.069 C 
ATOM     10  C   UNL     1      33.606 -22.985 -16.713  0.00  0.00    +0.059 C 
ATOM     11  C   UNL     1      31.205 -23.587 -15.883  0.00  0.00    +0.116 C 
ATOM     12  C   UNL     1      31.302 -24.533 -13.776  0.00  0.00    +0.143 C 
ATOM     13  H   UNL     1      31.064 -25.408 -11.895  0.00  0.00    +0.155 HD
ATOM     14  H   UNL     1      29.603 -25.162 -12.738  0.00  0.00    +0.155 HD
BRANCH   3  15
ATOM     15  C   UNL     1      35.662 -24.108 -13.827  0.00  0.00    +0.091 C 
ATOM     16  C   UNL     1      36.133 -25.579 -13.924  0.00  0.00    +0.023 C 
ATOM     17  C   UNL     1      36.905 -23.221 -14.068  0.00  0.00    +0.023 C 
BRANCH  15  18
ATOM     18  C   UNL     1      35.146 -23.860 -12.387  0.00  0.00    +0.155 C 
BRANCH  18  19
ATOM     19  O   UNL     1      34.839 -25.092 -11.743  0.00  0.00    -0.380 OA
ATOM     20  H   UNL     1      33.884 -25.252 -11.791  0.00  0.00    +0.211 HD
ENDBRANCH  18  19
ENDBRANCH  15  18
ENDBRANCH   3  15
ENDBRANCH   2  10
BRANCH   2  22
ATOM     21  N   UNL     1      36.970 -21.475 -19.072  0.00  0.00    -0.241 NA
ATOM     22  C   UNL     1      34.588 -21.743 -18.756  0.00  0.00    +0.059 C 
ATOM     23  C   UNL     1      34.343 -20.818 -19.765  0.00  0.00    +0.021 C 
ATOM     24  C   UNL     1      35.908 -22.034 -18.449  0.00  0.00    +0.102 C 
ATOM     25  C   UNL     1      35.410 -20.221 -20.427  0.00  0.00    +0.070 C 
ATOM     26  C   UNL     1      36.693 -20.581 -20.048  0.00  0.00    +0.113 C 
BRANCH  25  28
ATOM     27  O   UNL     1      37.364 -18.553 -21.981  0.00  0.00    -0.274 OA
ATOM     28  N   UNL     1      35.195 -19.291 -21.441  0.00  0.00    -0.282 N 
ATOM     29  C   UNL     1      36.147 -18.531 -22.143  0.00  0.00    +0.232 C 
ATOM     30  H   UNL     1      34.256 -19.147 -21.699  0.00  0.00    +0.155 HD
BRANCH  29  31
ATOM     31  C   UNL     1      35.481 -17.632 -23.174  0.00  0.00    +0.131 C 
BRANCH  31  34
ATOM     32 CL   UNL     1      32.686 -13.022 -20.660  0.00  0.00    -0.081 Cl
ATOM     33  N   UNL     1      34.725 -16.398 -21.218  0.00  0.00    -0.247 NA
ATOM     34  C   UNL     1      34.767 -16.453 -22.568  0.00  0.00    +0.068 C 
ATOM     35  C   UNL     1      34.198 -15.502 -23.401  0.00  0.00    +0.016 C 
ATOM     36  C   UNL     1      33.546 -14.426 -22.810  0.00  0.00    +0.014 C 
ATOM     37  C   UNL     1      34.083 -15.337 -20.679  0.00  0.00    +0.110 C 
ATOM     38  C   UNL     1      33.482 -14.335 -21.424  0.00  0.00    +0.077 C 
ENDBRANCH  31  34
ENDBRANCH  29  31
ENDBRANCH  25  28
ENDBRANCH   2  22
TORSDOF 8
ENDMDL
MODEL 3
REMARK VINA RESULT:     -11.5      4.087     10.319
REMARK  Name = 66571548
REMARK  8 active torsions:
REMARK  status: ('A' for Active; 'I' for Inactive)
REMARK    1  A    between atoms: C_2  and  C_10
REMARK    2  A    between atoms: C_2  and  C_22
REMARK    3  A    between atoms: N_3  and  C_15
REMARK    4  A    between atoms: C_15  and  C_18
REMARK    5  A    between atoms: C_18  and  O_19
REMARK    6  A    between atoms: C_25  and  N_28
REMARK    7  A    between atoms: C_29  and  C_31
REMARK    8  A    between atoms: C_31  and  C_34
REMARK                            x       y       z     vdW  Elec       q    Type
REMARK                         _______ _______ _______ _____ _____    ______ ____
ROOT
ATOM      1  O   UNL     1      33.790 -23.965 -19.379  0.00  0.00    -0.286 OA
ATOM      2  C   UNL     1      34.099 -23.188 -18.449  0.00  0.00    +0.199 C 
ENDROOT
BRANCH   2  10
ATOM      3  N   UNL     1      32.058 -23.478 -15.487  0.00  0.00    -0.261 N 
ATOM      4  N   UNL     1      33.504 -23.952 -13.617  0.00  0.00    -0.322 NA
ATOM      5  N   UNL     1      35.853 -24.091 -14.244  0.00  0.00    -0.170 NA
ATOM      6  N   UNL     1      35.162 -24.398 -12.029  0.00  0.00    -0.293 N 
ATOM      7  C   UNL     1      33.284 -23.705 -14.920  0.00  0.00    +0.201 C 
ATOM      8  C   UNL     1      32.209 -23.265 -16.833  0.00  0.00    +0.071 C 
ATOM      9  C   UNL     1      34.240 -23.634 -15.925  0.00  0.00    +0.069 C 
ATOM     10  C   UNL     1      33.552 -23.355 -17.133  0.00  0.00    +0.059 C 
ATOM     11  C   UNL     1      35.565 -23.838 -15.542  0.00  0.00    +0.116 C 
ATOM     12  C   UNL     1      34.818 -24.132 -13.375  0.00  0.00    +0.143 C 
ATOM     13  H   UNL     1      34.458 -24.442 -11.342  0.00  0.00    +0.155 HD
ATOM     14  H   UNL     1      36.103 -24.540 -11.780  0.00  0.00    +0.155 HD
BRANCH   3  15
ATOM     15  C   UNL     1      30.710 -23.460 -14.740  0.00  0.00    +0.091 C 
ATOM     16  C   UNL     1      30.754 -22.685 -13.401  0.00  0.00    +0.023 C 
ATOM     17  C   UNL     1      29.651 -22.766 -15.628  0.00  0.00    +0.023 C 
BRANCH  15  18
ATOM     18  C   UNL     1      30.240 -24.908 -14.446  0.00  0.00    +0.155 C 
BRANCH  18  19
ATOM     19  O   UNL     1      30.717 -25.344 -13.177  0.00  0.00    -0.380 OA
ATOM     20  H   UNL     1      31.687 -25.362 -13.185  0.00  0.00    +0.211 HD
ENDBRANCH  18  19
ENDBRANCH  15  18
ENDBRANCH   3  15
ENDBRANCH   2  10
BRANCH   2  22
ATOM     21  N   UNL     1      37.135 -20.931 -18.336  0.00  0.00    -0.241 NA
ATOM     22  C   UNL     1      35.065 -22.090 -18.803  0.00  0.00    +0.059 C 
ATOM     23  C   UNL     1      34.818 -21.234 -19.871  0.00  0.00    +0.021 C 
ATOM     24  C   UNL     1      36.226 -21.898 -18.073  0.00  0.00    +0.102 C 
ATOM     25  C   UNL     1      35.729 -20.227 -20.173  0.00  0.00    +0.070 C 
ATOM     26  C   UNL     1      36.862 -20.119 -19.382  0.00  0.00    +0.113 C 
BRANCH  25  28
ATOM     27  O   UNL     1      37.667 -18.588 -21.776  0.00  0.00    -0.274 OA
ATOM     28  N   UNL     1      35.509 -19.355 -21.236  0.00  0.00    -0.282 N 
ATOM     29  C   UNL     1      36.453 -18.606 -21.959  0.00  0.00    +0.232 C 
ATOM     30  H   UNL     1      34.572 -19.249 -21.516  0.00  0.00    +0.155 HD
BRANCH  29  31
ATOM     31  C   UNL     1      35.784 -17.778 -23.045  0.00  0.00    +0.131 C 
BRANCH  31  34
ATOM     32 CL   UNL     1      32.684 -13.222 -20.805  0.00  0.00    -0.081 Cl
ATOM     33  N   UNL     1      34.898 -16.514 -21.165  0.00  0.00    -0.247 NA
ATOM     34  C   UNL     1      34.993 -16.614 -22.510  0.00  0.00    +0.068 C 
ATOM     35  C   UNL     1      34.412 -15.722 -23.396  0.00  0.00    +0.016 C 
ATOM     36  C   UNL     1      33.688 -14.658 -22.869  0.00  0.00    +0.014 C 
ATOM     37  C   UNL     1      34.187 -15.467 -20.689  0.00  0.00    +0.110 C 
ATOM     38  C   UNL     1      33.568 -14.521 -21.491  0.00  0.00    +0.077 C 
ENDBRANCH  31  34
ENDBRANCH  29  31
ENDBRANCH  25  28
ENDBRANCH   2  22
TORSDOF 8
ENDMDL
MODEL 4
REMARK VINA RESULT:     -11.4      3.611     10.909
REMARK  Name = 66571548
REMARK  8 active torsions:
REMARK  status: ('A' for Active; 'I' for Inactive)
REMARK    1  A    between atoms: C_2  and  C_10
REMARK    2  A    between atoms: C_2  and  C_22
REMARK    3  A    between atoms: N_3  and  C_15
REMARK    4  A    between atoms: C_15  and  C_18
REMARK    5  A    between atoms: C_18  and  O_19
REMARK    6  A    between atoms: C_25  and  N_28
REMARK    7  A    between atoms: C_29  and  C_31
REMARK    8  A    between atoms: C_31  and  C_34
REMARK                            x       y       z     vdW  Elec       q    Type
REMARK                         _______ _______ _______ _____ _____    ______ ____
ROOT
ATOM      1  O   UNL     1      37.611 -21.330 -16.990  0.00  0.00    -0.286 OA
ATOM      2  C   UNL     1      36.594 -22.055 -16.948  0.00  0.00    +0.199 C 
ENDROOT
BRANCH   2  10
ATOM      3  N   UNL     1      36.897 -24.549 -14.357  0.00  0.00    -0.261 N 
ATOM      4  N   UNL     1      34.695 -25.004 -13.486  0.00  0.00    -0.322 NA
ATOM      5  N   UNL     1      32.954 -23.693 -14.572  0.00  0.00    -0.170 NA
ATOM      6  N   UNL     1      32.450 -25.215 -12.867  0.00  0.00    -0.293 N 
ATOM      7  C   UNL     1      35.540 -24.365 -14.313  0.00  0.00    +0.201 C 
ATOM      8  C   UNL     1      37.439 -23.733 -15.316  0.00  0.00    +0.071 C 
ATOM      9  C   UNL     1      35.207 -23.411 -15.267  0.00  0.00    +0.069 C 
ATOM     10  C   UNL     1      36.414 -23.016 -15.897  0.00  0.00    +0.059 C 
ATOM     11  C   UNL     1      33.856 -23.084 -15.378  0.00  0.00    +0.116 C 
ATOM     12  C   UNL     1      33.424 -24.602 -13.688  0.00  0.00    +0.143 C 
ATOM     13  H   UNL     1      32.721 -25.887 -12.200  0.00  0.00    +0.155 HD
ATOM     14  H   UNL     1      31.502 -24.969 -12.961  0.00  0.00    +0.155 HD
BRANCH   3  15
ATOM     15  C   UNL     1      37.702 -25.520 -13.472  0.00  0.00    +0.091 C 
ATOM     16  C   UNL     1      37.249 -26.995 -13.599  0.00  0.00    +0.023 C 
ATOM     17  C   UNL     1      39.189 -25.469 -13.893  0.00  0.00    +0.023 C 
BRANCH  15  18
ATOM     18  C   UNL     1      37.593 -25.107 -11.983  0.00  0.00    +0.155 C 
BRANCH  18  19
ATOM     19  O   UNL     1      36.629 -25.907 -11.307  0.00  0.00    -0.380 OA
ATOM     20  H   UNL     1      35.794 -25.893 -11.801  0.00  0.00    +0.211 HD
ENDBRANCH  18  19
ENDBRANCH  15  18
ENDBRANCH   3  15
ENDBRANCH   2  10
BRANCH   2  22
ATOM     21  N   UNL     1      33.467 -22.431 -19.047  0.00  0.00    -0.241 NA
ATOM     22  C   UNL     1      35.595 -21.852 -18.054  0.00  0.00    +0.059 C 
ATOM     23  C   UNL     1      35.836 -20.945 -19.081  0.00  0.00    +0.021 C 
ATOM     24  C   UNL     1      34.407 -22.564 -18.083  0.00  0.00    +0.102 C 
ATOM     25  C   UNL     1      34.893 -20.781 -20.091  0.00  0.00    +0.070 C 
ATOM     26  C   UNL     1      33.736 -21.540 -20.028  0.00  0.00    +0.113 C 
BRANCH  25  28
ATOM     27  O   UNL     1      37.171 -18.889 -20.588  0.00  0.00    -0.274 OA
ATOM     28  N   UNL     1      35.107 -19.881 -21.133  0.00  0.00    -0.282 N 
ATOM     29  C   UNL     1      36.195 -19.012 -21.324  0.00  0.00    +0.232 C 
ATOM     30  H   UNL     1      34.407 -19.850 -21.823  0.00  0.00    +0.155 HD
BRANCH  29  31
ATOM     31  C   UNL     1      36.031 -18.198 -22.598  0.00  0.00    +0.131 C 
BRANCH  31  34
ATOM     32 CL   UNL     1      32.743 -13.316 -21.735  0.00  0.00    -0.081 Cl
ATOM     33  N   UNL     1      34.894 -16.615 -21.140  0.00  0.00    -0.247 NA
ATOM     34  C   UNL     1      35.197 -16.957 -22.413  0.00  0.00    +0.068 C 
ATOM     35  C   UNL     1      34.789 -16.241 -23.527  0.00  0.00    +0.016 C 
ATOM     36  C   UNL     1      34.021 -15.100 -23.321  0.00  0.00    +0.014 C 
ATOM     37  C   UNL     1      34.146 -15.501 -20.980  0.00  0.00    +0.110 C 
ATOM     38  C   UNL     1      33.688 -14.717 -22.027  0.00  0.00    +0.077 C 
ENDBRANCH  31  34
ENDBRANCH  29  31
ENDBRANCH  25  28
ENDBRANCH   2  22
TORSDOF 8
ENDMDL
MODEL 5
REMARK VINA RESULT:     -11.2      3.634     10.570
REMARK  Name = 66571548
REMARK  8 active torsions:
REMARK  status: ('A' for Active; 'I' for Inactive)
REMARK    1  A    between atoms: C_2  and  C_10
REMARK    2  A    between atoms: C_2  and  C_22
REMARK    3  A    between atoms: N_3  and  C_15
REMARK    4  A    between atoms: C_15  and  C_18
REMARK    5  A    between atoms: C_18  and  O_19
REMARK    6  A    between atoms: C_25  and  N_28
REMARK    7  A    between atoms: C_29  and  C_31
REMARK    8  A    between atoms: C_31  and  C_34
REMARK                            x       y       z     vdW  Elec       q    Type
REMARK                         _______ _______ _______ _____ _____    ______ ____
ROOT
ATOM      1  O   UNL     1      36.925 -22.353 -17.980  0.00  0.00    -0.286 OA
ATOM      2  C   UNL     1      35.705 -22.245 -17.728  0.00  0.00    +0.199 C 
ENDROOT
BRANCH   2  10
ATOM      3  N   UNL     1      33.673 -23.459 -15.005  0.00  0.00    -0.261 N 
ATOM      4  N   UNL     1      35.103 -23.814 -13.096  0.00  0.00    -0.322 NA
ATOM      5  N   UNL     1      37.433 -23.265 -13.540  0.00  0.00    -0.170 NA
ATOM      6  N   UNL     1      36.742 -24.049 -11.445  0.00  0.00    -0.293 N 
ATOM      7  C   UNL     1      34.887 -23.448 -14.371  0.00  0.00    +0.201 C 
ATOM      8  C   UNL     1      33.826 -23.026 -16.296  0.00  0.00    +0.071 C 
ATOM      9  C   UNL     1      35.838 -22.995 -15.277  0.00  0.00    +0.069 C 
ATOM     10  C   UNL     1      35.159 -22.730 -16.493  0.00  0.00    +0.059 C 
ATOM     11  C   UNL     1      37.151 -22.911 -14.815  0.00  0.00    +0.116 C 
ATOM     12  C   UNL     1      36.405 -23.689 -12.770  0.00  0.00    +0.143 C 
ATOM     13  H   UNL     1      36.043 -24.367 -10.829  0.00  0.00    +0.155 HD
ATOM     14  H   UNL     1      37.675 -23.983 -11.139  0.00  0.00    +0.155 HD
BRANCH   3  15
ATOM     15  C   UNL     1      32.333 -23.889 -14.375  0.00  0.00    +0.091 C 
ATOM     16  C   UNL     1      31.233 -24.207 -15.416  0.00  0.00    +0.023 C 
ATOM     17  C   UNL     1      32.556 -25.177 -13.549  0.00  0.00    +0.023 C 
BRANCH  15  18
ATOM     18  C   UNL     1      31.802 -22.780 -13.432  0.00  0.00    +0.155 C 
BRANCH  18  19
ATOM     19  O   UNL     1      32.372 -22.908 -12.134  0.00  0.00    -0.380 OA
ATOM     20  H   UNL     1      31.765 -23.402 -11.561  0.00  0.00    +0.211 HD
ENDBRANCH  18  19
ENDBRANCH  15  18
ENDBRANCH   3  15
ENDBRANCH   2  10
BRANCH   2  22
ATOM     21  N   UNL     1      32.757 -21.423 -19.954  0.00  0.00    -0.241 NA
ATOM     22  C   UNL     1      34.870 -21.583 -18.791  0.00  0.00    +0.059 C 
ATOM     23  C   UNL     1      35.390 -20.561 -19.579  0.00  0.00    +0.021 C 
ATOM     24  C   UNL     1      33.561 -21.974 -19.016  0.00  0.00    +0.102 C 
ATOM     25  C   UNL     1      34.593 -19.970 -20.554  0.00  0.00    +0.070 C 
ATOM     26  C   UNL     1      33.295 -20.433 -20.700  0.00  0.00    +0.113 C 
BRANCH  25  28
ATOM     27  O   UNL     1      34.718 -19.736 -23.545  0.00  0.00    -0.274 OA
ATOM     28  N   UNL     1      35.086 -18.945 -21.359  0.00  0.00    -0.282 N 
ATOM     29  C   UNL     1      35.122 -18.881 -22.763  0.00  0.00    +0.232 C 
ATOM     30  H   UNL     1      35.457 -18.168 -20.884  0.00  0.00    +0.155 HD
BRANCH  29  31
ATOM     31  C   UNL     1      35.747 -17.578 -23.237  0.00  0.00    +0.131 C 
BRANCH  31  34
ATOM     32 CL   UNL     1      32.444 -12.810 -21.915  0.00  0.00    -0.081 Cl
ATOM     33  N   UNL     1      34.730 -16.059 -21.630  0.00  0.00    -0.247 NA
ATOM     34  C   UNL     1      34.906 -16.365 -22.935  0.00  0.00    +0.068 C 
ATOM     35  C   UNL     1      34.363 -15.637 -23.982  0.00  0.00    +0.016 C 
ATOM     36  C   UNL     1      33.592 -14.523 -23.669  0.00  0.00    +0.014 C 
ATOM     37  C   UNL     1      33.975 -14.970 -21.365  0.00  0.00    +0.110 C 
ATOM     38  C   UNL     1      33.389 -14.177 -22.338  0.00  0.00    +0.077 C 
ENDBRANCH  31  34
ENDBRANCH  29  31
ENDBRANCH  25  28
ENDBRANCH   2  22
TORSDOF 8
ENDMDL
MODEL 6
REMARK VINA RESULT:     -11.2      3.640     11.185
REMARK  Name = 66571548
REMARK  8 active torsions:
REMARK  status: ('A' for Active; 'I' for Inactive)
REMARK    1  A    between atoms: C_2  and  C_10
REMARK    2  A    between atoms: C_2  and  C_22
REMARK    3  A    between atoms: N_3  and  C_15
REMARK    4  A    between atoms: C_15  and  C_18
REMARK    5  A    between atoms: C_18  and  O_19
REMARK    6  A    between atoms: C_25  and  N_28
REMARK    7  A    between atoms: C_29  and  C_31
REMARK    8  A    between atoms: C_31  and  C_34
REMARK                            x       y       z     vdW  Elec       q    Type
REMARK                         _______ _______ _______ _____ _____    ______ ____
ROOT
ATOM      1  O   UNL     1      38.274 -21.097 -16.424  0.00  0.00    -0.286 OA
ATOM      2  C   UNL     1      37.437 -22.011 -16.257  0.00  0.00    +0.199 C 
ENDROOT
BRANCH   2  10
ATOM      3  N   UNL     1      37.146 -24.080 -13.316  0.00  0.00    -0.261 N 
ATOM      4  N   UNL     1      39.024 -25.592 -13.267  0.00  0.00    -0.322 NA
ATOM      5  N   UNL     1      40.531 -25.295 -15.156  0.00  0.00    -0.170 NA
ATOM      6  N   UNL     1      40.942 -26.906 -13.509  0.00  0.00    -0.293 N 
ATOM      7  C   UNL     1      38.309 -24.597 -13.821  0.00  0.00    +0.201 C 
ATOM      8  C   UNL     1      36.692 -23.083 -14.139  0.00  0.00    +0.071 C 
ATOM      9  C   UNL     1      38.607 -23.914 -14.993  0.00  0.00    +0.069 C 
ATOM     10  C   UNL     1      37.579 -22.957 -15.188  0.00  0.00    +0.059 C 
ATOM     11  C   UNL     1      39.768 -24.299 -15.663  0.00  0.00    +0.116 C 
ATOM     12  C   UNL     1      40.116 -25.871 -14.005  0.00  0.00    +0.143 C 
ATOM     13  H   UNL     1      40.701 -27.370 -12.675  0.00  0.00    +0.155 HD
ATOM     14  H   UNL     1      41.757 -27.163 -13.997  0.00  0.00    +0.155 HD
BRANCH   3  15
ATOM     15  C   UNL     1      36.445 -24.539 -12.022  0.00  0.00    +0.091 C 
ATOM     16  C   UNL     1      34.900 -24.520 -12.114  0.00  0.00    +0.023 C 
ATOM     17  C   UNL     1      36.859 -25.996 -11.714  0.00  0.00    +0.023 C 
BRANCH  15  18
ATOM     18  C   UNL     1      36.869 -23.640 -10.833  0.00  0.00    +0.155 C 
BRANCH  18  19
ATOM     19  O   UNL     1      36.395 -24.176  -9.602  0.00  0.00    -0.380 OA
ATOM     20  H   UNL     1      37.123 -24.624  -9.143  0.00  0.00    +0.211 HD
ENDBRANCH  18  19
ENDBRANCH  15  18
ENDBRANCH   3  15
ENDBRANCH   2  10
BRANCH   2  22
ATOM     21  N   UNL     1      34.117 -22.900 -17.840  0.00  0.00    -0.241 NA
ATOM     22  C   UNL     1      36.296 -22.045 -17.238  0.00  0.00    +0.059 C 
ATOM     23  C   UNL     1      36.336 -21.299 -18.411  0.00  0.00    +0.021 C 
ATOM     24  C   UNL     1      35.175 -22.823 -17.001  0.00  0.00    +0.102 C 
ATOM     25  C   UNL     1      35.267 -21.353 -19.299  0.00  0.00    +0.070 C 
ATOM     26  C   UNL     1      34.190 -22.161 -18.970  0.00  0.00    +0.113 C 
BRANCH  25  28
ATOM     27  O   UNL     1      37.197 -19.271 -20.275  0.00  0.00    -0.274 OA
ATOM     28  N   UNL     1      35.278 -20.618 -20.482  0.00  0.00    -0.282 N 
ATOM     29  C   UNL     1      36.209 -19.649 -20.897  0.00  0.00    +0.232 C 
ATOM     30  H   UNL     1      34.540 -20.800 -21.107  0.00  0.00    +0.155 HD
BRANCH  29  31
ATOM     31  C   UNL     1      35.846 -19.089 -22.264  0.00  0.00    +0.131 C 
BRANCH  31  34
ATOM     32 CL   UNL     1      33.624 -13.582 -21.913  0.00  0.00    -0.081 Cl
ATOM     33  N   UNL     1      35.052 -17.181 -20.979  0.00  0.00    -0.247 NA
ATOM     34  C   UNL     1      35.284 -17.693 -22.209  0.00  0.00    +0.068 C 
ATOM     35  C   UNL     1      35.035 -17.013 -23.390  0.00  0.00    +0.016 C 
ATOM     36  C   UNL     1      34.516 -15.726 -23.305  0.00  0.00    +0.014 C 
ATOM     37  C   UNL     1      34.548 -15.928 -20.935  0.00  0.00    +0.110 C 
ATOM     38  C   UNL     1      34.264 -15.166 -22.057  0.00  0.00    +0.077 C 
ENDBRANCH  31  34
ENDBRANCH  29  31
ENDBRANCH  25  28
ENDBRANCH   2  22
TORSDOF 8
ENDMDL
MODEL 7
REMARK VINA RESULT:     -10.7      4.098      7.532
REMARK  Name = 66571548
REMARK  8 active torsions:
REMARK  status: ('A' for Active; 'I' for Inactive)
REMARK    1  A    between atoms: C_2  and  C_10
REMARK    2  A    between atoms: C_2  and  C_22
REMARK    3  A    between atoms: N_3  and  C_15
REMARK    4  A    between atoms: C_15  and  C_18
REMARK    5  A    between atoms: C_18  and  O_19
REMARK    6  A    between atoms: C_25  and  N_28
REMARK    7  A    between atoms: C_29  and  C_31
REMARK    8  A    between atoms: C_31  and  C_34
REMARK                            x       y       z     vdW  Elec       q    Type
REMARK                         _______ _______ _______ _____ _____    ______ ____
ROOT
ATOM      1  O   UNL     1      35.026 -10.959 -25.096  0.00  0.00    -0.286 OA
ATOM      2  C   UNL     1      34.214 -11.459 -24.288  0.00  0.00    +0.199 C 
ENDROOT
BRANCH   2  10
ATOM      3  N   UNL     1      32.643  -8.813 -22.403  0.00  0.00    -0.261 N 
ATOM      4  N   UNL     1      31.396  -9.810 -20.596  0.00  0.00    -0.322 NA
ATOM      5  N   UNL     1      31.554 -12.240 -20.562  0.00  0.00    -0.170 NA
ATOM      6  N   UNL     1      30.300 -11.076 -18.964  0.00  0.00    -0.293 N 
ATOM      7  C   UNL     1      32.192  -9.883 -21.677  0.00  0.00    +0.201 C 
ATOM      8  C   UNL     1      33.427  -9.257 -23.436  0.00  0.00    +0.071 C 
ATOM      9  C   UNL     1      32.702 -11.038 -22.257  0.00  0.00    +0.069 C 
ATOM     10  C   UNL     1      33.482 -10.634 -23.370  0.00  0.00    +0.059 C 
ATOM     11  C   UNL     1      32.353 -12.246 -21.654  0.00  0.00    +0.116 C 
ATOM     12  C   UNL     1      31.131 -11.038 -20.107  0.00  0.00    +0.143 C 
ATOM     13  H   UNL     1      29.955 -10.238 -18.579  0.00  0.00    +0.155 HD
ATOM     14  H   UNL     1      30.065 -11.939 -18.554  0.00  0.00    +0.155 HD
BRANCH   3  15
ATOM     15  C   UNL     1      32.325  -7.332 -22.115  0.00  0.00    +0.091 C 
ATOM     16  C   UNL     1      33.396  -6.353 -22.654  0.00  0.00    +0.023 C 
ATOM     17  C   UNL     1      30.990  -6.961 -22.801  0.00  0.00    +0.023 C 
BRANCH  15  18
ATOM     18  C   UNL     1      32.181  -7.100 -20.590  0.00  0.00    +0.155 C 
BRANCH  18  19
ATOM     19  O   UNL     1      33.392  -7.427 -19.914  0.00  0.00    -0.380 OA
ATOM     20  H   UNL     1      33.346  -8.341 -19.592  0.00  0.00    +0.211 HD
ENDBRANCH  18  19
ENDBRANCH  15  18
ENDBRANCH   3  15
ENDBRANCH   2  10
BRANCH   2  22
ATOM     21  N   UNL     1      33.067 -14.889 -25.402  0.00  0.00    -0.241 NA
ATOM     22  C   UNL     1      34.063 -12.954 -24.347  0.00  0.00    +0.059 C 
ATOM     23  C   UNL     1      34.735 -13.780 -23.451  0.00  0.00    +0.021 C 
ATOM     24  C   UNL     1      33.248 -13.553 -25.294  0.00  0.00    +0.102 C 
ATOM     25  C   UNL     1      34.574 -15.159 -23.530  0.00  0.00    +0.070 C 
ATOM     26  C   UNL     1      33.737 -15.659 -24.515  0.00  0.00    +0.113 C 
BRANCH  25  28
ATOM     27  O   UNL     1      34.928 -18.139 -23.602  0.00  0.00    -0.274 OA
ATOM     28  N   UNL     1      35.233 -16.010 -22.647  0.00  0.00    -0.282 N 
ATOM     29  C   UNL     1      35.374 -17.407 -22.723  0.00  0.00    +0.232 C 
ATOM     30  H   UNL     1      35.654 -15.578 -21.870  0.00  0.00    +0.155 HD
BRANCH  29  31
ATOM     31  C   UNL     1      36.172 -17.944 -21.546  0.00  0.00    +0.131 C 
BRANCH  31  34
ATOM     32 CL   UNL     1      33.776 -22.699 -18.893  0.00  0.00    -0.081 Cl
ATOM     33  N   UNL     1      36.369 -20.009 -20.274  0.00  0.00    -0.247 NA
ATOM     34  C   UNL     1      35.534 -19.137 -20.884  0.00  0.00    +0.068 C 
ATOM     35  C   UNL     1      34.157 -19.284 -20.929  0.00  0.00    +0.016 C 
ATOM     36  C   UNL     1      33.601 -20.396 -20.307  0.00  0.00    +0.014 C 
ATOM     37  C   UNL     1      35.792 -21.078 -19.681  0.00  0.00    +0.110 C 
ATOM     38  C   UNL     1      34.427 -21.316 -19.670  0.00  0.00    +0.077 C 
ENDBRANCH  31  34
ENDBRANCH  29  31
ENDBRANCH  25  28
ENDBRANCH   2  22
TORSDOF 8
ENDMDL
MODEL 8
REMARK VINA RESULT:     -10.4      4.368      7.182
REMARK  Name = 66571548
REMARK  8 active torsions:
REMARK  status: ('A' for Active; 'I' for Inactive)
REMARK    1  A    between atoms: C_2  and  C_10
REMARK    2  A    between atoms: C_2  and  C_22
REMARK    3  A    between atoms: N_3  and  C_15
REMARK    4  A    between atoms: C_15  and  C_18
REMARK    5  A    between atoms: C_18  and  O_19
REMARK    6  A    between atoms: C_25  and  N_28
REMARK    7  A    between atoms: C_29  and  C_31
REMARK    8  A    between atoms: C_31  and  C_34
REMARK                            x       y       z     vdW  Elec       q    Type
REMARK                         _______ _______ _______ _____ _____    ______ ____
ROOT
ATOM      1  O   UNL     1      34.114 -12.714 -24.602  0.00  0.00    -0.286 OA
ATOM      2  C   UNL     1      33.800 -12.321 -23.457  0.00  0.00    +0.199 C 
ENDROOT
BRANCH   2  10
ATOM      3  N   UNL     1      32.869  -9.050 -22.251  0.00  0.00    -0.261 N 
ATOM      4  N   UNL     1      34.216  -7.411 -23.398  0.00  0.00    -0.322 NA
ATOM      5  N   UNL     1      35.767  -8.403 -24.992  0.00  0.00    -0.170 NA
ATOM      6  N   UNL     1      35.662  -6.087 -24.672  0.00  0.00    -0.293 N 
ATOM      7  C   UNL     1      33.834  -8.675 -23.148  0.00  0.00    +0.201 C 
ATOM      8  C   UNL     1      32.744 -10.415 -22.256  0.00  0.00    +0.071 C 
ATOM      9  C   UNL     1      34.336  -9.827 -23.742  0.00  0.00    +0.069 C 
ATOM     10  C   UNL     1      33.641 -10.924 -23.172  0.00  0.00    +0.059 C 
ATOM     11  C   UNL     1      35.338  -9.652 -24.696  0.00  0.00    +0.116 C 
ATOM     12  C   UNL     1      35.187  -7.374 -24.332  0.00  0.00    +0.143 C 
ATOM     13  H   UNL     1      35.285  -5.292 -24.230  0.00  0.00    +0.155 HD
ATOM     14  H   UNL     1      36.371  -5.985 -25.347  0.00  0.00    +0.155 HD
BRANCH   3  15
ATOM     15  C   UNL     1      32.044  -8.095 -21.367  0.00  0.00    +0.091 C 
ATOM     16  C   UNL     1      30.932  -7.343 -22.137  0.00  0.00    +0.023 C 
ATOM     17  C   UNL     1      31.347  -8.914 -20.255  0.00  0.00    +0.023 C 
BRANCH  15  18
ATOM     18  C   UNL     1      32.969  -7.043 -20.703  0.00  0.00    +0.155 C 
BRANCH  18  19
ATOM     19  O   UNL     1      33.385  -7.481 -19.413  0.00  0.00    -0.380 OA
ATOM     20  H   UNL     1      33.927  -8.281 -19.504  0.00  0.00    +0.211 HD
ENDBRANCH  18  19
ENDBRANCH  15  18
ENDBRANCH   3  15
ENDBRANCH   2  10
BRANCH   2  22
ATOM     21  N   UNL     1      32.372 -14.232 -20.519  0.00  0.00    -0.241 NA
ATOM     22  C   UNL     1      33.607 -13.397 -22.423  0.00  0.00    +0.059 C 
ATOM     23  C   UNL     1      34.434 -14.515 -22.387  0.00  0.00    +0.021 C 
ATOM     24  C   UNL     1      32.600 -13.303 -21.475  0.00  0.00    +0.102 C 
ATOM     25  C   UNL     1      34.230 -15.491 -21.417  0.00  0.00    +0.070 C 
ATOM     26  C   UNL     1      33.195 -15.304 -20.515  0.00  0.00    +0.113 C 
BRANCH  25  28
ATOM     27  O   UNL     1      34.893 -17.526 -23.523  0.00  0.00    -0.274 OA
ATOM     28  N   UNL     1      35.043 -16.621 -21.356  0.00  0.00    -0.282 N 
ATOM     29  C   UNL     1      35.324 -17.548 -22.374  0.00  0.00    +0.232 C 
ATOM     30  H   UNL     1      35.474 -16.792 -20.488  0.00  0.00    +0.155 HD
BRANCH  29  31
ATOM     31  C   UNL     1      36.264 -18.638 -21.881  0.00  0.00    +0.131 C 
BRANCH  31  34
ATOM     32 CL   UNL     1      33.511 -22.553 -18.348  0.00  0.00    -0.081 Cl
ATOM     33  N   UNL     1      34.245 -19.649 -20.975  0.00  0.00    -0.247 NA
ATOM     34  C   UNL     1      35.597 -19.640 -20.976  0.00  0.00    +0.068 C 
ATOM     35  C   UNL     1      36.379 -20.485 -20.205  0.00  0.00    +0.016 C 
ATOM     36  C   UNL     1      35.732 -21.399 -19.381  0.00  0.00    +0.014 C 
ATOM     37  C   UNL     1      33.651 -20.551 -20.161  0.00  0.00    +0.110 C 
ATOM     38  C   UNL     1      34.343 -21.439 -19.352  0.00  0.00    +0.077 C 
ENDBRANCH  31  34
ENDBRANCH  29  31
ENDBRANCH  25  28
ENDBRANCH   2  22
TORSDOF 8
ENDMDL
MODEL 9
REMARK VINA RESULT:     -10.1      6.891     10.900
REMARK  Name = 66571548
REMARK  8 active torsions:
REMARK  status: ('A' for Active; 'I' for Inactive)
REMARK    1  A    between atoms: C_2  and  C_10
REMARK    2  A    between atoms: C_2  and  C_22
REMARK    3  A    between atoms: N_3  and  C_15
REMARK    4  A    between atoms: C_15  and  C_18
REMARK    5  A    between atoms: C_18  and  O_19
REMARK    6  A    between atoms: C_25  and  N_28
REMARK    7  A    between atoms: C_29  and  C_31
REMARK    8  A    between atoms: C_31  and  C_34
REMARK                            x       y       z     vdW  Elec       q    Type
REMARK                         _______ _______ _______ _____ _____    ______ ____
ROOT
ATOM      1  O   UNL     1      31.564  -7.818 -19.084  0.00  0.00    -0.286 OA
ATOM      2  C   UNL     1      31.927  -8.404 -20.126  0.00  0.00    +0.199 C 
ENDROOT
BRANCH   2  10
ATOM      3  N   UNL     1      33.632  -7.074 -23.016  0.00  0.00    -0.261 N 
ATOM      4  N   UNL     1      32.440  -5.115 -23.760  0.00  0.00    -0.322 NA
ATOM      5  N   UNL     1      30.491  -4.611 -22.389  0.00  0.00    -0.170 NA
ATOM      6  N   UNL     1      31.073  -3.275 -24.221  0.00  0.00    -0.293 N 
ATOM      7  C   UNL     1      32.618  -6.157 -22.930  0.00  0.00    +0.201 C 
ATOM      8  C   UNL     1      33.501  -7.997 -22.011  0.00  0.00    +0.071 C 
ATOM      9  C   UNL     1      31.821  -6.501 -21.845  0.00  0.00    +0.069 C 
ATOM     10  C   UNL     1      32.386  -7.666 -21.268  0.00  0.00    +0.059 C 
ATOM     11  C   UNL     1      30.725  -5.677 -21.590  0.00  0.00    +0.116 C 
ATOM     12  C   UNL     1      31.352  -4.399 -23.411  0.00  0.00    +0.143 C 
ATOM     13  H   UNL     1      31.658  -3.061 -24.984  0.00  0.00    +0.155 HD
ATOM     14  H   UNL     1      30.293  -2.707 -24.024  0.00  0.00    +0.155 HD
BRANCH   3  15
ATOM     15  C   UNL     1      34.754  -7.079 -24.072  0.00  0.00    +0.091 C 
ATOM     16  C   UNL     1      34.525  -6.071 -25.224  0.00  0.00    +0.023 C 
ATOM     17  C   UNL     1      36.087  -6.690 -23.393  0.00  0.00    +0.023 C 
BRANCH  15  18
ATOM     18  C   UNL     1      34.905  -8.492 -24.690  0.00  0.00    +0.155 C 
BRANCH  18  19
ATOM     19  O   UNL     1      35.785  -9.292 -23.906  0.00  0.00    -0.380 OA
ATOM     20  H   UNL     1      35.924  -8.870 -23.044  0.00  0.00    +0.211 HD
ENDBRANCH  18  19
ENDBRANCH  15  18
ENDBRANCH   3  15
ENDBRANCH   2  10
BRANCH   2  22
ATOM     21  N   UNL     1      31.424 -11.927 -18.841  0.00  0.00    -0.241 NA
ATOM     22  C   UNL     1      31.850  -9.906 -20.097  0.00  0.00    +0.059 C 
ATOM     23  C   UNL     1      32.119 -10.661 -21.235  0.00  0.00    +0.021 C 
ATOM     24  C   UNL     1      31.511 -10.581 -18.936  0.00  0.00    +0.102 C 
ATOM     25  C   UNL     1      32.040 -12.048 -21.176  0.00  0.00    +0.070 C 
ATOM     26  C   UNL     1      31.691 -12.628 -19.966  0.00  0.00    +0.113 C 
BRANCH  25  28
ATOM     27  O   UNL     1      34.080 -11.700 -23.351  0.00  0.00    -0.274 OA
ATOM     28  N   UNL     1      32.304 -12.830 -22.298  0.00  0.00    -0.282 N 
ATOM     29  C   UNL     1      33.276 -12.626 -23.293  0.00  0.00    +0.232 C 
ATOM     30  H   UNL     1      31.738 -13.627 -22.408  0.00  0.00    +0.155 HD
BRANCH  29  31
ATOM     31  C   UNL     1      33.224 -13.723 -24.345  0.00  0.00    +0.131 C 
BRANCH  31  34
ATOM     32 CL   UNL     1      36.100 -18.634 -22.613  0.00  0.00    -0.081 Cl
ATOM     33  N   UNL     1      34.269 -15.096 -22.630  0.00  0.00    -0.247 NA
ATOM     34  C   UNL     1      33.952 -14.978 -23.939  0.00  0.00    +0.068 C 
ATOM     35  C   UNL     1      34.255 -15.929 -24.900  0.00  0.00    +0.016 C 
ATOM     36  C   UNL     1      34.927 -17.075 -24.491  0.00  0.00    +0.014 C 
ATOM     37  C   UNL     1      34.922 -16.224 -22.270  0.00  0.00    +0.110 C 
ATOM     38  C   UNL     1      35.271 -17.234 -23.153  0.00  0.00    +0.077 C 
ENDBRANCH  31  34
ENDBRANCH  29  31
ENDBRANCH  25  28
ENDBRANCH   2  22
TORSDOF 8
ENDMDL
