MODEL 1
REMARK VINA RESULT:     -12.4      0.000      0.000
REMARK  Name = 5326869
REMARK  6 active torsions:
REMARK  status: ('A' for Active; 'I' for Inactive)
REMARK    1  A    between atoms: N_2  and  C_11
REMARK    2  A    between atoms: C_3  and  C_25
REMARK    3  A    between atoms: N_5  and  C_14
REMARK    4  A    between atoms: C_14  and  C_15
REMARK    5  A    between atoms: C_15  and  C_17
REMARK    6  A    between atoms: C_23  and  N_30
REMARK                            x       y       z     vdW  Elec       q    Type
REMARK                         _______ _______ _______ _____ _____    ______ ____
ROOT
ATOM      1  O   UNL     1      32.693 -21.382 -20.157  0.00  0.00    -0.270 OA
ATOM      2  N   UNL     1      34.859 -20.469 -20.093  0.00  0.00    -0.280 N 
ATOM      3  C   UNL     1      33.804 -21.280 -19.650  0.00  0.00    +0.250 C 
ATOM      4  H   UNL     1      35.687 -20.511 -19.562  0.00  0.00    +0.155 HD
ENDROOT
BRANCH   2  11
ATOM      5  N   UNL     1      34.676 -16.038 -22.223  0.00  0.00    -0.286 N 
ATOM      6  C   UNL     1      34.778 -17.408 -22.120  0.00  0.00    +0.053 C 
ATOM      7  C   UNL     1      34.925 -17.907 -23.415  0.00  0.00    +0.015 C 
ATOM      8  C   UNL     1      34.753 -15.657 -23.536  0.00  0.00    +0.065 C 
ATOM      9  C   UNL     1      34.751 -18.233 -20.989  0.00  0.00    +0.029 C 
ATOM     10  C   UNL     1      34.908 -16.792 -24.298  0.00  0.00    +0.017 C 
ATOM     11  C   UNL     1      34.879 -19.610 -21.192  0.00  0.00    +0.052 C 
ATOM     12  C   UNL     1      35.053 -19.299 -23.594  0.00  0.00    +0.003 C 
ATOM     13  C   UNL     1      35.028 -20.137 -22.473  0.00  0.00    +0.015 C 
BRANCH   5  14
ATOM     14  C   UNL     1      34.512 -15.121 -21.116  0.00  0.00    +0.100 C 
BRANCH  14  15
ATOM     15  C   UNL     1      33.063 -14.999 -20.633  0.00  0.00    +0.048 C 
BRANCH  15  17
ATOM     16  N   UNL     1      31.447 -11.056 -21.085  0.00  0.00    -0.242 NA
ATOM     17  C   UNL     1      32.493 -13.612 -20.792  0.00  0.00    -0.017 C 
ATOM     18  C   UNL     1      31.860 -13.009 -19.723  0.00  0.00    +0.016 C 
ATOM     19  C   UNL     1      32.615 -12.961 -22.006  0.00  0.00    +0.016 C 
ATOM     20  C   UNL     1      31.354 -11.734 -19.920  0.00  0.00    +0.099 C 
ATOM     21  C   UNL     1      32.076 -11.689 -22.101  0.00  0.00    +0.099 C 
ENDBRANCH  15  17
ENDBRANCH  14  15
ENDBRANCH   5  14
ENDBRANCH   2  11
BRANCH   3  25
ATOM     22  F   UNL     1      36.913 -23.212 -16.491  0.00  0.00    -0.204 F 
ATOM     23  C   UNL     1      33.277 -23.315 -16.549  0.00  0.00    +0.050 C 
ATOM     24  C   UNL     1      33.018 -22.575 -17.703  0.00  0.00    +0.019 C 
ATOM     25  C   UNL     1      34.080 -22.069 -18.422  0.00  0.00    +0.057 C 
ATOM     26  C   UNL     1      34.592 -23.530 -16.140  0.00  0.00    +0.044 C 
ATOM     27  C   UNL     1      35.390 -22.267 -18.038  0.00  0.00    +0.034 C 
ATOM     28  C   UNL     1      35.650 -23.007 -16.884  0.00  0.00    +0.142 C 
BRANCH  23  30
ATOM     29  O   UNL     1      30.051 -24.640 -14.199  0.00  0.00    -0.350 OA
ATOM     30  N   UNL     1      32.217 -23.840 -15.802  0.00  0.00    -0.303 N 
ATOM     31  C   UNL     1      32.438 -24.264 -14.415  0.00  0.00    +0.123 C 
ATOM     32  C   UNL     1      30.858 -23.372 -16.104  0.00  0.00    +0.123 C 
ATOM     33  C   UNL     1      31.335 -25.226 -13.988  0.00  0.00    +0.164 C 
ATOM     34  C   UNL     1      29.839 -24.382 -15.588  0.00  0.00    +0.164 C 
ENDBRANCH  23  30
ENDBRANCH   3  25
TORSDOF 6
ENDMDL
MODEL 2
REMARK VINA RESULT:     -12.0      2.324      3.235
REMARK  Name = 5326869
REMARK  6 active torsions:
REMARK  status: ('A' for Active; 'I' for Inactive)
REMARK    1  A    between atoms: N_2  and  C_11
REMARK    2  A    between atoms: C_3  and  C_25
REMARK    3  A    between atoms: N_5  and  C_14
REMARK    4  A    between atoms: C_14  and  C_15
REMARK    5  A    between atoms: C_15  and  C_17
REMARK    6  A    between atoms: C_23  and  N_30
REMARK                            x       y       z     vdW  Elec       q    Type
REMARK                         _______ _______ _______ _____ _____    ______ ____
ROOT
ATOM      1  O   UNL     1      36.705 -21.275 -19.810  0.00  0.00    -0.270 OA
ATOM      2  N   UNL     1      34.532 -20.433 -20.119  0.00  0.00    -0.280 N 
ATOM      3  C   UNL     1      35.520 -21.215 -19.505  0.00  0.00    +0.250 C 
ATOM      4  H   UNL     1      33.626 -20.508 -19.742  0.00  0.00    +0.155 HD
ENDROOT
BRANCH   2  11
ATOM      5  N   UNL     1      34.720 -15.970 -22.182  0.00  0.00    -0.286 N 
ATOM      6  C   UNL     1      34.750 -17.344 -22.095  0.00  0.00    +0.053 C 
ATOM      7  C   UNL     1      34.971 -17.833 -23.383  0.00  0.00    +0.015 C 
ATOM      8  C   UNL     1      34.915 -15.576 -23.478  0.00  0.00    +0.065 C 
ATOM      9  C   UNL     1      34.598 -18.182 -20.984  0.00  0.00    +0.029 C 
ATOM     10  C   UNL     1      35.074 -16.706 -24.246  0.00  0.00    +0.017 C 
ATOM     11  C   UNL     1      34.676 -19.561 -21.200  0.00  0.00    +0.052 C 
ATOM     12  C   UNL     1      35.047 -19.227 -23.576  0.00  0.00    +0.003 C 
ATOM     13  C   UNL     1      34.897 -20.077 -22.475  0.00  0.00    +0.015 C 
BRANCH   5  14
ATOM     14  C   UNL     1      34.515 -15.061 -21.075  0.00  0.00    +0.100 C 
BRANCH  14  15
ATOM     15  C   UNL     1      33.049 -14.939 -20.647  0.00  0.00    +0.048 C 
BRANCH  15  17
ATOM     16  N   UNL     1      31.452 -10.994 -21.145  0.00  0.00    -0.242 NA
ATOM     17  C   UNL     1      32.488 -13.550 -20.822  0.00  0.00    -0.017 C 
ATOM     18  C   UNL     1      32.634 -12.904 -22.036  0.00  0.00    +0.016 C 
ATOM     19  C   UNL     1      31.833 -12.942 -19.767  0.00  0.00    +0.016 C 
ATOM     20  C   UNL     1      32.100 -11.631 -22.146  0.00  0.00    +0.099 C 
ATOM     21  C   UNL     1      31.335 -11.667 -19.979  0.00  0.00    +0.099 C 
ENDBRANCH  15  17
ENDBRANCH  14  15
ENDBRANCH   5  14
ENDBRANCH   2  11
BRANCH   3  25
ATOM     22  F   UNL     1      32.007 -23.671 -17.265  0.00  0.00    -0.204 F 
ATOM     23  C   UNL     1      35.505 -23.247 -16.357  0.00  0.00    +0.050 C 
ATOM     24  C   UNL     1      35.947 -22.443 -17.407  0.00  0.00    +0.019 C 
ATOM     25  C   UNL     1      35.049 -22.070 -18.385  0.00  0.00    +0.057 C 
ATOM     26  C   UNL     1      34.175 -23.662 -16.309  0.00  0.00    +0.044 C 
ATOM     27  C   UNL     1      33.728 -22.467 -18.360  0.00  0.00    +0.034 C 
ATOM     28  C   UNL     1      33.285 -23.272 -17.310  0.00  0.00    +0.142 C 
BRANCH  23  30
ATOM     29  O   UNL     1      38.189 -24.161 -13.252  0.00  0.00    -0.350 OA
ATOM     30  N   UNL     1      36.396 -23.639 -15.353  0.00  0.00    -0.303 N 
ATOM     31  C   UNL     1      37.842 -23.486 -15.556  0.00  0.00    +0.123 C 
ATOM     32  C   UNL     1      35.949 -23.553 -13.956  0.00  0.00    +0.123 C 
ATOM     33  C   UNL     1      38.596 -24.401 -14.598  0.00  0.00    +0.164 C 
ATOM     34  C   UNL     1      36.804 -24.465 -13.084  0.00  0.00    +0.164 C 
ENDBRANCH  23  30
ENDBRANCH   3  25
TORSDOF 6
ENDMDL
MODEL 3
REMARK VINA RESULT:     -11.5      4.637     11.597
REMARK  Name = 5326869
REMARK  6 active torsions:
REMARK  status: ('A' for Active; 'I' for Inactive)
REMARK    1  A    between atoms: N_2  and  C_11
REMARK    2  A    between atoms: C_3  and  C_25
REMARK    3  A    between atoms: N_5  and  C_14
REMARK    4  A    between atoms: C_14  and  C_15
REMARK    5  A    between atoms: C_15  and  C_17
REMARK    6  A    between atoms: C_23  and  N_30
REMARK                            x       y       z     vdW  Elec       q    Type
REMARK                         _______ _______ _______ _____ _____    ______ ____
ROOT
ATOM      1  O   UNL     1      31.572 -13.723 -21.032  0.00  0.00    -0.270 OA
ATOM      2  N   UNL     1      33.223 -13.020 -22.552  0.00  0.00    -0.280 N 
ATOM      3  C   UNL     1      32.282 -12.854 -21.526  0.00  0.00    +0.250 C 
ATOM      4  H   UNL     1      33.707 -12.208 -22.828  0.00  0.00    +0.155 HD
ENDROOT
BRANCH   2  11
ATOM      5  N   UNL     1      35.018 -17.592 -22.818  0.00  0.00    -0.286 N 
ATOM      6  C   UNL     1      34.451 -16.411 -23.242  0.00  0.00    +0.053 C 
ATOM      7  C   UNL     1      34.215 -16.538 -24.612  0.00  0.00    +0.015 C 
ATOM      8  C   UNL     1      35.148 -18.458 -23.871  0.00  0.00    +0.065 C 
ATOM      9  C   UNL     1      34.134 -15.253 -22.524  0.00  0.00    +0.029 C 
ATOM     10  C   UNL     1      34.659 -17.834 -24.995  0.00  0.00    +0.017 C 
ATOM     11  C   UNL     1      33.557 -14.193 -23.230  0.00  0.00    +0.052 C 
ATOM     12  C   UNL     1      33.632 -15.456 -25.302  0.00  0.00    +0.003 C 
ATOM     13  C   UNL     1      33.309 -14.291 -24.597  0.00  0.00    +0.015 C 
BRANCH   5  14
ATOM     14  C   UNL     1      35.423 -17.892 -21.461  0.00  0.00    +0.100 C 
BRANCH  14  15
ATOM     15  C   UNL     1      36.112 -19.252 -21.315  0.00  0.00    +0.048 C 
BRANCH  15  17
ATOM     16  N   UNL     1      33.807 -22.094 -19.085  0.00  0.00    -0.242 NA
ATOM     17  C   UNL     1      35.301 -20.253 -20.531  0.00  0.00    -0.017 C 
ATOM     18  C   UNL     1      35.948 -21.200 -19.760  0.00  0.00    +0.016 C 
ATOM     19  C   UNL     1      33.920 -20.209 -20.593  0.00  0.00    +0.016 C 
ATOM     20  C   UNL     1      35.158 -22.096 -19.058  0.00  0.00    +0.099 C 
ATOM     21  C   UNL     1      33.221 -21.149 -19.853  0.00  0.00    +0.099 C 
ENDBRANCH  15  17
ENDBRANCH  14  15
ENDBRANCH   5  14
ENDBRANCH   2  11
BRANCH   3  25
ATOM     22  F   UNL     1      31.499  -9.754 -17.899  0.00  0.00    -0.204 F 
ATOM     23  C   UNL     1      32.106  -9.113 -21.428  0.00  0.00    +0.050 C 
ATOM     24  C   UNL     1      32.247 -10.416 -21.906  0.00  0.00    +0.019 C 
ATOM     25  C   UNL     1      32.131 -11.466 -21.019  0.00  0.00    +0.057 C 
ATOM     26  C   UNL     1      31.853  -8.889 -20.076  0.00  0.00    +0.044 C 
ATOM     27  C   UNL     1      31.881 -11.271 -19.676  0.00  0.00    +0.034 C 
ATOM     28  C   UNL     1      31.740  -9.968 -19.199  0.00  0.00    +0.142 C 
BRANCH  23  30
ATOM     29  O   UNL     1      32.340  -6.020 -24.268  0.00  0.00    -0.350 OA
ATOM     30  N   UNL     1      32.219  -8.030 -22.307  0.00  0.00    -0.303 N 
ATOM     31  C   UNL     1      33.395  -7.913 -23.177  0.00  0.00    +0.123 C 
ATOM     32  C   UNL     1      30.985  -7.438 -22.840  0.00  0.00    +0.123 C 
ATOM     33  C   UNL     1      33.545  -6.471 -23.650  0.00  0.00    +0.164 C 
ATOM     34  C   UNL     1      31.263  -6.022 -23.331  0.00  0.00    +0.164 C 
ENDBRANCH  23  30
ENDBRANCH   3  25
TORSDOF 6
ENDMDL
MODEL 4
REMARK VINA RESULT:     -11.1      5.153     12.124
REMARK  Name = 5326869
REMARK  6 active torsions:
REMARK  status: ('A' for Active; 'I' for Inactive)
REMARK    1  A    between atoms: N_2  and  C_11
REMARK    2  A    between atoms: C_3  and  C_25
REMARK    3  A    between atoms: N_5  and  C_14
REMARK    4  A    between atoms: C_14  and  C_15
REMARK    5  A    between atoms: C_15  and  C_17
REMARK    6  A    between atoms: C_23  and  N_30
REMARK                            x       y       z     vdW  Elec       q    Type
REMARK                         _______ _______ _______ _____ _____    ______ ____
ROOT
ATOM      1  O   UNL     1      33.960 -11.410 -24.167  0.00  0.00    -0.270 OA
ATOM      2  N   UNL     1      32.959 -13.067 -22.834  0.00  0.00    -0.280 N 
ATOM      3  C   UNL     1      33.266 -11.755 -23.218  0.00  0.00    +0.250 C 
ATOM      4  H   UNL     1      32.383 -13.161 -22.041  0.00  0.00    +0.155 HD
ENDROOT
BRANCH   2  11
ATOM      5  N   UNL     1      35.006 -17.541 -22.812  0.00  0.00    -0.286 N 
ATOM      6  C   UNL     1      34.382 -16.419 -23.311  0.00  0.00    +0.053 C 
ATOM      7  C   UNL     1      34.177 -16.636 -24.675  0.00  0.00    +0.015 C 
ATOM      8  C   UNL     1      35.200 -18.456 -23.811  0.00  0.00    +0.065 C 
ATOM      9  C   UNL     1      33.990 -15.241 -22.665  0.00  0.00    +0.029 C 
ATOM     10  C   UNL     1      34.698 -17.925 -24.977  0.00  0.00    +0.017 C 
ATOM     11  C   UNL     1      33.368 -14.257 -23.439  0.00  0.00    +0.052 C 
ATOM     12  C   UNL     1      33.548 -15.629 -25.434  0.00  0.00    +0.003 C 
ATOM     13  C   UNL     1      33.149 -14.446 -24.802  0.00  0.00    +0.015 C 
BRANCH   5  14
ATOM     14  C   UNL     1      35.403 -17.740 -21.435  0.00  0.00    +0.100 C 
BRANCH  14  15
ATOM     15  C   UNL     1      36.151 -19.056 -21.199  0.00  0.00    +0.048 C 
BRANCH  15  17
ATOM     16  N   UNL     1      33.775 -22.035 -19.237  0.00  0.00    -0.242 NA
ATOM     17  C   UNL     1      35.315 -20.105 -20.509  0.00  0.00    -0.017 C 
ATOM     18  C   UNL     1      35.936 -21.094 -19.771  0.00  0.00    +0.016 C 
ATOM     19  C   UNL     1      33.937 -20.061 -20.623  0.00  0.00    +0.016 C 
ATOM     20  C   UNL     1      35.124 -22.034 -19.157  0.00  0.00    +0.099 C 
ATOM     21  C   UNL     1      33.215 -21.047 -19.971  0.00  0.00    +0.099 C 
ENDBRANCH  15  17
ENDBRANCH  14  15
ENDBRANCH   5  14
ENDBRANCH   2  11
BRANCH   3  25
ATOM     22  F   UNL     1      31.311 -10.319 -19.035  0.00  0.00    -0.204 F 
ATOM     23  C   UNL     1      32.097  -8.401 -22.024  0.00  0.00    +0.050 C 
ATOM     24  C   UNL     1      32.627  -9.401 -22.839  0.00  0.00    +0.019 C 
ATOM     25  C   UNL     1      32.700 -10.689 -22.351  0.00  0.00    +0.057 C 
ATOM     26  C   UNL     1      31.652  -8.711 -20.740  0.00  0.00    +0.044 C 
ATOM     27  C   UNL     1      32.267 -11.022 -21.084  0.00  0.00    +0.034 C 
ATOM     28  C   UNL     1      31.737 -10.022 -20.269  0.00  0.00    +0.142 C 
BRANCH  23  30
ATOM     29  O   UNL     1      32.047  -4.385 -23.270  0.00  0.00    -0.350 OA
ATOM     30  N   UNL     1      32.012  -7.087 -22.496  0.00  0.00    -0.303 N 
ATOM     31  C   UNL     1      31.220  -6.094 -21.760  0.00  0.00    +0.123 C 
ATOM     32  C   UNL     1      33.151  -6.545 -23.249  0.00  0.00    +0.123 C 
ATOM     33  C   UNL     1      30.868  -4.931 -22.680  0.00  0.00    +0.164 C 
ATOM     34  C   UNL     1      32.696  -5.358 -24.090  0.00  0.00    +0.164 C 
ENDBRANCH  23  30
ENDBRANCH   3  25
TORSDOF 6
ENDMDL
MODEL 5
REMARK VINA RESULT:     -11.1      7.584     14.514
REMARK  Name = 5326869
REMARK  6 active torsions:
REMARK  status: ('A' for Active; 'I' for Inactive)
REMARK    1  A    between atoms: N_2  and  C_11
REMARK    2  A    between atoms: C_3  and  C_25
REMARK    3  A    between atoms: N_5  and  C_14
REMARK    4  A    between atoms: C_14  and  C_15
REMARK    5  A    between atoms: C_15  and  C_17
REMARK    6  A    between atoms: C_23  and  N_30
REMARK                            x       y       z     vdW  Elec       q    Type
REMARK                         _______ _______ _______ _____ _____    ______ ____
ROOT
ATOM      1  O   UNL     1      33.338  -7.901 -20.441  0.00  0.00    -0.270 OA
ATOM      2  N   UNL     1      31.669  -9.073 -21.611  0.00  0.00    -0.280 N 
ATOM      3  C   UNL     1      32.434  -7.950 -21.268  0.00  0.00    +0.250 C 
ATOM      4  H   UNL     1      30.980  -8.931 -22.300  0.00  0.00    +0.155 HD
ENDROOT
BRANCH   2  11
ATOM      5  N   UNL     1      32.677 -13.877 -21.932  0.00  0.00    -0.286 N 
ATOM      6  C   UNL     1      32.284 -12.686 -21.366  0.00  0.00    +0.053 C 
ATOM      7  C   UNL     1      31.946 -12.953 -20.038  0.00  0.00    +0.015 C 
ATOM      8  C   UNL     1      32.599 -14.886 -21.009  0.00  0.00    +0.065 C 
ATOM      9  C   UNL     1      32.203 -11.404 -21.923  0.00  0.00    +0.029 C 
ATOM     10  C   UNL     1      32.150 -14.345 -19.827  0.00  0.00    +0.017 C 
ATOM     11  C   UNL     1      31.763 -10.366 -21.096  0.00  0.00    +0.052 C 
ATOM     12  C   UNL     1      31.506 -11.890 -19.223  0.00  0.00    +0.003 C 
ATOM     13  C   UNL     1      31.420 -10.604 -19.767  0.00  0.00    +0.015 C 
BRANCH   5  14
ATOM     14  C   UNL     1      33.112 -14.056 -23.300  0.00  0.00    +0.100 C 
BRANCH  14  15
ATOM     15  C   UNL     1      34.562 -14.535 -23.423  0.00  0.00    +0.048 C 
BRANCH  15  17
ATOM     16  N   UNL     1      34.937 -18.798 -23.643  0.00  0.00    -0.242 NA
ATOM     17  C   UNL     1      34.693 -16.035 -23.500  0.00  0.00    -0.017 C 
ATOM     18  C   UNL     1      34.319 -16.693 -24.656  0.00  0.00    +0.016 C 
ATOM     19  C   UNL     1      35.188 -16.732 -22.413  0.00  0.00    +0.016 C 
ATOM     20  C   UNL     1      34.460 -18.071 -24.678  0.00  0.00    +0.099 C 
ATOM     21  C   UNL     1      35.289 -18.108 -22.535  0.00  0.00    +0.099 C 
ENDBRANCH  15  17
ENDBRANCH  14  15
ENDBRANCH   5  14
ENDBRANCH   2  11
BRANCH   3  25
ATOM     22  F   UNL     1      29.712  -3.976 -21.687  0.00  0.00    -0.204 F 
ATOM     23  C   UNL     1      32.451  -5.159 -23.767  0.00  0.00    +0.050 C 
ATOM     24  C   UNL     1      32.787  -6.339 -23.103  0.00  0.00    +0.019 C 
ATOM     25  C   UNL     1      32.076  -6.694 -21.977  0.00  0.00    +0.057 C 
ATOM     26  C   UNL     1      31.413  -4.361 -23.289  0.00  0.00    +0.044 C 
ATOM     27  C   UNL     1      31.044  -5.923 -21.483  0.00  0.00    +0.034 C 
ATOM     28  C   UNL     1      30.708  -4.743 -22.147  0.00  0.00    +0.142 C 
BRANCH  23  30
ATOM     29  O   UNL     1      34.386  -4.147 -27.361  0.00  0.00    -0.350 OA
ATOM     30  N   UNL     1      33.157  -4.776 -24.913  0.00  0.00    -0.303 N 
ATOM     31  C   UNL     1      34.150  -5.684 -25.499  0.00  0.00    +0.123 C 
ATOM     32  C   UNL     1      32.497  -3.873 -25.865  0.00  0.00    +0.123 C 
ATOM     33  C   UNL     1      35.109  -4.897 -26.385  0.00  0.00    +0.164 C 
ATOM     34  C   UNL     1      33.544  -3.182 -26.731  0.00  0.00    +0.164 C 
ENDBRANCH  23  30
ENDBRANCH   3  25
TORSDOF 6
ENDMDL
MODEL 6
REMARK VINA RESULT:     -10.7      7.839     15.104
REMARK  Name = 5326869
REMARK  6 active torsions:
REMARK  status: ('A' for Active; 'I' for Inactive)
REMARK    1  A    between atoms: N_2  and  C_11
REMARK    2  A    between atoms: C_3  and  C_25
REMARK    3  A    between atoms: N_5  and  C_14
REMARK    4  A    between atoms: C_14  and  C_15
REMARK    5  A    between atoms: C_15  and  C_17
REMARK    6  A    between atoms: C_23  and  N_30
REMARK                            x       y       z     vdW  Elec       q    Type
REMARK                         _______ _______ _______ _____ _____    ______ ____
ROOT
ATOM      1  O   UNL     1      34.268  -7.518 -22.039  0.00  0.00    -0.270 OA
ATOM      2  N   UNL     1      32.148  -8.363 -22.603  0.00  0.00    -0.280 N 
ATOM      3  C   UNL     1      33.209  -7.450 -22.654  0.00  0.00    +0.250 C 
ATOM      4  H   UNL     1      31.368  -8.150 -23.165  0.00  0.00    +0.155 HD
ENDROOT
BRANCH   2  11
ATOM      5  N   UNL     1      32.485 -13.233 -21.990  0.00  0.00    -0.286 N 
ATOM      6  C   UNL     1      32.257 -11.913 -21.668  0.00  0.00    +0.053 C 
ATOM      7  C   UNL     1      31.878 -11.877 -20.325  0.00  0.00    +0.015 C 
ATOM      8  C   UNL     1      32.263 -14.029 -20.898  0.00  0.00    +0.065 C 
ATOM      9  C   UNL     1      32.357 -10.761 -22.457  0.00  0.00    +0.029 C 
ATOM     10  C   UNL     1      31.886 -13.219 -19.852  0.00  0.00    +0.017 C 
ATOM     11  C   UNL     1      32.059  -9.536 -21.853  0.00  0.00    +0.052 C 
ATOM     12  C   UNL     1      31.584 -10.630 -19.738  0.00  0.00    +0.003 C 
ATOM     13  C   UNL     1      31.679  -9.470 -20.514  0.00  0.00    +0.015 C 
BRANCH   5  14
ATOM     14  C   UNL     1      32.900 -13.723 -23.286  0.00  0.00    +0.100 C 
BRANCH  14  15
ATOM     15  C   UNL     1      34.378 -14.121 -23.344  0.00  0.00    +0.048 C 
BRANCH  15  17
ATOM     16  N   UNL     1      34.992 -18.359 -23.513  0.00  0.00    -0.242 NA
ATOM     17  C   UNL     1      34.595 -15.613 -23.404  0.00  0.00    -0.017 C 
ATOM     18  C   UNL     1      35.009 -16.287 -22.270  0.00  0.00    +0.016 C 
ATOM     19  C   UNL     1      34.376 -16.286 -24.591  0.00  0.00    +0.016 C 
ATOM     20  C   UNL     1      35.193 -17.656 -22.376  0.00  0.00    +0.099 C 
ATOM     21  C   UNL     1      34.588 -17.655 -24.593  0.00  0.00    +0.099 C 
ENDBRANCH  15  17
ENDBRANCH  14  15
ENDBRANCH   5  14
ENDBRANCH   2  11
BRANCH   3  25
ATOM     22  F   UNL     1      30.861  -3.359 -23.719  0.00  0.00    -0.204 F 
ATOM     23  C   UNL     1      33.584  -5.013 -25.475  0.00  0.00    +0.050 C 
ATOM     24  C   UNL     1      33.786  -6.121 -24.651  0.00  0.00    +0.019 C 
ATOM     25  C   UNL     1      32.994  -6.271 -23.532  0.00  0.00    +0.057 C 
ATOM     26  C   UNL     1      32.596  -4.081 -25.160  0.00  0.00    +0.044 C 
ATOM     27  C   UNL     1      32.010  -5.363 -23.198  0.00  0.00    +0.034 C 
ATOM     28  C   UNL     1      31.809  -4.255 -24.022  0.00  0.00    +0.142 C 
BRANCH  23  30
ATOM     29  O   UNL     1      36.043  -4.245 -28.799  0.00  0.00    -0.350 OA
ATOM     30  N   UNL     1      34.373  -4.838 -26.616  0.00  0.00    -0.303 N 
ATOM     31  C   UNL     1      33.870  -4.037 -27.739  0.00  0.00    +0.123 C 
ATOM     32  C   UNL     1      35.834  -4.843 -26.457  0.00  0.00    +0.123 C 
ATOM     33  C   UNL     1      34.638  -4.390 -29.008  0.00  0.00    +0.164 C 
ATOM     34  C   UNL     1      36.497  -5.153 -27.794  0.00  0.00    +0.164 C 
ENDBRANCH  23  30
ENDBRANCH   3  25
TORSDOF 6
ENDMDL
MODEL 7
REMARK VINA RESULT:     -10.7      3.141     10.103
REMARK  Name = 5326869
REMARK  6 active torsions:
REMARK  status: ('A' for Active; 'I' for Inactive)
REMARK    1  A    between atoms: N_2  and  C_11
REMARK    2  A    between atoms: C_3  and  C_25
REMARK    3  A    between atoms: N_5  and  C_14
REMARK    4  A    between atoms: C_14  and  C_15
REMARK    5  A    between atoms: C_15  and  C_17
REMARK    6  A    between atoms: C_23  and  N_30
REMARK                            x       y       z     vdW  Elec       q    Type
REMARK                         _______ _______ _______ _____ _____    ______ ____
ROOT
ATOM      1  O   UNL     1      37.418 -19.489 -19.810  0.00  0.00    -0.270 OA
ATOM      2  N   UNL     1      35.624 -20.992 -19.587  0.00  0.00    -0.280 N 
ATOM      3  C   UNL     1      36.357 -19.966 -20.198  0.00  0.00    +0.250 C 
ATOM      4  H   UNL     1      34.788 -21.252 -20.038  0.00  0.00    +0.155 HD
ENDROOT
BRANCH   2  11
ATOM      5  N   UNL     1      34.532 -23.930 -15.794  0.00  0.00    -0.286 N 
ATOM      6  C   UNL     1      35.290 -23.126 -16.616  0.00  0.00    +0.053 C 
ATOM      7  C   UNL     1      36.577 -23.083 -16.076  0.00  0.00    +0.015 C 
ATOM      8  C   UNL     1      35.294 -24.395 -14.756  0.00  0.00    +0.065 C 
ATOM      9  C   UNL     1      34.937 -22.441 -17.785  0.00  0.00    +0.029 C 
ATOM     10  C   UNL     1      36.565 -23.888 -14.903  0.00  0.00    +0.017 C 
ATOM     11  C   UNL     1      35.932 -21.690 -18.418  0.00  0.00    +0.052 C 
ATOM     12  C   UNL     1      37.563 -22.319 -16.733  0.00  0.00    +0.003 C 
ATOM     13  C   UNL     1      37.225 -21.629 -17.902  0.00  0.00    +0.015 C 
BRANCH   5  14
ATOM     14  C   UNL     1      33.134 -24.248 -15.986  0.00  0.00    +0.100 C 
BRANCH  14  15
ATOM     15  C   UNL     1      32.184 -23.291 -15.260  0.00  0.00    +0.048 C 
BRANCH  15  17
ATOM     16  N   UNL     1      28.107 -24.609 -15.259  0.00  0.00    -0.242 NA
ATOM     17  C   UNL     1      30.749 -23.756 -15.260  0.00  0.00    -0.017 C 
ATOM     18  C   UNL     1      30.404 -24.900 -14.568  0.00  0.00    +0.016 C 
ATOM     19  C   UNL     1      29.798 -23.029 -15.952  0.00  0.00    +0.016 C 
ATOM     20  C   UNL     1      29.073 -25.285 -14.598  0.00  0.00    +0.099 C 
ATOM     21  C   UNL     1      28.495 -23.497 -15.921  0.00  0.00    +0.099 C 
ENDBRANCH  15  17
ENDBRANCH  14  15
ENDBRANCH   5  14
ENDBRANCH   2  11
BRANCH   3  25
ATOM     22  F   UNL     1      34.733 -20.483 -24.723  0.00  0.00    -0.204 F 
ATOM     23  C   UNL     1      34.858 -17.523 -22.611  0.00  0.00    +0.050 C 
ATOM     24  C   UNL     1      35.428 -18.057 -21.455  0.00  0.00    +0.019 C 
ATOM     25  C   UNL     1      35.751 -19.397 -21.429  0.00  0.00    +0.057 C 
ATOM     26  C   UNL     1      34.624 -18.342 -23.714  0.00  0.00    +0.044 C 
ATOM     27  C   UNL     1      35.530 -20.229 -22.508  0.00  0.00    +0.034 C 
ATOM     28  C   UNL     1      34.959 -19.695 -23.664  0.00  0.00    +0.142 C 
BRANCH  23  30
ATOM     29  O   UNL     1      34.114 -13.388 -22.796  0.00  0.00    -0.350 OA
ATOM     30  N   UNL     1      34.521 -16.167 -22.662  0.00  0.00    -0.303 N 
ATOM     31  C   UNL     1      34.593 -15.347 -21.447  0.00  0.00    +0.123 C 
ATOM     32  C   UNL     1      34.751 -15.442 -23.920  0.00  0.00    +0.123 C 
ATOM     33  C   UNL     1      33.737 -14.098 -21.617  0.00  0.00    +0.164 C 
ATOM     34  C   UNL     1      33.886 -14.188 -23.957  0.00  0.00    +0.164 C 
ENDBRANCH  23  30
ENDBRANCH   3  25
TORSDOF 6
ENDMDL
MODEL 8
REMARK VINA RESULT:     -10.2      4.929     11.378
REMARK  Name = 5326869
REMARK  6 active torsions:
REMARK  status: ('A' for Active; 'I' for Inactive)
REMARK    1  A    between atoms: N_2  and  C_11
REMARK    2  A    between atoms: C_3  and  C_25
REMARK    3  A    between atoms: N_5  and  C_14
REMARK    4  A    between atoms: C_14  and  C_15
REMARK    5  A    between atoms: C_15  and  C_17
REMARK    6  A    between atoms: C_23  and  N_30
REMARK                            x       y       z     vdW  Elec       q    Type
REMARK                         _______ _______ _______ _____ _____    ______ ____
ROOT
ATOM      1  O   UNL     1      32.500 -13.584 -22.875  0.00  0.00    -0.270 OA
ATOM      2  N   UNL     1      34.378 -14.078 -24.200  0.00  0.00    -0.280 N 
ATOM      3  C   UNL     1      33.489 -13.241 -23.512  0.00  0.00    +0.250 C 
ATOM      4  H   UNL     1      35.123 -13.630 -24.661  0.00  0.00    +0.155 HD
ENDROOT
BRANCH   2  11
ATOM      5  N   UNL     1      35.316 -18.650 -22.643  0.00  0.00    -0.286 N 
ATOM      6  C   UNL     1      34.845 -17.645 -23.458  0.00  0.00    +0.053 C 
ATOM      7  C   UNL     1      34.237 -18.257 -24.555  0.00  0.00    +0.015 C 
ATOM      8  C   UNL     1      35.027 -19.873 -23.187  0.00  0.00    +0.065 C 
ATOM      9  C   UNL     1      34.911 -16.255 -23.307  0.00  0.00    +0.029 C 
ATOM     10  C   UNL     1      34.359 -19.662 -24.371  0.00  0.00    +0.017 C 
ATOM     11  C   UNL     1      34.336 -15.469 -24.311  0.00  0.00    +0.052 C 
ATOM     12  C   UNL     1      33.664 -17.443 -25.554  0.00  0.00    +0.003 C 
ATOM     13  C   UNL     1      33.722 -16.052 -25.417  0.00  0.00    +0.015 C 
BRANCH   5  14
ATOM     14  C   UNL     1      36.015 -18.460 -21.391  0.00  0.00    +0.100 C 
BRANCH  14  15
ATOM     15  C   UNL     1      36.505 -19.766 -20.759  0.00  0.00    +0.048 C 
BRANCH  15  17
ATOM     16  N   UNL     1      33.352 -22.132 -19.077  0.00  0.00    -0.242 NA
ATOM     17  C   UNL     1      35.395 -20.598 -20.167  0.00  0.00    -0.017 C 
ATOM     18  C   UNL     1      34.081 -20.221 -20.365  0.00  0.00    +0.016 C 
ATOM     19  C   UNL     1      35.709 -21.729 -19.435  0.00  0.00    +0.016 C 
ATOM     20  C   UNL     1      33.098 -21.019 -19.800  0.00  0.00    +0.099 C 
ATOM     21  C   UNL     1      34.654 -22.459 -18.912  0.00  0.00    +0.099 C 
ENDBRANCH  15  17
ENDBRANCH  14  15
ENDBRANCH   5  14
ENDBRANCH   2  11
BRANCH   3  25
ATOM     22  F   UNL     1      35.931  -9.549 -25.459  0.00  0.00    -0.204 F 
ATOM     23  C   UNL     1      33.376  -9.552 -22.869  0.00  0.00    +0.050 C 
ATOM     24  C   UNL     1      33.099 -10.916 -22.783  0.00  0.00    +0.019 C 
ATOM     25  C   UNL     1      33.785 -11.788 -23.602  0.00  0.00    +0.057 C 
ATOM     26  C   UNL     1      34.332  -9.090 -23.772  0.00  0.00    +0.044 C 
ATOM     27  C   UNL     1      34.736 -11.356 -24.504  0.00  0.00    +0.034 C 
ATOM     28  C   UNL     1      35.013  -9.992 -24.590  0.00  0.00    +0.142 C 
BRANCH  23  30
ATOM     29  O   UNL     1      31.108  -7.003 -20.410  0.00  0.00    -0.350 OA
ATOM     30  N   UNL     1      32.694  -8.647 -22.049  0.00  0.00    -0.303 N 
ATOM     31  C   UNL     1      31.792  -7.655 -22.645  0.00  0.00    +0.123 C 
ATOM     32  C   UNL     1      32.343  -9.073 -20.687  0.00  0.00    +0.123 C 
ATOM     33  C   UNL     1      31.569  -6.507 -21.666  0.00  0.00    +0.164 C 
ATOM     34  C   UNL     1      32.091  -7.850 -19.813  0.00  0.00    +0.164 C 
ENDBRANCH  23  30
ENDBRANCH   3  25
TORSDOF 6
ENDMDL
MODEL 9
REMARK VINA RESULT:     -10.2      7.573     12.398
REMARK  Name = 5326869
REMARK  6 active torsions:
REMARK  status: ('A' for Active; 'I' for Inactive)
REMARK    1  A    between atoms: N_2  and  C_11
REMARK    2  A    between atoms: C_3  and  C_25
REMARK    3  A    between atoms: N_5  and  C_14
REMARK    4  A    between atoms: C_14  and  C_15
REMARK    5  A    between atoms: C_15  and  C_17
REMARK    6  A    between atoms: C_23  and  N_30
REMARK                            x       y       z     vdW  Elec       q    Type
REMARK                         _______ _______ _______ _____ _____    ______ ____
ROOT
ATOM      1  O   UNL     1      33.875  -9.476 -23.355  0.00  0.00    -0.270 OA
ATOM      2  N   UNL     1      31.834  -8.964 -22.306  0.00  0.00    -0.280 N 
ATOM      3  C   UNL     1      32.882  -9.801 -22.714  0.00  0.00    +0.250 C 
ATOM      4  H   UNL     1      31.111  -9.396 -21.795  0.00  0.00    +0.155 HD
ENDROOT
BRANCH   2  11
ATOM      5  N   UNL     1      32.529  -4.833 -24.885  0.00  0.00    -0.286 N 
ATOM      6  C   UNL     1      32.088  -5.650 -23.868  0.00  0.00    +0.053 C 
ATOM      7  C   UNL     1      31.383  -4.846 -22.971  0.00  0.00    +0.015 C 
ATOM      8  C   UNL     1      32.128  -3.543 -24.660  0.00  0.00    +0.065 C 
ATOM      9  C   UNL     1      32.258  -7.026 -23.677  0.00  0.00    +0.029 C 
ATOM     10  C   UNL     1      31.416  -3.519 -23.484  0.00  0.00    +0.017 C 
ATOM     11  C   UNL     1      31.690  -7.595 -22.534  0.00  0.00    +0.052 C 
ATOM     12  C   UNL     1      30.818  -5.442 -21.826  0.00  0.00    +0.003 C 
ATOM     13  C   UNL     1      30.980  -6.817 -21.622  0.00  0.00    +0.015 C 
BRANCH   5  14
ATOM     14  C   UNL     1      33.303  -5.258 -26.030  0.00  0.00    +0.100 C 
BRANCH  14  15
ATOM     15  C   UNL     1      34.812  -5.294 -25.769  0.00  0.00    +0.048 C 
BRANCH  15  17
ATOM     16  N   UNL     1      37.141  -3.774 -29.030  0.00  0.00    -0.242 NA
ATOM     17  C   UNL     1      35.632  -4.758 -26.916  0.00  0.00    -0.017 C 
ATOM     18  C   UNL     1      37.007  -4.691 -26.798  0.00  0.00    +0.016 C 
ATOM     19  C   UNL     1      34.996  -4.342 -28.072  0.00  0.00    +0.016 C 
ATOM     20  C   UNL     1      37.715  -4.192 -27.880  0.00  0.00    +0.099 C 
ATOM     21  C   UNL     1      35.793  -3.859 -29.096  0.00  0.00    +0.099 C 
ENDBRANCH  15  17
ENDBRANCH  14  15
ENDBRANCH   5  14
ENDBRANCH   2  11
BRANCH   3  25
ATOM     22  F   UNL     1      31.481 -13.221 -19.596  0.00  0.00    -0.204 F 
ATOM     23  C   UNL     1      33.035 -13.541 -22.870  0.00  0.00    +0.050 C 
ATOM     24  C   UNL     1      33.173 -12.198 -23.221  0.00  0.00    +0.019 C 
ATOM     25  C   UNL     1      32.737 -11.231 -22.340  0.00  0.00    +0.057 C 
ATOM     26  C   UNL     1      32.464 -13.886 -21.646  0.00  0.00    +0.044 C 
ATOM     27  C   UNL     1      32.169 -11.547 -21.123  0.00  0.00    +0.034 C 
ATOM     28  C   UNL     1      32.031 -12.890 -20.771  0.00  0.00    +0.142 C 
BRANCH  23  30
ATOM     29  O   UNL     1      34.566 -16.393 -25.554  0.00  0.00    -0.350 OA
ATOM     30  N   UNL     1      33.470 -14.541 -23.746  0.00  0.00    -0.303 N 
ATOM     31  C   UNL     1      33.198 -14.424 -25.184  0.00  0.00    +0.123 C 
ATOM     32  C   UNL     1      34.686 -15.288 -23.398  0.00  0.00    +0.123 C 
ATOM     33  C   UNL     1      33.302 -15.796 -25.841  0.00  0.00    +0.164 C 
ATOM     34  C   UNL     1      34.710 -16.613 -24.150  0.00  0.00    +0.164 C 
ENDBRANCH  23  30
ENDBRANCH   3  25
TORSDOF 6
ENDMDL
