MODEL 1
REMARK VINA RESULT:     -13.1      0.000      0.000
REMARK  Name = 24767976
REMARK  5 active torsions:
REMARK  status: ('A' for Active; 'I' for Inactive)
REMARK    1  A    between atoms: C_1  and  N_9
REMARK    2  A    between atoms: C_2  and  O_19
REMARK    3  A    between atoms: C_10  and  C_14
REMARK    4  A    between atoms: O_19  and  C_27
REMARK    5  A    between atoms: C_31  and  C_33
REMARK                            x       y       z     vdW  Elec       q    Type
REMARK                         _______ _______ _______ _____ _____    ______ ____
ROOT
ATOM      1  C   UNL     1      35.403 -22.037 -18.470  0.00  0.00    +0.050 C 
ATOM      2  C   UNL     1      35.738 -20.419 -20.231  0.00  0.00    +0.148 C 
ATOM      3  C   UNL     1      34.041 -22.074 -18.762  0.00  0.00    -0.008 C 
ATOM      4  C   UNL     1      36.253 -21.209 -19.204  0.00  0.00    +0.052 C 
ATOM      5  C   UNL     1      33.526 -21.283 -19.790  0.00  0.00    +0.000 C 
ATOM      6  C   UNL     1      34.375 -20.455 -20.524  0.00  0.00    +0.037 C 
ATOM      7  C   UNL     1      33.107 -22.951 -17.991  0.00  0.00    +0.032 C 
ENDROOT
BRANCH   1   9
ATOM      8  O   UNL     1      37.250 -21.301 -16.225  0.00  0.00    -0.268 OA
ATOM      9  N   UNL     1      35.938 -22.823 -17.445  0.00  0.00    -0.279 N 
ATOM     10  C   UNL     1      36.800 -22.426 -16.417  0.00  0.00    +0.265 C 
ATOM     11  H   UNL     1      35.676 -23.773 -17.447  0.00  0.00    +0.155 HD
BRANCH  10  14
ATOM     12  N   UNL     1      36.408 -24.148 -14.599  0.00  0.00    -0.206 N 
ATOM     13  N   UNL     1      37.034 -25.088 -13.871  0.00  0.00    -0.182 NA
ATOM     14  C   UNL     1      37.221 -23.507 -15.487  0.00  0.00    +0.124 C 
ATOM     15  C   UNL     1      38.465 -24.067 -15.328  0.00  0.00    +0.037 C 
ATOM     16  C   UNL     1      38.290 -25.034 -14.321  0.00  0.00    +0.078 C 
ATOM     17  C   UNL     1      34.999 -23.911 -14.386  0.00  0.00    +0.140 C 
ATOM     18  C   UNL     1      39.308 -25.936 -13.756  0.00  0.00    +0.054 C 
ENDBRANCH  10  14
ENDBRANCH   1   9
BRANCH   2  19
ATOM     19  O   UNL     1      36.586 -19.592 -20.964  0.00  0.00    -0.435 OA
BRANCH  19  27
ATOM     20  N   UNL     1      33.920 -15.444 -23.000  0.00  0.00    -0.373 NA
ATOM     21  N   UNL     1      34.627 -16.726 -21.317  0.00  0.00    -0.173 N 
ATOM     22  N   UNL     1      35.254 -17.732 -20.646  0.00  0.00    -0.138 NA
ATOM     23  C   UNL     1      33.448 -14.959 -21.807  0.00  0.00    +0.187 C 
ATOM     24  C   UNL     1      33.870 -15.733 -20.753  0.00  0.00    +0.193 C 
ATOM     25  C   UNL     1      34.629 -16.509 -22.685  0.00  0.00    +0.204 C 
ATOM     26  C   UNL     1      35.356 -17.424 -23.484  0.00  0.00    +0.054 C 
ATOM     27  C   UNL     1      35.899 -18.531 -21.434  0.00  0.00    +0.245 C 
ATOM     28  C   UNL     1      36.003 -18.443 -22.906  0.00  0.00    +0.063 C 
ATOM     29  O   UNL     1      32.234 -13.603 -19.410  0.00  0.00    -0.275 OA
ATOM     30  N   UNL     1      32.656 -13.838 -21.720  0.00  0.00    -0.261 N 
ATOM     31  C   UNL     1      32.106 -13.235 -20.570  0.00  0.00    +0.227 C 
ATOM     32  H   UNL     1      32.445 -13.399 -22.574  0.00  0.00    +0.157 HD
BRANCH  31  33
ATOM     33  C   UNL     1      31.286 -12.013 -20.842  0.00  0.00    +0.077 C 
ATOM     34  C   UNL     1      31.842 -10.666 -20.479  0.00  0.00    +0.010 C 
ATOM     35  C   UNL     1      30.709 -11.250 -19.686  0.00  0.00    +0.010 C 
ENDBRANCH  31  33
ENDBRANCH  19  27
ENDBRANCH   2  19
TORSDOF 5
ENDMDL
MODEL 2
REMARK VINA RESULT:     -12.1      1.846      2.036
REMARK  Name = 24767976
REMARK  5 active torsions:
REMARK  status: ('A' for Active; 'I' for Inactive)
REMARK    1  A    between atoms: C_1  and  N_9
REMARK    2  A    between atoms: C_2  and  O_19
REMARK    3  A    between atoms: C_10  and  C_14
REMARK    4  A    between atoms: O_19  and  C_27
REMARK    5  A    between atoms: C_31  and  C_33
REMARK                            x       y       z     vdW  Elec       q    Type
REMARK                         _______ _______ _______ _____ _____    ______ ____
ROOT
ATOM      1  C   UNL     1      35.135 -22.413 -18.031  0.00  0.00    +0.050 C 
ATOM      2  C   UNL     1      35.744 -20.968 -19.867  0.00  0.00    +0.148 C 
ATOM      3  C   UNL     1      33.791 -22.289 -18.378  0.00  0.00    -0.008 C 
ATOM      4  C   UNL     1      36.112 -21.752 -18.775  0.00  0.00    +0.052 C 
ATOM      5  C   UNL     1      33.422 -21.504 -19.472  0.00  0.00    +0.000 C 
ATOM      6  C   UNL     1      34.399 -20.843 -20.216  0.00  0.00    +0.037 C 
ATOM      7  C   UNL     1      32.722 -22.986 -17.599  0.00  0.00    +0.032 C 
ENDROOT
BRANCH   1   9
ATOM      8  O   UNL     1      36.942 -21.766 -15.727  0.00  0.00    -0.268 OA
ATOM      9  N   UNL     1      35.524 -23.195 -16.940  0.00  0.00    -0.279 N 
ATOM     10  C   UNL     1      36.375 -22.842 -15.887  0.00  0.00    +0.265 C 
ATOM     11  H   UNL     1      35.154 -24.108 -16.910  0.00  0.00    +0.155 HD
BRANCH  10  14
ATOM     12  N   UNL     1      35.670 -24.493 -14.097  0.00  0.00    -0.206 N 
ATOM     13  N   UNL     1      36.153 -25.434 -13.268  0.00  0.00    -0.182 NA
ATOM     14  C   UNL     1      36.622 -23.910 -14.882  0.00  0.00    +0.124 C 
ATOM     15  C   UNL     1      37.809 -24.511 -14.543  0.00  0.00    +0.037 C 
ATOM     16  C   UNL     1      37.460 -25.441 -13.545  0.00  0.00    +0.078 C 
ATOM     17  C   UNL     1      34.256 -24.197 -14.083  0.00  0.00    +0.140 C 
ATOM     18  C   UNL     1      38.355 -26.363 -12.826  0.00  0.00    +0.054 C 
ENDBRANCH  10  14
ENDBRANCH   1   9
BRANCH   2  19
ATOM     19  O   UNL     1      36.719 -20.307 -20.611  0.00  0.00    -0.435 OA
BRANCH  19  27
ATOM     20  N   UNL     1      34.387 -17.090 -24.170  0.00  0.00    -0.373 NA
ATOM     21  N   UNL     1      35.383 -17.514 -22.220  0.00  0.00    -0.173 N 
ATOM     22  N   UNL     1      35.996 -18.199 -21.214  0.00  0.00    -0.138 NA
ATOM     23  C   UNL     1      34.487 -15.939 -23.431  0.00  0.00    +0.187 C 
ATOM     24  C   UNL     1      35.098 -16.174 -22.223  0.00  0.00    +0.193 C 
ATOM     25  C   UNL     1      34.932 -18.030 -23.424  0.00  0.00    +0.204 C 
ATOM     26  C   UNL     1      35.120 -19.414 -23.645  0.00  0.00    +0.054 C 
ATOM     27  C   UNL     1      36.137 -19.457 -21.480  0.00  0.00    +0.245 C 
ATOM     28  C   UNL     1      35.714 -20.163 -22.708  0.00  0.00    +0.063 C 
ATOM     29  O   UNL     1      34.524 -13.228 -22.124  0.00  0.00    -0.275 OA
ATOM     30  N   UNL     1      34.023 -14.725 -23.879  0.00  0.00    -0.261 N 
ATOM     31  C   UNL     1      34.061 -13.474 -23.230  0.00  0.00    +0.227 C 
ATOM     32  H   UNL     1      33.609 -14.730 -24.771  0.00  0.00    +0.157 HD
BRANCH  31  33
ATOM     33  C   UNL     1      33.461 -12.349 -24.015  0.00  0.00    +0.077 C 
ATOM     34  C   UNL     1      34.357 -11.487 -24.856  0.00  0.00    +0.010 C 
ATOM     35  C   UNL     1      33.749 -10.936 -23.600  0.00  0.00    +0.010 C 
ENDBRANCH  31  33
ENDBRANCH  19  27
ENDBRANCH   2  19
TORSDOF 5
ENDMDL
MODEL 3
REMARK VINA RESULT:     -11.2      1.967     10.794
REMARK  Name = 24767976
REMARK  5 active torsions:
REMARK  status: ('A' for Active; 'I' for Inactive)
REMARK    1  A    between atoms: C_1  and  N_9
REMARK    2  A    between atoms: C_2  and  O_19
REMARK    3  A    between atoms: C_10  and  C_14
REMARK    4  A    between atoms: O_19  and  C_27
REMARK    5  A    between atoms: C_31  and  C_33
REMARK                            x       y       z     vdW  Elec       q    Type
REMARK                         _______ _______ _______ _____ _____    ______ ____
ROOT
ATOM      1  C   UNL     1      34.804 -19.248 -21.019  0.00  0.00    +0.050 C 
ATOM      2  C   UNL     1      34.095 -21.284 -19.931  0.00  0.00    +0.148 C 
ATOM      3  C   UNL     1      36.136 -19.627 -20.861  0.00  0.00    -0.008 C 
ATOM      4  C   UNL     1      33.783 -20.077 -20.554  0.00  0.00    +0.052 C 
ATOM      5  C   UNL     1      36.449 -20.836 -20.238  0.00  0.00    +0.000 C 
ATOM      6  C   UNL     1      35.427 -21.664 -19.772  0.00  0.00    +0.037 C 
ATOM      7  C   UNL     1      37.251 -18.759 -21.350  0.00  0.00    +0.032 C 
ENDROOT
BRANCH   1   9
ATOM      8  O   UNL     1      34.914 -16.437 -19.983  0.00  0.00    -0.268 OA
ATOM      9  N   UNL     1      34.471 -18.042 -21.642  0.00  0.00    -0.279 N 
ATOM     10  C   UNL     1      34.542 -16.750 -21.109  0.00  0.00    +0.265 C 
ATOM     11  H   UNL     1      34.146 -18.110 -22.569  0.00  0.00    +0.155 HD
BRANCH  10  14
ATOM     12  N   UNL     1      33.130 -14.736 -21.721  0.00  0.00    -0.206 N 
ATOM     13  N   UNL     1      32.902 -13.858 -22.713  0.00  0.00    -0.182 NA
ATOM     14  C   UNL     1      34.088 -15.662 -22.015  0.00  0.00    +0.124 C 
ATOM     15  C   UNL     1      34.516 -15.370 -23.286  0.00  0.00    +0.037 C 
ATOM     16  C   UNL     1      33.752 -14.249 -23.666  0.00  0.00    +0.078 C 
ATOM     17  C   UNL     1      32.376 -14.626 -20.493  0.00  0.00    +0.140 C 
ATOM     18  C   UNL     1      33.806 -13.519 -24.943  0.00  0.00    +0.054 C 
ENDBRANCH  10  14
ENDBRANCH   1   9
BRANCH   2  19
ATOM     19  O   UNL     1      33.076 -22.112 -19.466  0.00  0.00    -0.435 OA
BRANCH  19  27
ATOM     20  N   UNL     1      34.097 -23.931 -14.556  0.00  0.00    -0.373 NA
ATOM     21  N   UNL     1      34.699 -23.225 -16.585  0.00  0.00    -0.173 N 
ATOM     22  N   UNL     1      34.605 -22.760 -17.861  0.00  0.00    -0.138 NA
ATOM     23  C   UNL     1      35.463 -23.950 -14.676  0.00  0.00    +0.187 C 
ATOM     24  C   UNL     1      35.860 -23.519 -15.919  0.00  0.00    +0.193 C 
ATOM     25  C   UNL     1      33.653 -23.491 -15.716  0.00  0.00    +0.204 C 
ATOM     26  C   UNL     1      32.341 -23.259 -16.194  0.00  0.00    +0.054 C 
ATOM     27  C   UNL     1      33.382 -22.569 -18.235  0.00  0.00    +0.245 C 
ATOM     28  C   UNL     1      32.158 -22.802 -17.438  0.00  0.00    +0.063 C 
ATOM     29  O   UNL     1      38.466 -24.129 -14.556  0.00  0.00    -0.275 OA
ATOM     30  N   UNL     1      36.294 -24.355 -13.658  0.00  0.00    -0.261 N 
ATOM     31  C   UNL     1      37.702 -24.424 -13.646  0.00  0.00    +0.227 C 
ATOM     32  H   UNL     1      35.846 -24.634 -12.829  0.00  0.00    +0.157 HD
BRANCH  31  33
ATOM     33  C   UNL     1      38.288 -24.914 -12.358  0.00  0.00    +0.077 C 
ATOM     34  C   UNL     1      37.937 -26.290 -11.873  0.00  0.00    +0.010 C 
ATOM     35  C   UNL     1      37.391 -25.084 -11.167  0.00  0.00    +0.010 C 
ENDBRANCH  31  33
ENDBRANCH  19  27
ENDBRANCH   2  19
TORSDOF 5
ENDMDL
MODEL 4
REMARK VINA RESULT:     -11.1      3.587     12.425
REMARK  Name = 24767976
REMARK  5 active torsions:
REMARK  status: ('A' for Active; 'I' for Inactive)
REMARK    1  A    between atoms: C_1  and  N_9
REMARK    2  A    between atoms: C_2  and  O_19
REMARK    3  A    between atoms: C_10  and  C_14
REMARK    4  A    between atoms: O_19  and  C_27
REMARK    5  A    between atoms: C_31  and  C_33
REMARK                            x       y       z     vdW  Elec       q    Type
REMARK                         _______ _______ _______ _____ _____    ______ ____
ROOT
ATOM      1  C   UNL     1      32.572 -11.279 -22.437  0.00  0.00    +0.050 C 
ATOM      2  C   UNL     1      33.640 -13.251 -23.334  0.00  0.00    +0.148 C 
ATOM      3  C   UNL     1      31.920 -12.064 -21.486  0.00  0.00    -0.008 C 
ATOM      4  C   UNL     1      33.432 -11.872 -23.361  0.00  0.00    +0.052 C 
ATOM      5  C   UNL     1      32.129 -13.444 -21.460  0.00  0.00    +0.000 C 
ATOM      6  C   UNL     1      32.989 -14.037 -22.384  0.00  0.00    +0.037 C 
ATOM      7  C   UNL     1      30.993 -11.456 -20.485  0.00  0.00    +0.032 C 
ENDROOT
BRANCH   1   9
ATOM      8  O   UNL     1      34.444  -9.081 -23.244  0.00  0.00    -0.268 OA
ATOM      9  N   UNL     1      32.376  -9.896 -22.479  0.00  0.00    -0.279 N 
ATOM     10  C   UNL     1      33.290  -8.909 -22.866  0.00  0.00    +0.265 C 
ATOM     11  H   UNL     1      31.487  -9.577 -22.202  0.00  0.00    +0.155 HD
BRANCH  10  14
ATOM     12  N   UNL     1      32.549  -6.831 -21.619  0.00  0.00    -0.206 N 
ATOM     13  N   UNL     1      32.103  -5.578 -21.811  0.00  0.00    -0.182 NA
ATOM     14  C   UNL     1      32.793  -7.511 -22.776  0.00  0.00    +0.124 C 
ATOM     15  C   UNL     1      32.485  -6.643 -23.795  0.00  0.00    +0.037 C 
ATOM     16  C   UNL     1      32.066  -5.468 -23.142  0.00  0.00    +0.078 C 
ATOM     17  C   UNL     1      32.720  -7.321 -20.272  0.00  0.00    +0.140 C 
ATOM     18  C   UNL     1      31.620  -4.209 -23.760  0.00  0.00    +0.054 C 
ENDBRANCH  10  14
ENDBRANCH   1   9
BRANCH   2  19
ATOM     19  O   UNL     1      34.499 -13.844 -24.256  0.00  0.00    -0.435 OA
BRANCH  19  27
ATOM     20  N   UNL     1      34.735 -19.119 -23.503  0.00  0.00    -0.373 NA
ATOM     21  N   UNL     1      35.097 -17.002 -22.900  0.00  0.00    -0.173 N 
ATOM     22  N   UNL     1      35.113 -15.641 -22.943  0.00  0.00    -0.138 NA
ATOM     23  C   UNL     1      35.354 -19.076 -22.280  0.00  0.00    +0.187 C 
ATOM     24  C   UNL     1      35.590 -17.781 -21.886  0.00  0.00    +0.193 C 
ATOM     25  C   UNL     1      34.588 -17.860 -23.861  0.00  0.00    +0.204 C 
ATOM     26  C   UNL     1      34.020 -17.272 -25.017  0.00  0.00    +0.054 C 
ATOM     27  C   UNL     1      34.580 -15.169 -24.023  0.00  0.00    +0.245 C 
ATOM     28  C   UNL     1      33.994 -15.939 -25.140  0.00  0.00    +0.063 C 
ATOM     29  O   UNL     1      36.698 -19.389 -19.605  0.00  0.00    -0.275 OA
ATOM     30  N   UNL     1      35.682 -20.208 -21.571  0.00  0.00    -0.261 N 
ATOM     31  C   UNL     1      36.315 -20.308 -20.315  0.00  0.00    +0.227 C 
ATOM     32  H   UNL     1      35.443 -21.061 -21.997  0.00  0.00    +0.157 HD
BRANCH  31  33
ATOM     33  C   UNL     1      36.518 -21.711 -19.833  0.00  0.00    +0.077 C 
ATOM     34  C   UNL     1      35.395 -22.406 -19.119  0.00  0.00    +0.010 C 
ATOM     35  C   UNL     1      36.612 -21.968 -18.357  0.00  0.00    +0.010 C 
ENDBRANCH  31  33
ENDBRANCH  19  27
ENDBRANCH   2  19
TORSDOF 5
ENDMDL
MODEL 5
REMARK VINA RESULT:     -10.8      4.895     13.996
REMARK  Name = 24767976
REMARK  5 active torsions:
REMARK  status: ('A' for Active; 'I' for Inactive)
REMARK    1  A    between atoms: C_1  and  N_9
REMARK    2  A    between atoms: C_2  and  O_19
REMARK    3  A    between atoms: C_10  and  C_14
REMARK    4  A    between atoms: O_19  and  C_27
REMARK    5  A    between atoms: C_31  and  C_33
REMARK                            x       y       z     vdW  Elec       q    Type
REMARK                         _______ _______ _______ _____ _____    ______ ____
ROOT
ATOM      1  C   UNL     1      32.272  -8.369 -21.430  0.00  0.00    +0.050 C 
ATOM      2  C   UNL     1      31.463 -10.598 -20.973  0.00  0.00    +0.148 C 
ATOM      3  C   UNL     1      32.489  -8.168 -20.067  0.00  0.00    -0.008 C 
ATOM      4  C   UNL     1      31.759  -9.585 -21.883  0.00  0.00    +0.052 C 
ATOM      5  C   UNL     1      32.192  -9.183 -19.156  0.00  0.00    +0.000 C 
ATOM      6  C   UNL     1      31.679 -10.398 -19.610  0.00  0.00    +0.037 C 
ATOM      7  C   UNL     1      33.037  -6.876 -19.554  0.00  0.00    +0.032 C 
ENDROOT
BRANCH   1   9
ATOM      8  O   UNL     1      30.458  -6.823 -23.249  0.00  0.00    -0.268 OA
ATOM      9  N   UNL     1      32.564  -7.366 -22.357  0.00  0.00    -0.279 N 
ATOM     10  C   UNL     1      31.673  -6.674 -23.186  0.00  0.00    +0.265 C 
ATOM     11  H   UNL     1      33.514  -7.116 -22.439  0.00  0.00    +0.155 HD
BRANCH  10  14
ATOM     12  N   UNL     1      32.024  -4.337 -24.103  0.00  0.00    -0.206 N 
ATOM     13  N   UNL     1      32.720  -3.648 -25.023  0.00  0.00    -0.182 NA
ATOM     14  C   UNL     1      32.295  -5.674 -24.094  0.00  0.00    +0.124 C 
ATOM     15  C   UNL     1      33.233  -5.874 -25.077  0.00  0.00    +0.037 C 
ATOM     16  C   UNL     1      33.457  -4.592 -25.615  0.00  0.00    +0.078 C 
ATOM     17  C   UNL     1      31.096  -3.634 -23.247  0.00  0.00    +0.140 C 
ATOM     18  C   UNL     1      34.377  -4.225 -26.705  0.00  0.00    +0.054 C 
ENDBRANCH  10  14
ENDBRANCH   1   9
BRANCH   2  19
ATOM     19  O   UNL     1      30.950 -11.812 -21.425  0.00  0.00    -0.435 OA
BRANCH  19  27
ATOM     20  N   UNL     1      34.999 -14.898 -23.017  0.00  0.00    -0.373 NA
ATOM     21  N   UNL     1      33.189 -14.463 -21.788  0.00  0.00    -0.173 N 
ATOM     22  N   UNL     1      32.113 -13.802 -21.278  0.00  0.00    -0.138 NA
ATOM     23  C   UNL     1      34.715 -15.964 -22.201  0.00  0.00    +0.187 C 
ATOM     24  C   UNL     1      33.603 -15.720 -21.432  0.00  0.00    +0.193 C 
ATOM     25  C   UNL     1      34.069 -14.003 -22.754  0.00  0.00    +0.204 C 
ATOM     26  C   UNL     1      33.836 -12.708 -23.275  0.00  0.00    +0.054 C 
ATOM     27  C   UNL     1      31.958 -12.627 -21.796  0.00  0.00    +0.245 C 
ATOM     28  C   UNL     1      32.800 -11.988 -22.830  0.00  0.00    +0.063 C 
ATOM     29  O   UNL     1      34.418 -18.482 -20.579  0.00  0.00    -0.275 OA
ATOM     30  N   UNL     1      35.472 -17.111 -22.186  0.00  0.00    -0.261 N 
ATOM     31  C   UNL     1      35.296 -18.272 -21.405  0.00  0.00    +0.227 C 
ATOM     32  H   UNL     1      36.239 -17.124 -22.801  0.00  0.00    +0.157 HD
BRANCH  31  33
ATOM     33  C   UNL     1      36.314 -19.343 -21.647  0.00  0.00    +0.077 C 
ATOM     34  C   UNL     1      37.232 -19.743 -20.528  0.00  0.00    +0.010 C 
ATOM     35  C   UNL     1      37.767 -18.970 -21.698  0.00  0.00    +0.010 C 
ENDBRANCH  31  33
ENDBRANCH  19  27
ENDBRANCH   2  19
TORSDOF 5
ENDMDL
MODEL 6
REMARK VINA RESULT:     -10.5      2.598      2.945
REMARK  Name = 24767976
REMARK  5 active torsions:
REMARK  status: ('A' for Active; 'I' for Inactive)
REMARK    1  A    between atoms: C_1  and  N_9
REMARK    2  A    between atoms: C_2  and  O_19
REMARK    3  A    between atoms: C_10  and  C_14
REMARK    4  A    between atoms: O_19  and  C_27
REMARK    5  A    between atoms: C_31  and  C_33
REMARK                            x       y       z     vdW  Elec       q    Type
REMARK                         _______ _______ _______ _____ _____    ______ ____
ROOT
ATOM      1  C   UNL     1      34.980 -22.493 -18.179  0.00  0.00    +0.050 C 
ATOM      2  C   UNL     1      35.289 -21.269 -20.238  0.00  0.00    +0.148 C 
ATOM      3  C   UNL     1      33.601 -22.309 -18.276  0.00  0.00    -0.008 C 
ATOM      4  C   UNL     1      35.824 -21.972 -19.160  0.00  0.00    +0.052 C 
ATOM      5  C   UNL     1      33.065 -21.605 -19.355  0.00  0.00    +0.000 C 
ATOM      6  C   UNL     1      33.910 -21.085 -20.337  0.00  0.00    +0.037 C 
ATOM      7  C   UNL     1      32.673 -22.855 -17.240  0.00  0.00    +0.032 C 
ENDROOT
BRANCH   1   9
ATOM      8  O   UNL     1      37.050 -21.657 -16.178  0.00  0.00    -0.268 OA
ATOM      9  N   UNL     1      35.535 -23.196 -17.107  0.00  0.00    -0.279 N 
ATOM     10  C   UNL     1      36.505 -22.756 -16.199  0.00  0.00    +0.265 C 
ATOM     11  H   UNL     1      35.204 -24.114 -16.975  0.00  0.00    +0.155 HD
BRANCH  10  14
ATOM     12  N   UNL     1      36.087 -24.353 -14.276  0.00  0.00    -0.206 N 
ATOM     13  N   UNL     1      36.710 -25.218 -13.457  0.00  0.00    -0.182 NA
ATOM     14  C   UNL     1      36.918 -23.752 -15.176  0.00  0.00    +0.124 C 
ATOM     15  C   UNL     1      38.170 -24.259 -14.928  0.00  0.00    +0.037 C 
ATOM     16  C   UNL     1      37.981 -25.157 -13.860  0.00  0.00    +0.078 C 
ATOM     17  C   UNL     1      34.664 -24.147 -14.136  0.00  0.00    +0.140 C 
ATOM     18  C   UNL     1      39.001 -25.982 -13.191  0.00  0.00    +0.054 C 
ENDBRANCH  10  14
ENDBRANCH   1   9
BRANCH   2  19
ATOM     19  O   UNL     1      36.131 -20.748 -21.218  0.00  0.00    -0.435 OA
BRANCH  19  27
ATOM     20  N   UNL     1      34.679 -15.724 -22.266  0.00  0.00    -0.373 NA
ATOM     21  N   UNL     1      35.013 -17.858 -22.821  0.00  0.00    -0.173 N 
ATOM     22  N   UNL     1      35.346 -19.175 -22.715  0.00  0.00    -0.138 NA
ATOM     23  C   UNL     1      34.354 -15.925 -23.583  0.00  0.00    +0.187 C 
ATOM     24  C   UNL     1      34.553 -17.234 -23.951  0.00  0.00    +0.193 C 
ATOM     25  C   UNL     1      35.074 -16.900 -21.823  0.00  0.00    +0.204 C 
ATOM     26  C   UNL     1      35.529 -17.320 -20.550  0.00  0.00    +0.054 C 
ATOM     27  C   UNL     1      35.753 -19.492 -21.529  0.00  0.00    +0.245 C 
ATOM     28  C   UNL     1      35.878 -18.598 -20.358  0.00  0.00    +0.063 C 
ATOM     29  O   UNL     1      33.548 -15.970 -26.483  0.00  0.00    -0.275 OA
ATOM     30  N   UNL     1      33.893 -14.918 -24.398  0.00  0.00    -0.261 N 
ATOM     31  C   UNL     1      33.526 -14.984 -25.758  0.00  0.00    +0.227 C 
ATOM     32  H   UNL     1      33.808 -14.034 -23.976  0.00  0.00    +0.157 HD
BRANCH  31  33
ATOM     33  C   UNL     1      33.061 -13.685 -26.339  0.00  0.00    +0.077 C 
ATOM     34  C   UNL     1      34.069 -12.759 -26.955  0.00  0.00    +0.010 C 
ATOM     35  C   UNL     1      33.425 -12.404 -25.647  0.00  0.00    +0.010 C 
ENDBRANCH  31  33
ENDBRANCH  19  27
ENDBRANCH   2  19
TORSDOF 5
ENDMDL
MODEL 7
REMARK VINA RESULT:     -10.4      2.011     10.641
REMARK  Name = 24767976
REMARK  5 active torsions:
REMARK  status: ('A' for Active; 'I' for Inactive)
REMARK    1  A    between atoms: C_1  and  N_9
REMARK    2  A    between atoms: C_2  and  O_19
REMARK    3  A    between atoms: C_10  and  C_14
REMARK    4  A    between atoms: O_19  and  C_27
REMARK    5  A    between atoms: C_31  and  C_33
REMARK                            x       y       z     vdW  Elec       q    Type
REMARK                         _______ _______ _______ _____ _____    ______ ____
ROOT
ATOM      1  C   UNL     1      34.650 -16.504 -23.376  0.00  0.00    +0.050 C 
ATOM      2  C   UNL     1      35.842 -18.430 -22.535  0.00  0.00    +0.148 C 
ATOM      3  C   UNL     1      34.192 -17.258 -24.455  0.00  0.00    -0.008 C 
ATOM      4  C   UNL     1      35.475 -17.090 -22.415  0.00  0.00    +0.052 C 
ATOM      5  C   UNL     1      34.560 -18.599 -24.576  0.00  0.00    +0.000 C 
ATOM      6  C   UNL     1      35.385 -19.185 -23.615  0.00  0.00    +0.037 C 
ATOM      7  C   UNL     1      33.308 -16.656 -25.499  0.00  0.00    +0.032 C 
ENDROOT
BRANCH   1   9
ATOM      8  O   UNL     1      32.826 -15.177 -21.400  0.00  0.00    -0.268 OA
ATOM      9  N   UNL     1      34.293 -15.160 -23.237  0.00  0.00    -0.279 N 
ATOM     10  C   UNL     1      33.432 -14.592 -22.292  0.00  0.00    +0.265 C 
ATOM     11  H   UNL     1      34.696 -14.537 -23.885  0.00  0.00    +0.155 HD
BRANCH  10  14
ATOM     12  N   UNL     1      32.438 -12.362 -21.608  0.00  0.00    -0.206 N 
ATOM     13  N   UNL     1      32.422 -11.059 -21.936  0.00  0.00    -0.182 NA
ATOM     14  C   UNL     1      33.226 -13.125 -22.419  0.00  0.00    +0.124 C 
ATOM     15  C   UNL     1      33.762 -12.260 -23.342  0.00  0.00    +0.037 C 
ATOM     16  C   UNL     1      33.232 -11.003 -22.995  0.00  0.00    +0.078 C 
ATOM     17  C   UNL     1      31.658 -12.817 -20.480  0.00  0.00    +0.140 C 
ATOM     18  C   UNL     1      33.480  -9.712 -23.659  0.00  0.00    +0.054 C 
ENDBRANCH  10  14
ENDBRANCH   1   9
BRANCH   2  19
ATOM     19  O   UNL     1      36.666 -19.015 -21.577  0.00  0.00    -0.435 OA
BRANCH  19  27
ATOM     20  N   UNL     1      33.659 -22.262 -18.599  0.00  0.00    -0.373 NA
ATOM     21  N   UNL     1      35.582 -21.275 -19.150  0.00  0.00    -0.173 N 
ATOM     22  N   UNL     1      36.478 -20.490 -19.810  0.00  0.00    -0.138 NA
ATOM     23  C   UNL     1      34.657 -22.665 -17.748  0.00  0.00    +0.187 C 
ATOM     24  C   UNL     1      35.853 -22.070 -18.068  0.00  0.00    +0.193 C 
ATOM     25  C   UNL     1      34.235 -21.424 -19.437  0.00  0.00    +0.204 C 
ATOM     26  C   UNL     1      33.722 -20.688 -20.531  0.00  0.00    +0.054 C 
ATOM     27  C   UNL     1      35.945 -19.846 -20.797  0.00  0.00    +0.245 C 
ATOM     28  C   UNL     1      34.534 -19.891 -21.236  0.00  0.00    +0.063 C 
ATOM     29  O   UNL     1      36.561 -23.775 -15.699  0.00  0.00    -0.275 OA
ATOM     30  N   UNL     1      34.445 -23.553 -16.720  0.00  0.00    -0.261 N 
ATOM     31  C   UNL     1      35.371 -24.048 -15.779  0.00  0.00    +0.227 C 
ATOM     32  H   UNL     1      33.524 -23.886 -16.628  0.00  0.00    +0.157 HD
BRANCH  31  33
ATOM     33  C   UNL     1      34.793 -25.008 -14.786  0.00  0.00    +0.077 C 
ATOM     34  C   UNL     1      33.891 -24.486 -13.706  0.00  0.00    +0.010 C 
ATOM     35  C   UNL     1      35.272 -24.963 -13.365  0.00  0.00    +0.010 C 
ENDBRANCH  31  33
ENDBRANCH  19  27
ENDBRANCH   2  19
TORSDOF 5
ENDMDL
MODEL 8
REMARK VINA RESULT:     -10.4      1.977     10.321
REMARK  Name = 24767976
REMARK  5 active torsions:
REMARK  status: ('A' for Active; 'I' for Inactive)
REMARK    1  A    between atoms: C_1  and  N_9
REMARK    2  A    between atoms: C_2  and  O_19
REMARK    3  A    between atoms: C_10  and  C_14
REMARK    4  A    between atoms: O_19  and  C_27
REMARK    5  A    between atoms: C_31  and  C_33
REMARK                            x       y       z     vdW  Elec       q    Type
REMARK                         _______ _______ _______ _____ _____    ______ ____
ROOT
ATOM      1  C   UNL     1      34.493 -16.161 -22.571  0.00  0.00    +0.050 C 
ATOM      2  C   UNL     1      35.910 -18.098 -22.297  0.00  0.00    +0.148 C 
ATOM      3  C   UNL     1      34.243 -16.530 -23.892  0.00  0.00    -0.008 C 
ATOM      4  C   UNL     1      35.326 -16.945 -21.773  0.00  0.00    +0.052 C 
ATOM      5  C   UNL     1      34.827 -17.684 -24.416  0.00  0.00    +0.000 C 
ATOM      6  C   UNL     1      35.661 -18.468 -23.618  0.00  0.00    +0.037 C 
ATOM      7  C   UNL     1      33.354 -15.709 -24.770  0.00  0.00    +0.032 C 
ENDROOT
BRANCH   1   9
ATOM      8  O   UNL     1      32.310 -15.861 -20.537  0.00  0.00    -0.268 OA
ATOM      9  N   UNL     1      33.916 -15.010 -22.028  0.00  0.00    -0.279 N 
ATOM     10  C   UNL     1      32.894 -14.926 -21.076  0.00  0.00    +0.265 C 
ATOM     11  H   UNL     1      34.273 -14.152 -22.356  0.00  0.00    +0.155 HD
BRANCH  10  14
ATOM     12  N   UNL     1      32.484 -12.471 -21.553  0.00  0.00    -0.206 N 
ATOM     13  N   UNL     1      32.053 -11.334 -20.981  0.00  0.00    -0.182 NA
ATOM     14  C   UNL     1      32.471 -13.547 -20.715  0.00  0.00    +0.124 C 
ATOM     15  C   UNL     1      32.000 -13.082 -19.512  0.00  0.00    +0.037 C 
ATOM     16  C   UNL     1      31.758 -11.713 -19.735  0.00  0.00    +0.078 C 
ATOM     17  C   UNL     1      32.902 -12.453 -22.935  0.00  0.00    +0.140 C 
ATOM     18  C   UNL     1      31.241 -10.725 -18.773  0.00  0.00    +0.054 C 
ENDBRANCH  10  14
ENDBRANCH   1   9
BRANCH   2  19
ATOM     19  O   UNL     1      36.743 -18.880 -21.501  0.00  0.00    -0.435 OA
BRANCH  19  27
ATOM     20  N   UNL     1      33.673 -22.247 -18.727  0.00  0.00    -0.373 NA
ATOM     21  N   UNL     1      35.593 -21.200 -19.162  0.00  0.00    -0.173 N 
ATOM     22  N   UNL     1      36.502 -20.382 -19.763  0.00  0.00    -0.138 NA
ATOM     23  C   UNL     1      34.634 -22.632 -17.828  0.00  0.00    +0.187 C 
ATOM     24  C   UNL     1      35.829 -22.001 -18.075  0.00  0.00    +0.193 C 
ATOM     25  C   UNL     1      34.269 -21.383 -19.524  0.00  0.00    +0.204 C 
ATOM     26  C   UNL     1      33.796 -20.648 -20.636  0.00  0.00    +0.054 C 
ATOM     27  C   UNL     1      36.005 -19.740 -20.771  0.00  0.00    +0.245 C 
ATOM     28  C   UNL     1      34.622 -19.820 -21.287  0.00  0.00    +0.063 C 
ATOM     29  O   UNL     1      36.456 -23.716 -15.690  0.00  0.00    -0.275 OA
ATOM     30  N   UNL     1      34.392 -23.539 -16.823  0.00  0.00    -0.261 N 
ATOM     31  C   UNL     1      35.280 -24.021 -15.839  0.00  0.00    +0.227 C 
ATOM     32  H   UNL     1      33.478 -23.899 -16.785  0.00  0.00    +0.157 HD
BRANCH  31  33
ATOM     33  C   UNL     1      34.677 -25.009 -14.889  0.00  0.00    +0.077 C 
ATOM     34  C   UNL     1      33.710 -24.524 -13.848  0.00  0.00    +0.010 C 
ATOM     35  C   UNL     1      35.084 -24.974 -13.445  0.00  0.00    +0.010 C 
ENDBRANCH  31  33
ENDBRANCH  19  27
ENDBRANCH   2  19
TORSDOF 5
ENDMDL
MODEL 9
REMARK VINA RESULT:     -10.4      3.714      7.875
REMARK  Name = 24767976
REMARK  5 active torsions:
REMARK  status: ('A' for Active; 'I' for Inactive)
REMARK    1  A    between atoms: C_1  and  N_9
REMARK    2  A    between atoms: C_2  and  O_19
REMARK    3  A    between atoms: C_10  and  C_14
REMARK    4  A    between atoms: O_19  and  C_27
REMARK    5  A    between atoms: C_31  and  C_33
REMARK                            x       y       z     vdW  Elec       q    Type
REMARK                         _______ _______ _______ _____ _____    ______ ____
ROOT
ATOM      1  C   UNL     1      33.919 -15.737 -21.494  0.00  0.00    +0.050 C 
ATOM      2  C   UNL     1      32.375 -13.904 -21.195  0.00  0.00    +0.148 C 
ATOM      3  C   UNL     1      34.426 -15.125 -22.639  0.00  0.00    -0.008 C 
ATOM      4  C   UNL     1      32.893 -15.127 -20.771  0.00  0.00    +0.052 C 
ATOM      5  C   UNL     1      33.908 -13.900 -23.062  0.00  0.00    +0.000 C 
ATOM      6  C   UNL     1      32.882 -13.290 -22.340  0.00  0.00    +0.037 C 
ATOM      7  C   UNL     1      35.524 -15.756 -23.432  0.00  0.00    +0.032 C 
ENDROOT
BRANCH   1   9
ATOM      8  O   UNL     1      34.404 -18.287 -22.996  0.00  0.00    -0.268 OA
ATOM      9  N   UNL     1      34.425 -16.963 -21.053  0.00  0.00    -0.279 N 
ATOM     10  C   UNL     1      34.632 -18.128 -21.801  0.00  0.00    +0.265 C 
ATOM     11  H   UNL     1      34.665 -17.014 -20.099  0.00  0.00    +0.155 HD
BRANCH  10  14
ATOM     12  N   UNL     1      36.481 -19.552 -20.812  0.00  0.00    -0.206 N 
ATOM     13  N   UNL     1      36.696 -20.666 -20.093  0.00  0.00    -0.182 NA
ATOM     14  C   UNL     1      35.162 -19.289 -21.038  0.00  0.00    +0.124 C 
ATOM     15  C   UNL     1      34.466 -20.301 -20.424  0.00  0.00    +0.037 C 
ATOM     16  C   UNL     1      35.462 -21.120 -19.858  0.00  0.00    +0.078 C 
ATOM     17  C   UNL     1      37.610 -18.771 -21.260  0.00  0.00    +0.140 C 
ATOM     18  C   UNL     1      35.273 -22.355 -19.080  0.00  0.00    +0.054 C 
ENDBRANCH  10  14
ENDBRANCH   1   9
BRANCH   2  19
ATOM     19  O   UNL     1      31.351 -13.294 -20.474  0.00  0.00    -0.435 OA
BRANCH  19  27
ATOM     20  N   UNL     1      32.197  -8.043 -20.065  0.00  0.00    -0.373 NA
ATOM     21  N   UNL     1      31.747  -9.906 -21.207  0.00  0.00    -0.173 N 
ATOM     22  N   UNL     1      31.509 -11.220 -21.476  0.00  0.00    -0.138 NA
ATOM     23  C   UNL     1      32.040  -7.754 -21.397  0.00  0.00    +0.187 C 
ATOM     24  C   UNL     1      31.762  -8.887 -22.123  0.00  0.00    +0.193 C 
ATOM     25  C   UNL     1      32.017  -9.345 -19.969  0.00  0.00    +0.204 C 
ATOM     26  C   UNL     1      32.054 -10.220 -18.857  0.00  0.00    +0.054 C 
ATOM     27  C   UNL     1      31.558 -11.963 -20.419  0.00  0.00    +0.245 C 
ATOM     28  C   UNL     1      31.831 -11.528 -19.033  0.00  0.00    +0.063 C 
ATOM     29  O   UNL     1      31.769  -6.733 -24.215  0.00  0.00    -0.275 OA
ATOM     30  N   UNL     1      32.156  -6.480 -21.900  0.00  0.00    -0.261 N 
ATOM     31  C   UNL     1      32.021  -6.045 -23.234  0.00  0.00    +0.227 C 
ATOM     32  H   UNL     1      32.360  -5.779 -21.241  0.00  0.00    +0.157 HD
BRANCH  31  33
ATOM     33  C   UNL     1      32.209  -4.572 -23.429  0.00  0.00    +0.077 C 
ATOM     34  C   UNL     1      31.030  -3.732 -23.824  0.00  0.00    +0.010 C 
ATOM     35  C   UNL     1      32.124  -4.003 -24.815  0.00  0.00    +0.010 C 
ENDBRANCH  31  33
ENDBRANCH  19  27
ENDBRANCH   2  19
TORSDOF 5
ENDMDL
