MODEL 1
REMARK VINA RESULT:     -11.4      0.000      0.000
REMARK  Name = 16755766
REMARK  5 active torsions:
REMARK  status: ('A' for Active; 'I' for Inactive)
REMARK    1  A    between atoms: N_1  and  C_25
REMARK    2  A    between atoms: N_3  and  C_12
REMARK    3  A    between atoms: C_5  and  C_20
REMARK    4  A    between atoms: C_25  and  C_26
REMARK    5  A    between atoms: C_26  and  C_29
REMARK                            x       y       z     vdW  Elec       q    Type
REMARK                         _______ _______ _______ _____ _____    ______ ____
ROOT
ATOM      1  N   UNL     1      34.534 -23.948 -15.149  0.00  0.00    -0.174 N 
ATOM      2  N   UNL     1      34.443 -23.206 -16.254  0.00  0.00    -0.096 NA
ATOM      3  N   UNL     1      36.235 -22.360 -17.603  0.00  0.00    -0.246 N 
ATOM      4  N   UNL     1      36.615 -23.649 -15.687  0.00  0.00    -0.319 NA
ATOM      5  C   UNL     1      35.814 -24.212 -14.812  0.00  0.00    +0.216 C 
ATOM      6  C   UNL     1      35.737 -23.050 -16.544  0.00  0.00    +0.165 C 
ATOM      7  H   UNL     1      37.216 -22.284 -17.602  0.00  0.00    +0.165 HD
ENDROOT
BRANCH   3  12
ATOM      8  F   UNL     1      35.006 -17.923 -22.443  0.00  0.00    -0.125 F 
ATOM      9  F   UNL     1      35.388 -19.693 -23.670  0.00  0.00    -0.125 F 
ATOM     10  O   UNL     1      36.302 -19.580 -21.598  0.00  0.00    -0.395 OA
ATOM     11  O   UNL     1      33.928 -19.854 -21.944  0.00  0.00    -0.395 OA
ATOM     12  C   UNL     1      35.609 -21.727 -18.714  0.00  0.00    +0.061 C 
ATOM     13  C   UNL     1      35.725 -20.364 -20.644  0.00  0.00    +0.183 C 
ATOM     14  C   UNL     1      36.377 -20.959 -19.583  0.00  0.00    +0.056 C 
ATOM     15  C   UNL     1      34.371 -20.520 -20.843  0.00  0.00    +0.182 C 
ATOM     16  C   UNL     1      34.231 -21.891 -18.907  0.00  0.00    +0.019 C 
ATOM     17  C   UNL     1      33.596 -21.279 -19.990  0.00  0.00    +0.042 C 
ATOM     18  C   UNL     1      35.155 -19.270 -22.402  0.00  0.00    +0.589 C 
ENDBRANCH   3  12
BRANCH   5  20
ATOM     19  N   UNL     1      36.988 -26.483 -11.432  0.00  0.00    -0.242 NA
ATOM     20  C   UNL     1      36.213 -24.987 -13.662  0.00  0.00    +0.050 C 
ATOM     21  C   UNL     1      36.874 -26.198 -13.831  0.00  0.00    +0.025 C 
ATOM     22  C   UNL     1      35.939 -24.522 -12.380  0.00  0.00    +0.025 C 
ATOM     23  C   UNL     1      37.237 -26.902 -12.693  0.00  0.00    +0.099 C 
ATOM     24  C   UNL     1      36.344 -25.302 -11.308  0.00  0.00    +0.099 C 
ENDBRANCH   5  20
BRANCH   1  25
ATOM     25  C   UNL     1      33.317 -24.361 -14.459  0.00  0.00    +0.129 C 
BRANCH  25  26
ATOM     26  C   UNL     1      32.257 -23.261 -14.454  0.00  0.00    +0.109 C 
BRANCH  26  29
ATOM     27  O   UNL     1      31.085 -23.027 -16.532  0.00  0.00    -0.275 OA
ATOM     28  N   UNL     1      30.127 -24.431 -14.954  0.00  0.00    -0.276 N 
ATOM     29  C   UNL     1      31.112 -23.552 -15.416  0.00  0.00    +0.228 C 
ATOM     30  C   UNL     1      30.180 -25.042 -13.628  0.00  0.00    +0.115 C 
ATOM     31  C   UNL     1      28.972 -24.804 -15.761  0.00  0.00    +0.115 C 
ENDBRANCH  26  29
ENDBRANCH  25  26
ENDBRANCH   1  25
TORSDOF 5
ENDMDL
MODEL 2
REMARK VINA RESULT:     -11.0      3.512      6.814
REMARK  Name = 16755766
REMARK  5 active torsions:
REMARK  status: ('A' for Active; 'I' for Inactive)
REMARK    1  A    between atoms: N_1  and  C_25
REMARK    2  A    between atoms: N_3  and  C_12
REMARK    3  A    between atoms: C_5  and  C_20
REMARK    4  A    between atoms: C_25  and  C_26
REMARK    5  A    between atoms: C_26  and  C_29
REMARK                            x       y       z     vdW  Elec       q    Type
REMARK                         _______ _______ _______ _____ _____    ______ ____
ROOT
ATOM      1  N   UNL     1      34.796 -23.888 -14.615  0.00  0.00    -0.174 N 
ATOM      2  N   UNL     1      33.511 -23.980 -14.963  0.00  0.00    -0.096 NA
ATOM      3  N   UNL     1      31.676 -24.729 -13.616  0.00  0.00    -0.246 N 
ATOM      4  N   UNL     1      33.870 -24.649 -12.806  0.00  0.00    -0.319 NA
ATOM      5  C   UNL     1      35.011 -24.282 -13.342  0.00  0.00    +0.216 C 
ATOM      6  C   UNL     1      32.988 -24.448 -13.828  0.00  0.00    +0.165 C 
ATOM      7  H   UNL     1      31.495 -25.147 -12.743  0.00  0.00    +0.165 HD
ENDROOT
BRANCH   3  12
ATOM      8  F   UNL     1      25.771 -22.368 -15.660  0.00  0.00    -0.125 F 
ATOM      9  F   UNL     1      27.022 -21.688 -17.320  0.00  0.00    -0.125 F 
ATOM     10  O   UNL     1      27.984 -22.040 -15.298  0.00  0.00    -0.395 OA
ATOM     11  O   UNL     1      27.160 -23.853 -16.663  0.00  0.00    -0.395 OA
ATOM     12  C   UNL     1      30.513 -24.536 -14.413  0.00  0.00    +0.061 C 
ATOM     13  C   UNL     1      28.746 -23.164 -15.183  0.00  0.00    +0.183 C 
ATOM     14  C   UNL     1      29.870 -23.303 -14.394  0.00  0.00    +0.056 C 
ATOM     15  C   UNL     1      28.276 -24.198 -15.963  0.00  0.00    +0.182 C 
ATOM     16  C   UNL     1      30.042 -25.593 -15.203  0.00  0.00    +0.019 C 
ATOM     17  C   UNL     1      28.903 -25.426 -15.994  0.00  0.00    +0.042 C 
ATOM     18  C   UNL     1      26.995 -22.495 -16.231  0.00  0.00    +0.589 C 
ENDBRANCH   3  12
BRANCH   5  20
ATOM     19  N   UNL     1      38.803 -24.325 -11.450  0.00  0.00    -0.242 NA
ATOM     20  C   UNL     1      36.303 -24.295 -12.699  0.00  0.00    +0.050 C 
ATOM     21  C   UNL     1      36.628 -23.316 -11.767  0.00  0.00    +0.025 C 
ATOM     22  C   UNL     1      37.225 -25.289 -13.007  0.00  0.00    +0.025 C 
ATOM     23  C   UNL     1      37.881 -23.375 -11.176  0.00  0.00    +0.099 C 
ATOM     24  C   UNL     1      38.450 -25.259 -12.361  0.00  0.00    +0.099 C 
ENDBRANCH   5  20
BRANCH   1  25
ATOM     25  C   UNL     1      35.772 -23.412 -15.588  0.00  0.00    +0.129 C 
BRANCH  25  26
ATOM     26  C   UNL     1      35.114 -22.975 -16.897  0.00  0.00    +0.109 C 
BRANCH  26  29
ATOM     27  O   UNL     1      37.268 -22.121 -17.508  0.00  0.00    -0.275 OA
ATOM     28  N   UNL     1      35.526 -21.688 -18.977  0.00  0.00    -0.276 N 
ATOM     29  C   UNL     1      36.077 -22.227 -17.809  0.00  0.00    +0.228 C 
ATOM     30  C   UNL     1      34.111 -21.827 -19.313  0.00  0.00    +0.115 C 
ATOM     31  C   UNL     1      36.323 -20.945 -19.945  0.00  0.00    +0.115 C 
ENDBRANCH  26  29
ENDBRANCH  25  26
ENDBRANCH   1  25
TORSDOF 5
ENDMDL
MODEL 3
REMARK VINA RESULT:     -10.6      1.799      4.754
REMARK  Name = 16755766
REMARK  5 active torsions:
REMARK  status: ('A' for Active; 'I' for Inactive)
REMARK    1  A    between atoms: N_1  and  C_25
REMARK    2  A    between atoms: N_3  and  C_12
REMARK    3  A    between atoms: C_5  and  C_20
REMARK    4  A    between atoms: C_25  and  C_26
REMARK    5  A    between atoms: C_26  and  C_29
REMARK                            x       y       z     vdW  Elec       q    Type
REMARK                         _______ _______ _______ _____ _____    ______ ____
ROOT
ATOM      1  N   UNL     1      33.309 -23.688 -15.854  0.00  0.00    -0.174 N 
ATOM      2  N   UNL     1      33.889 -23.037 -16.863  0.00  0.00    -0.096 NA
ATOM      3  N   UNL     1      32.830 -22.047 -18.772  0.00  0.00    -0.246 N 
ATOM      4  N   UNL     1      31.618 -23.157 -17.106  0.00  0.00    -0.319 NA
ATOM      5  C   UNL     1      31.968 -23.762 -15.994  0.00  0.00    +0.216 C 
ATOM      6  C   UNL     1      32.818 -22.733 -17.599  0.00  0.00    +0.165 C 
ATOM      7  H   UNL     1      31.950 -21.996 -19.211  0.00  0.00    +0.165 HD
ENDROOT
BRANCH   3  12
ATOM      8  F   UNL     1      36.046 -18.856 -23.681  0.00  0.00    -0.125 F 
ATOM      9  F   UNL     1      36.135 -17.313 -22.133  0.00  0.00    -0.125 F 
ATOM     10  O   UNL     1      34.468 -18.848 -22.053  0.00  0.00    -0.395 OA
ATOM     11  O   UNL     1      36.769 -19.425 -21.608  0.00  0.00    -0.395 OA
ATOM     12  C   UNL     1      33.870 -21.389 -19.486  0.00  0.00    +0.061 C 
ATOM     13  C   UNL     1      34.586 -19.813 -21.099  0.00  0.00    +0.183 C 
ATOM     14  C   UNL     1      33.542 -20.422 -20.431  0.00  0.00    +0.056 C 
ATOM     15  C   UNL     1      35.899 -20.141 -20.845  0.00  0.00    +0.182 C 
ATOM     16  C   UNL     1      35.203 -21.730 -19.222  0.00  0.00    +0.019 C 
ATOM     17  C   UNL     1      36.240 -21.097 -19.911  0.00  0.00    +0.042 C 
ATOM     18  C   UNL     1      35.850 -18.620 -22.359  0.00  0.00    +0.589 C 
ENDBRANCH   3  12
BRANCH   5  20
ATOM     19  N   UNL     1      29.367 -25.671 -13.248  0.00  0.00    -0.242 NA
ATOM     20  C   UNL     1      31.084 -24.413 -15.058  0.00  0.00    +0.050 C 
ATOM     21  C   UNL     1      31.293 -24.278 -13.690  0.00  0.00    +0.025 C 
ATOM     22  C   UNL     1      30.018 -25.175 -15.522  0.00  0.00    +0.025 C 
ATOM     23  C   UNL     1      30.413 -24.922 -12.834  0.00  0.00    +0.099 C 
ATOM     24  C   UNL     1      29.196 -25.779 -14.584  0.00  0.00    +0.099 C 
ENDBRANCH   5  20
BRANCH   1  25
ATOM     25  C   UNL     1      34.134 -24.229 -14.779  0.00  0.00    +0.129 C 
BRANCH  25  26
ATOM     26  C   UNL     1      35.582 -24.445 -15.218  0.00  0.00    +0.109 C 
BRANCH  26  29
ATOM     27  O   UNL     1      35.993 -26.801 -15.057  0.00  0.00    -0.275 OA
ATOM     28  N   UNL     1      37.004 -25.460 -13.457  0.00  0.00    -0.276 N 
ATOM     29  C   UNL     1      36.203 -25.681 -14.582  0.00  0.00    +0.228 C 
ATOM     30  C   UNL     1      37.240 -24.125 -12.912  0.00  0.00    +0.115 C 
ATOM     31  C   UNL     1      37.664 -26.546 -12.742  0.00  0.00    +0.115 C 
ENDBRANCH  26  29
ENDBRANCH  25  26
ENDBRANCH   1  25
TORSDOF 5
ENDMDL
MODEL 4
REMARK VINA RESULT:     -10.2      4.540      8.178
REMARK  Name = 16755766
REMARK  5 active torsions:
REMARK  status: ('A' for Active; 'I' for Inactive)
REMARK    1  A    between atoms: N_1  and  C_25
REMARK    2  A    between atoms: N_3  and  C_12
REMARK    3  A    between atoms: C_5  and  C_20
REMARK    4  A    between atoms: C_25  and  C_26
REMARK    5  A    between atoms: C_26  and  C_29
REMARK                            x       y       z     vdW  Elec       q    Type
REMARK                         _______ _______ _______ _____ _____    ______ ____
ROOT
ATOM      1  N   UNL     1      34.955 -22.402 -17.829  0.00  0.00    -0.174 N 
ATOM      2  N   UNL     1      35.402 -23.001 -16.724  0.00  0.00    -0.096 NA
ATOM      3  N   UNL     1      37.620 -22.939 -15.816  0.00  0.00    -0.246 N 
ATOM      4  N   UNL     1      37.044 -21.812 -17.785  0.00  0.00    -0.319 NA
ATOM      5  C   UNL     1      35.922 -21.699 -18.458  0.00  0.00    +0.216 C 
ATOM      6  C   UNL     1      36.679 -22.611 -16.740  0.00  0.00    +0.165 C 
ATOM      7  H   UNL     1      38.526 -22.629 -16.044  0.00  0.00    +0.165 HD
ENDROOT
BRANCH   3  12
ATOM      8  F   UNL     1      36.444 -24.234  -9.369  0.00  0.00    -0.125 F 
ATOM      9  F   UNL     1      35.083 -25.685 -10.279  0.00  0.00    -0.125 F 
ATOM     10  O   UNL     1      35.652 -23.832 -11.455  0.00  0.00    -0.395 OA
ATOM     11  O   UNL     1      37.230 -25.601 -10.998  0.00  0.00    -0.395 OA
ATOM     12  C   UNL     1      37.546 -23.645 -14.583  0.00  0.00    +0.061 C 
ATOM     13  C   UNL     1      36.534 -24.017 -12.477  0.00  0.00    +0.183 C 
ATOM     14  C   UNL     1      36.564 -23.304 -13.659  0.00  0.00    +0.056 C 
ATOM     15  C   UNL     1      37.434 -25.027 -12.216  0.00  0.00    +0.182 C 
ATOM     16  C   UNL     1      38.467 -24.670 -14.326  0.00  0.00    +0.019 C 
ATOM     17  C   UNL     1      38.413 -25.377 -13.122  0.00  0.00    +0.042 C 
ATOM     18  C   UNL     1      36.108 -24.836 -10.538  0.00  0.00    +0.589 C 
ENDBRANCH   3  12
BRANCH   5  20
ATOM     19  N   UNL     1      35.353 -19.512 -22.042  0.00  0.00    -0.242 NA
ATOM     20  C   UNL     1      35.727 -20.956 -19.679  0.00  0.00    +0.050 C 
ATOM     21  C   UNL     1      34.471 -20.902 -20.272  0.00  0.00    +0.025 C 
ATOM     22  C   UNL     1      36.797 -20.289 -20.266  0.00  0.00    +0.025 C 
ATOM     23  C   UNL     1      34.337 -20.173 -21.442  0.00  0.00    +0.099 C 
ATOM     24  C   UNL     1      36.559 -19.588 -21.437  0.00  0.00    +0.099 C 
ENDBRANCH   5  20
BRANCH   1  25
ATOM     25  C   UNL     1      33.561 -22.568 -18.223  0.00  0.00    +0.129 C 
BRANCH  25  26
ATOM     26  C   UNL     1      32.873 -23.689 -17.445  0.00  0.00    +0.109 C 
BRANCH  26  29
ATOM     27  O   UNL     1      30.835 -22.521 -16.967  0.00  0.00    -0.275 OA
ATOM     28  N   UNL     1      31.936 -23.468 -15.159  0.00  0.00    -0.276 N 
ATOM     29  C   UNL     1      31.784 -23.168 -16.516  0.00  0.00    +0.228 C 
ATOM     30  C   UNL     1      33.069 -24.237 -14.647  0.00  0.00    +0.115 C 
ATOM     31  C   UNL     1      30.976 -23.036 -14.151  0.00  0.00    +0.115 C 
ENDBRANCH  26  29
ENDBRANCH  25  26
ENDBRANCH   1  25
TORSDOF 5
ENDMDL
MODEL 5
REMARK VINA RESULT:     -10.0      6.346     11.148
REMARK  Name = 16755766
REMARK  5 active torsions:
REMARK  status: ('A' for Active; 'I' for Inactive)
REMARK    1  A    between atoms: N_1  and  C_25
REMARK    2  A    between atoms: N_3  and  C_12
REMARK    3  A    between atoms: C_5  and  C_20
REMARK    4  A    between atoms: C_25  and  C_26
REMARK    5  A    between atoms: C_26  and  C_29
REMARK                            x       y       z     vdW  Elec       q    Type
REMARK                         _______ _______ _______ _____ _____    ______ ____
ROOT
ATOM      1  N   UNL     1      34.180 -15.612 -21.475  0.00  0.00    -0.174 N 
ATOM      2  N   UNL     1      34.332 -16.827 -20.947  0.00  0.00    -0.096 NA
ATOM      3  N   UNL     1      34.750 -18.886 -22.100  0.00  0.00    -0.246 N 
ATOM      4  N   UNL     1      34.510 -16.850 -23.227  0.00  0.00    -0.319 NA
ATOM      5  C   UNL     1      34.285 -15.621 -22.822  0.00  0.00    +0.216 C 
ATOM      6  C   UNL     1      34.531 -17.546 -22.054  0.00  0.00    +0.165 C 
ATOM      7  H   UNL     1      34.789 -19.252 -23.013  0.00  0.00    +0.165 HD
ENDROOT
BRANCH   3  12
ATOM      8  F   UNL     1      33.518 -22.750 -16.792  0.00  0.00    -0.125 F 
ATOM      9  F   UNL     1      33.747 -24.301 -18.317  0.00  0.00    -0.125 F 
ATOM     10  O   UNL     1      33.109 -22.222 -18.958  0.00  0.00    -0.395 OA
ATOM     11  O   UNL     1      35.334 -22.692 -18.148  0.00  0.00    -0.395 OA
ATOM     12  C   UNL     1      34.935 -19.863 -21.081  0.00  0.00    +0.061 C 
ATOM     13  C   UNL     1      34.059 -21.468 -19.581  0.00  0.00    +0.183 C 
ATOM     14  C   UNL     1      33.829 -20.531 -20.568  0.00  0.00    +0.056 C 
ATOM     15  C   UNL     1      35.328 -21.738 -19.118  0.00  0.00    +0.182 C 
ATOM     16  C   UNL     1      36.230 -20.129 -20.616  0.00  0.00    +0.019 C 
ATOM     17  C   UNL     1      36.436 -21.083 -19.617  0.00  0.00    +0.042 C 
ATOM     18  C   UNL     1      33.932 -22.982 -18.063  0.00  0.00    +0.589 C 
ENDBRANCH   3  12
BRANCH   5  20
ATOM     19  N   UNL     1      33.909 -12.188 -25.277  0.00  0.00    -0.242 NA
ATOM     20  C   UNL     1      34.158 -14.453 -23.659  0.00  0.00    +0.050 C 
ATOM     21  C   UNL     1      33.634 -14.567 -24.942  0.00  0.00    +0.025 C 
ATOM     22  C   UNL     1      34.557 -13.209 -23.184  0.00  0.00    +0.025 C 
ATOM     23  C   UNL     1      33.531 -13.414 -25.704  0.00  0.00    +0.099 C 
ATOM     24  C   UNL     1      34.414 -12.117 -24.025  0.00  0.00    +0.099 C 
ENDBRANCH   5  20
BRANCH   1  25
ATOM     25  C   UNL     1      33.923 -14.474 -20.600  0.00  0.00    +0.129 C 
BRANCH  25  26
ATOM     26  C   UNL     1      32.434 -14.304 -20.301  0.00  0.00    +0.109 C 
BRANCH  26  29
ATOM     27  O   UNL     1      31.637 -13.228 -22.289  0.00  0.00    -0.275 OA
ATOM     28  N   UNL     1      31.474 -12.016 -20.318  0.00  0.00    -0.276 N 
ATOM     29  C   UNL     1      31.815 -13.145 -21.071  0.00  0.00    +0.228 C 
ATOM     30  C   UNL     1      31.694 -11.940 -18.876  0.00  0.00    +0.115 C 
ATOM     31  C   UNL     1      30.875 -10.830 -20.917  0.00  0.00    +0.115 C 
ENDBRANCH  26  29
ENDBRANCH  25  26
ENDBRANCH   1  25
TORSDOF 5
ENDMDL
MODEL 6
REMARK VINA RESULT:      -9.5      2.494      3.559
REMARK  Name = 16755766
REMARK  5 active torsions:
REMARK  status: ('A' for Active; 'I' for Inactive)
REMARK    1  A    between atoms: N_1  and  C_25
REMARK    2  A    between atoms: N_3  and  C_12
REMARK    3  A    between atoms: C_5  and  C_20
REMARK    4  A    between atoms: C_25  and  C_26
REMARK    5  A    between atoms: C_26  and  C_29
REMARK                            x       y       z     vdW  Elec       q    Type
REMARK                         _______ _______ _______ _____ _____    ______ ____
ROOT
ATOM      1  N   UNL     1      35.247 -22.324 -18.376  0.00  0.00    -0.174 N 
ATOM      2  N   UNL     1      35.052 -21.554 -19.449  0.00  0.00    -0.096 NA
ATOM      3  N   UNL     1      36.399 -19.722 -20.205  0.00  0.00    -0.246 N 
ATOM      4  N   UNL     1      36.922 -20.946 -18.279  0.00  0.00    -0.319 NA
ATOM      5  C   UNL     1      36.350 -21.967 -17.683  0.00  0.00    +0.216 C 
ATOM      6  C   UNL     1      36.098 -20.731 -19.346  0.00  0.00    +0.165 C 
ATOM      7  H   UNL     1      37.161 -19.169 -19.917  0.00  0.00    +0.165 HD
ENDROOT
BRANCH   3  12
ATOM      8  F   UNL     1      33.325 -15.921 -24.756  0.00  0.00    -0.125 F 
ATOM      9  F   UNL     1      35.265 -16.156 -25.739  0.00  0.00    -0.125 F 
ATOM     10  O   UNL     1      35.151 -16.348 -23.483  0.00  0.00    -0.395 OA
ATOM     11  O   UNL     1      34.202 -18.001 -24.964  0.00  0.00    -0.395 OA
ATOM     12  C   UNL     1      35.825 -19.311 -21.440  0.00  0.00    +0.061 C 
ATOM     13  C   UNL     1      35.250 -17.612 -22.982  0.00  0.00    +0.183 C 
ATOM     14  C   UNL     1      35.820 -17.961 -21.774  0.00  0.00    +0.056 C 
ATOM     15  C   UNL     1      34.709 -18.554 -23.829  0.00  0.00    +0.182 C 
ATOM     16  C   UNL     1      35.276 -20.277 -22.294  0.00  0.00    +0.019 C 
ATOM     17  C   UNL     1      34.707 -19.897 -23.512  0.00  0.00    +0.042 C 
ATOM     18  C   UNL     1      34.489 -16.616 -24.727  0.00  0.00    +0.589 C 
ENDBRANCH   3  12
BRANCH   5  20
ATOM     19  N   UNL     1      37.682 -23.874 -14.141  0.00  0.00    -0.242 NA
ATOM     20  C   UNL     1      36.804 -22.618 -16.478  0.00  0.00    +0.050 C 
ATOM     21  C   UNL     1      38.052 -23.229 -16.442  0.00  0.00    +0.025 C 
ATOM     22  C   UNL     1      35.994 -22.634 -15.348  0.00  0.00    +0.025 C 
ATOM     23  C   UNL     1      38.441 -23.838 -15.259  0.00  0.00    +0.099 C 
ATOM     24  C   UNL     1      36.475 -23.270 -14.215  0.00  0.00    +0.099 C 
ENDBRANCH   5  20
BRANCH   1  25
ATOM     25  C   UNL     1      34.303 -23.393 -18.077  0.00  0.00    +0.129 C 
BRANCH  25  26
ATOM     26  C   UNL     1      33.056 -22.877 -17.360  0.00  0.00    +0.109 C 
BRANCH  26  29
ATOM     27  O   UNL     1      33.524 -24.429 -15.594  0.00  0.00    -0.275 OA
ATOM     28  N   UNL     1      31.332 -23.690 -15.772  0.00  0.00    -0.276 N 
ATOM     29  C   UNL     1      32.674 -23.738 -16.164  0.00  0.00    +0.228 C 
ATOM     30  C   UNL     1      30.343 -22.865 -16.462  0.00  0.00    +0.115 C 
ATOM     31  C   UNL     1      30.819 -24.461 -14.647  0.00  0.00    +0.115 C 
ENDBRANCH  26  29
ENDBRANCH  25  26
ENDBRANCH   1  25
TORSDOF 5
ENDMDL
MODEL 7
REMARK VINA RESULT:      -9.2      8.771     13.272
REMARK  Name = 16755766
REMARK  5 active torsions:
REMARK  status: ('A' for Active; 'I' for Inactive)
REMARK    1  A    between atoms: N_1  and  C_25
REMARK    2  A    between atoms: N_3  and  C_12
REMARK    3  A    between atoms: C_5  and  C_20
REMARK    4  A    between atoms: C_25  and  C_26
REMARK    5  A    between atoms: C_26  and  C_29
REMARK                            x       y       z     vdW  Elec       q    Type
REMARK                         _______ _______ _______ _____ _____    ______ ____
ROOT
ATOM      1  N   UNL     1      32.492 -12.386 -22.183  0.00  0.00    -0.174 N 
ATOM      2  N   UNL     1      32.904 -13.647 -22.321  0.00  0.00    -0.096 NA
ATOM      3  N   UNL     1      34.590 -14.485 -23.804  0.00  0.00    -0.246 N 
ATOM      4  N   UNL     1      34.012 -12.219 -23.723  0.00  0.00    -0.319 NA
ATOM      5  C   UNL     1      33.144 -11.540 -23.009  0.00  0.00    +0.216 C 
ATOM      6  C   UNL     1      33.830 -13.493 -23.270  0.00  0.00    +0.165 C 
ATOM      7  H   UNL     1      35.157 -14.192 -24.553  0.00  0.00    +0.165 HD
ENDROOT
BRANCH   3  12
ATOM      8  F   UNL     1      36.578 -20.072 -20.730  0.00  0.00    -0.125 F 
ATOM      9  F   UNL     1      34.431 -20.189 -20.329  0.00  0.00    -0.125 F 
ATOM     10  O   UNL     1      35.365 -18.157 -20.706  0.00  0.00    -0.395 OA
ATOM     11  O   UNL     1      35.127 -19.808 -22.452  0.00  0.00    -0.395 OA
ATOM     12  C   UNL     1      34.723 -15.866 -23.488  0.00  0.00    +0.061 C 
ATOM     13  C   UNL     1      35.109 -17.595 -21.920  0.00  0.00    +0.183 C 
ATOM     14  C   UNL     1      34.988 -16.244 -22.176  0.00  0.00    +0.056 C 
ATOM     15  C   UNL     1      34.972 -18.537 -22.915  0.00  0.00    +0.182 C 
ATOM     16  C   UNL     1      34.583 -16.817 -24.508  0.00  0.00    +0.019 C 
ATOM     17  C   UNL     1      34.709 -18.178 -24.221  0.00  0.00    +0.042 C 
ATOM     18  C   UNL     1      35.373 -19.546 -21.063  0.00  0.00    +0.589 C 
ENDBRANCH   3  12
BRANCH   5  20
ATOM     19  N   UNL     1      32.434  -7.367 -23.215  0.00  0.00    -0.242 NA
ATOM     20  C   UNL     1      32.901 -10.119 -23.080  0.00  0.00    +0.050 C 
ATOM     21  C   UNL     1      31.608  -9.624 -22.948  0.00  0.00    +0.025 C 
ATOM     22  C   UNL     1      33.960  -9.241 -23.279  0.00  0.00    +0.025 C 
ATOM     23  C   UNL     1      31.430  -8.252 -23.022  0.00  0.00    +0.099 C 
ATOM     24  C   UNL     1      33.676  -7.886 -23.339  0.00  0.00    +0.099 C 
ENDBRANCH   5  20
BRANCH   1  25
ATOM     25  C   UNL     1      31.439 -12.075 -21.223  0.00  0.00    +0.129 C 
BRANCH  25  26
ATOM     26  C   UNL     1      32.001 -11.707 -19.850  0.00  0.00    +0.109 C 
BRANCH  26  29
ATOM     27  O   UNL     1      30.108 -10.951 -18.590  0.00  0.00    -0.275 OA
ATOM     28  N   UNL     1      31.674  -9.343 -19.174  0.00  0.00    -0.276 N 
ATOM     29  C   UNL     1      31.167 -10.646 -19.146  0.00  0.00    +0.228 C 
ATOM     30  C   UNL     1      32.931  -9.005 -19.838  0.00  0.00    +0.115 C 
ATOM     31  C   UNL     1      30.986  -8.223 -18.544  0.00  0.00    +0.115 C 
ENDBRANCH  26  29
ENDBRANCH  25  26
ENDBRANCH   1  25
TORSDOF 5
ENDMDL
MODEL 8
REMARK VINA RESULT:      -8.7      1.310      2.100
REMARK  Name = 16755766
REMARK  5 active torsions:
REMARK  status: ('A' for Active; 'I' for Inactive)
REMARK    1  A    between atoms: N_1  and  C_25
REMARK    2  A    between atoms: N_3  and  C_12
REMARK    3  A    between atoms: C_5  and  C_20
REMARK    4  A    between atoms: C_25  and  C_26
REMARK    5  A    between atoms: C_26  and  C_29
REMARK                            x       y       z     vdW  Elec       q    Type
REMARK                         _______ _______ _______ _____ _____    ______ ____
ROOT
ATOM      1  N   UNL     1      35.271 -23.655 -15.771  0.00  0.00    -0.174 N 
ATOM      2  N   UNL     1      35.410 -22.793 -16.780  0.00  0.00    -0.096 NA
ATOM      3  N   UNL     1      37.346 -21.499 -17.348  0.00  0.00    -0.246 N 
ATOM      4  N   UNL     1      37.311 -22.960 -15.519  0.00  0.00    -0.319 NA
ATOM      5  C   UNL     1      36.392 -23.756 -15.025  0.00  0.00    +0.216 C 
ATOM      6  C   UNL     1      36.669 -22.396 -16.584  0.00  0.00    +0.165 C 
ATOM      7  H   UNL     1      38.236 -21.269 -16.996  0.00  0.00    +0.165 HD
ENDROOT
BRANCH   3  12
ATOM      8  F   UNL     1      35.175 -20.476 -23.582  0.00  0.00    -0.125 F 
ATOM      9  F   UNL     1      33.750 -19.220 -22.497  0.00  0.00    -0.125 F 
ATOM     10  O   UNL     1      34.725 -20.957 -21.413  0.00  0.00    -0.395 OA
ATOM     11  O   UNL     1      35.963 -18.988 -22.062  0.00  0.00    -0.395 OA
ATOM     12  C   UNL     1      37.014 -20.828 -18.558  0.00  0.00    +0.061 C 
ATOM     13  C   UNL     1      35.696 -20.634 -20.513  0.00  0.00    +0.183 C 
ATOM     14  C   UNL     1      35.980 -21.318 -19.348  0.00  0.00    +0.056 C 
ATOM     15  C   UNL     1      36.401 -19.510 -20.884  0.00  0.00    +0.182 C 
ATOM     16  C   UNL     1      37.738 -19.686 -18.928  0.00  0.00    +0.019 C 
ATOM     17  C   UNL     1      37.429 -19.011 -20.111  0.00  0.00    +0.042 C 
ATOM     18  C   UNL     1      34.911 -19.911 -22.377  0.00  0.00    +0.589 C 
ENDBRANCH   3  12
BRANCH   5  20
ATOM     19  N   UNL     1      36.790 -26.258 -11.629  0.00  0.00    -0.242 NA
ATOM     20  C   UNL     1      36.528 -24.606 -13.868  0.00  0.00    +0.050 C 
ATOM     21  C   UNL     1      36.083 -24.171 -12.624  0.00  0.00    +0.025 C 
ATOM     22  C   UNL     1      37.104 -25.866 -13.993  0.00  0.00    +0.025 C 
ATOM     23  C   UNL     1      36.236 -25.028 -11.546  0.00  0.00    +0.099 C 
ATOM     24  C   UNL     1      37.211 -26.646 -12.853  0.00  0.00    +0.099 C 
ENDBRANCH   5  20
BRANCH   1  25
ATOM     25  C   UNL     1      34.000 -24.345 -15.585  0.00  0.00    +0.129 C 
BRANCH  25  26
ATOM     26  C   UNL     1      33.049 -23.566 -14.677  0.00  0.00    +0.109 C 
BRANCH  26  29
ATOM     27  O   UNL     1      32.275 -25.156 -13.060  0.00  0.00    -0.275 OA
ATOM     28  N   UNL     1      30.724 -24.429 -14.623  0.00  0.00    -0.276 N 
ATOM     29  C   UNL     1      31.994 -24.458 -14.038  0.00  0.00    +0.228 C 
ATOM     30  C   UNL     1      30.414 -23.594 -15.782  0.00  0.00    +0.115 C 
ATOM     31  C   UNL     1      29.614 -25.230 -14.123  0.00  0.00    +0.115 C 
ENDBRANCH  26  29
ENDBRANCH  25  26
ENDBRANCH   1  25
TORSDOF 5
ENDMDL
MODEL 9
REMARK VINA RESULT:      -8.5     12.990     16.808
REMARK  Name = 16755766
REMARK  5 active torsions:
REMARK  status: ('A' for Active; 'I' for Inactive)
REMARK    1  A    between atoms: N_1  and  C_25
REMARK    2  A    between atoms: N_3  and  C_12
REMARK    3  A    between atoms: C_5  and  C_20
REMARK    4  A    between atoms: C_25  and  C_26
REMARK    5  A    between atoms: C_26  and  C_29
REMARK                            x       y       z     vdW  Elec       q    Type
REMARK                         _______ _______ _______ _____ _____    ______ ____
ROOT
ATOM      1  N   UNL     1      33.394  -9.147 -22.972  0.00  0.00    -0.174 N 
ATOM      2  N   UNL     1      33.622  -8.132 -23.808  0.00  0.00    -0.096 NA
ATOM      3  N   UNL     1      32.468  -6.034 -23.917  0.00  0.00    -0.246 N 
ATOM      4  N   UNL     1      31.901  -7.693 -22.366  0.00  0.00    -0.319 NA
ATOM      5  C   UNL     1      32.378  -8.891 -22.120  0.00  0.00    +0.216 C 
ATOM      6  C   UNL     1      32.688  -7.271 -23.399  0.00  0.00    +0.165 C 
ATOM      7  H   UNL     1      31.679  -5.581 -23.542  0.00  0.00    +0.165 HD
ENDROOT
BRANCH   3  12
ATOM      8  F   UNL     1      37.488  -3.257 -27.339  0.00  0.00    -0.125 F 
ATOM      9  F   UNL     1      36.623  -4.499 -28.918  0.00  0.00    -0.125 F 
ATOM     10  O   UNL     1      36.310  -5.105 -26.756  0.00  0.00    -0.395 OA
ATOM     11  O   UNL     1      35.254  -3.155 -27.711  0.00  0.00    -0.395 OA
ATOM     12  C   UNL     1      33.160  -5.270 -24.898  0.00  0.00    +0.061 C 
ATOM     13  C   UNL     1      35.066  -4.886 -26.245  0.00  0.00    +0.183 C 
ATOM     14  C   UNL     1      34.436  -5.660 -25.292  0.00  0.00    +0.056 C 
ATOM     15  C   UNL     1      34.464  -3.774 -26.791  0.00  0.00    +0.182 C 
ATOM     16  C   UNL     1      32.539  -4.140 -25.447  0.00  0.00    +0.019 C 
ATOM     17  C   UNL     1      33.199  -3.375 -26.411  0.00  0.00    +0.042 C 
ATOM     18  C   UNL     1      36.408  -4.006 -27.673  0.00  0.00    +0.589 C 
ENDBRANCH   3  12
BRANCH   5  20
ATOM     19  N   UNL     1      31.001 -11.588 -19.156  0.00  0.00    -0.242 NA
ATOM     20  C   UNL     1      31.907  -9.809 -21.111  0.00  0.00    +0.050 C 
ATOM     21  C   UNL     1      31.204 -10.951 -21.479  0.00  0.00    +0.025 C 
ATOM     22  C   UNL     1      32.158  -9.556 -19.767  0.00  0.00    +0.025 C 
ATOM     23  C   UNL     1      30.776 -11.801 -20.472  0.00  0.00    +0.099 C 
ATOM     24  C   UNL     1      31.687 -10.469 -18.837  0.00  0.00    +0.099 C 
ENDBRANCH   5  20
BRANCH   1  25
ATOM     25  C   UNL     1      34.206 -10.354 -23.069  0.00  0.00    +0.129 C 
BRANCH  25  26
ATOM     26  C   UNL     1      33.754 -11.262 -24.212  0.00  0.00    +0.109 C 
BRANCH  26  29
ATOM     27  O   UNL     1      33.909 -13.068 -22.644  0.00  0.00    -0.275 OA
ATOM     28  N   UNL     1      33.582 -13.649 -24.866  0.00  0.00    -0.276 N 
ATOM     29  C   UNL     1      33.758 -12.734 -23.822  0.00  0.00    +0.228 C 
ATOM     30  C   UNL     1      33.405 -13.230 -26.254  0.00  0.00    +0.115 C 
ATOM     31  C   UNL     1      33.565 -15.090 -24.646  0.00  0.00    +0.115 C 
ENDBRANCH  26  29
ENDBRANCH  25  26
ENDBRANCH   1  25
TORSDOF 5
ENDMDL
