MODEL 1
REMARK VINA RESULT:     -12.6      0.000      0.000
REMARK  Name = 16750097
REMARK  3 active torsions:
REMARK  status: ('A' for Active; 'I' for Inactive)
REMARK    1  A    between atoms: N_3  and  C_10
REMARK    2  A    between atoms: N_3  and  C_23
REMARK    3  A    between atoms: C_23  and  C_24
REMARK                            x       y       z     vdW  Elec       q    Type
REMARK                         _______ _______ _______ _____ _____    ______ ____
ROOT
ATOM      1  O   UNL     1      31.814 -23.171 -17.267  0.00  0.00    -0.209 OA
ATOM      2  N   UNL     1      33.818 -20.232 -21.134  0.00  0.00    -0.305 N 
ATOM      3  N   UNL     1      36.030 -20.255 -20.922  0.00  0.00    -0.305 N 
ATOM      4  N   UNL     1      35.805 -23.177 -16.934  0.00  0.00    -0.275 N 
ATOM      5  N   UNL     1      33.676 -23.882 -16.139  0.00  0.00    -0.302 NA
ATOM      6  N   UNL     1      35.666 -24.530 -15.087  0.00  0.00    -0.320 N 
ATOM      7  C   UNL     1      34.073 -21.016 -20.038  0.00  0.00    +0.061 C 
ATOM      8  C   UNL     1      35.460 -21.015 -19.927  0.00  0.00    +0.061 C 
ATOM      9  C   UNL     1      35.018 -19.800 -21.627  0.00  0.00    +0.208 C 
ATOM     10  C   UNL     1      35.250 -22.443 -17.986  0.00  0.00    +0.064 C 
ATOM     11  C   UNL     1      33.855 -22.420 -18.131  0.00  0.00    +0.110 C 
ATOM     12  C   UNL     1      33.230 -21.704 -19.163  0.00  0.00    +0.030 C 
ATOM     13  C   UNL     1      36.067 -21.738 -18.886  0.00  0.00    +0.031 C 
ATOM     14  C   UNL     1      33.035 -23.185 -17.148  0.00  0.00    +0.208 C 
ATOM     15  C   UNL     1      34.981 -23.857 -16.067  0.00  0.00    +0.248 C 
ATOM     16  H   UNL     1      32.931 -20.017 -21.501  0.00  0.00    +0.150 HD
ATOM     17  H   UNL     1      36.988 -20.087 -21.073  0.00  0.00    +0.150 HD
ATOM     18  H   UNL     1      36.781 -23.207 -16.813  0.00  0.00    +0.156 HD
ATOM     19  H   UNL     1      36.650 -24.492 -15.060  0.00  0.00    +0.146 HD
ATOM     20  H   UNL     1      35.175 -25.050 -14.411  0.00  0.00    +0.146 HD
ENDROOT
BRANCH   9  21
ATOM     21  N   UNL     1      35.013 -19.004 -22.718  0.00  0.00    -0.263 NA
ATOM     22  H   UNL     1      34.461 -19.280 -23.485  0.00  0.00    +0.127 HD
BRANCH  21  23
ATOM     23  C   UNL     1      35.766 -17.767 -22.838  0.00  0.00    +0.098 C 
BRANCH  23  24
ATOM     24  C   UNL     1      34.899 -16.675 -23.400  0.00  0.00    -0.006 C 
ATOM     25  C   UNL     1      34.272 -15.725 -22.579  0.00  0.00    -0.003 C 
ATOM     26  C   UNL     1      33.467 -14.721 -23.171  0.00  0.00    -0.000 C 
ATOM     27  C   UNL     1      34.735 -16.637 -24.786  0.00  0.00    -0.003 C 
ATOM     28  C   UNL     1      34.424 -15.748 -21.183  0.00  0.00    -0.000 C 
ATOM     29  C   UNL     1      33.314 -14.699 -24.567  0.00  0.00    -0.000 C 
ATOM     30  C   UNL     1      33.945 -15.651 -25.368  0.00  0.00    -0.000 C 
ATOM     31  C   UNL     1      32.840 -13.771 -22.349  0.00  0.00    -0.000 C 
ATOM     32  C   UNL     1      33.792 -14.796 -20.382  0.00  0.00    -0.000 C 
ATOM     33  C   UNL     1      33.003 -13.809 -20.964  0.00  0.00    -0.000 C 
ENDBRANCH  23  24
ENDBRANCH  21  23
ENDBRANCH   9  21
TORSDOF 3
ENDMDL
MODEL 2
REMARK VINA RESULT:     -12.4      0.638      2.085
REMARK  Name = 16750097
REMARK  3 active torsions:
REMARK  status: ('A' for Active; 'I' for Inactive)
REMARK    1  A    between atoms: N_3  and  C_10
REMARK    2  A    between atoms: N_3  and  C_23
REMARK    3  A    between atoms: C_23  and  C_24
REMARK                            x       y       z     vdW  Elec       q    Type
REMARK                         _______ _______ _______ _____ _____    ______ ____
ROOT
ATOM      1  O   UNL     1      31.574 -23.510 -16.988  0.00  0.00    -0.209 OA
ATOM      2  N   UNL     1      33.702 -20.517 -20.746  0.00  0.00    -0.305 N 
ATOM      3  N   UNL     1      35.902 -20.506 -20.435  0.00  0.00    -0.305 N 
ATOM      4  N   UNL     1      35.546 -23.454 -16.476  0.00  0.00    -0.275 N 
ATOM      5  N   UNL     1      33.395 -24.198 -15.781  0.00  0.00    -0.302 NA
ATOM      6  N   UNL     1      35.347 -24.820 -14.644  0.00  0.00    -0.320 N 
ATOM      7  C   UNL     1      33.920 -21.303 -19.644  0.00  0.00    +0.061 C 
ATOM      8  C   UNL     1      35.300 -21.281 -19.471  0.00  0.00    +0.061 C 
ATOM      9  C   UNL     1      34.915 -20.063 -21.183  0.00  0.00    +0.208 C 
ATOM     10  C   UNL     1      35.027 -22.723 -17.548  0.00  0.00    +0.064 C 
ATOM     11  C   UNL     1      33.639 -22.722 -17.756  0.00  0.00    +0.110 C 
ATOM     12  C   UNL     1      33.050 -22.010 -18.811  0.00  0.00    +0.030 C 
ATOM     13  C   UNL     1      35.871 -22.000 -18.407  0.00  0.00    +0.031 C 
ATOM     14  C   UNL     1      32.789 -23.505 -16.814  0.00  0.00    +0.208 C 
ATOM     15  C   UNL     1      34.695 -24.153 -15.651  0.00  0.00    +0.248 C 
ATOM     16  H   UNL     1      32.828 -20.314 -21.151  0.00  0.00    +0.150 HD
ATOM     17  H   UNL     1      36.863 -20.322 -20.542  0.00  0.00    +0.150 HD
ATOM     18  H   UNL     1      36.516 -23.469 -16.312  0.00  0.00    +0.156 HD
ATOM     19  H   UNL     1      36.327 -24.766 -14.572  0.00  0.00    +0.146 HD
ATOM     20  H   UNL     1      34.834 -25.352 -13.994  0.00  0.00    +0.146 HD
ENDROOT
BRANCH   9  21
ATOM     21  N   UNL     1      34.947 -19.261 -22.269  0.00  0.00    -0.263 NA
ATOM     22  H   UNL     1      34.361 -19.491 -23.026  0.00  0.00    +0.127 HD
BRANCH  21  23
ATOM     23  C   UNL     1      35.784 -18.081 -22.397  0.00  0.00    +0.098 C 
BRANCH  23  24
ATOM     24  C   UNL     1      34.981 -16.835 -22.146  0.00  0.00    -0.006 C 
ATOM     25  C   UNL     1      34.419 -16.088 -23.193  0.00  0.00    -0.003 C 
ATOM     26  C   UNL     1      33.673 -14.923 -22.891  0.00  0.00    -0.000 C 
ATOM     27  C   UNL     1      34.811 -16.439 -20.819  0.00  0.00    -0.003 C 
ATOM     28  C   UNL     1      34.579 -16.471 -24.535  0.00  0.00    -0.000 C 
ATOM     29  C   UNL     1      33.513 -14.540 -21.549  0.00  0.00    -0.000 C 
ATOM     30  C   UNL     1      34.078 -15.295 -20.521  0.00  0.00    -0.000 C 
ATOM     31  C   UNL     1      33.110 -14.177 -23.938  0.00  0.00    -0.000 C 
ATOM     32  C   UNL     1      34.014 -15.716 -25.563  0.00  0.00    -0.000 C 
ATOM     33  C   UNL     1      33.280 -14.571 -25.265  0.00  0.00    -0.000 C 
ENDBRANCH  23  24
ENDBRANCH  21  23
ENDBRANCH   9  21
TORSDOF 3
ENDMDL
MODEL 3
REMARK VINA RESULT:     -12.4      3.230      9.141
REMARK  Name = 16750097
REMARK  3 active torsions:
REMARK  status: ('A' for Active; 'I' for Inactive)
REMARK    1  A    between atoms: N_3  and  C_10
REMARK    2  A    between atoms: N_3  and  C_23
REMARK    3  A    between atoms: C_23  and  C_24
REMARK                            x       y       z     vdW  Elec       q    Type
REMARK                         _______ _______ _______ _____ _____    ______ ____
ROOT
ATOM      1  O   UNL     1      33.813 -15.909 -26.227  0.00  0.00    -0.209 OA
ATOM      2  N   UNL     1      35.237 -19.488 -22.654  0.00  0.00    -0.305 N 
ATOM      3  N   UNL     1      35.485 -18.440 -20.711  0.00  0.00    -0.305 N 
ATOM      4  N   UNL     1      34.276 -14.072 -22.699  0.00  0.00    -0.275 N 
ATOM      5  N   UNL     1      33.743 -13.967 -25.016  0.00  0.00    -0.302 NA
ATOM      6  N   UNL     1      33.713 -12.063 -23.651  0.00  0.00    -0.320 N 
ATOM      7  C   UNL     1      34.950 -18.171 -22.909  0.00  0.00    +0.061 C 
ATOM      8  C   UNL     1      35.111 -17.538 -21.681  0.00  0.00    +0.061 C 
ATOM      9  C   UNL     1      35.552 -19.598 -21.328  0.00  0.00    +0.208 C 
ATOM     10  C   UNL     1      34.509 -15.449 -22.740  0.00  0.00    +0.064 C 
ATOM     11  C   UNL     1      34.355 -16.124 -23.961  0.00  0.00    +0.110 C 
ATOM     12  C   UNL     1      34.572 -17.505 -24.076  0.00  0.00    +0.030 C 
ATOM     13  C   UNL     1      34.888 -16.154 -21.586  0.00  0.00    +0.031 C 
ATOM     14  C   UNL     1      33.950 -15.327 -25.155  0.00  0.00    +0.208 C 
ATOM     15  C   UNL     1      33.904 -13.407 -23.845  0.00  0.00    +0.248 C 
ATOM     16  H   UNL     1      35.221 -20.223 -23.308  0.00  0.00    +0.150 HD
ATOM     17  H   UNL     1      35.665 -18.256 -19.761  0.00  0.00    +0.150 HD
ATOM     18  H   UNL     1      34.377 -13.579 -21.853  0.00  0.00    +0.156 HD
ATOM     19  H   UNL     1      33.843 -11.671 -22.757  0.00  0.00    +0.146 HD
ATOM     20  H   UNL     1      33.445 -11.490 -24.406  0.00  0.00    +0.146 HD
ENDROOT
BRANCH   9  21
ATOM     21  N   UNL     1      35.875 -20.817 -20.845  0.00  0.00    -0.263 NA
ATOM     22  H   UNL     1      35.688 -21.600 -21.414  0.00  0.00    +0.127 HD
BRANCH  21  23
ATOM     23  C   UNL     1      36.479 -21.055 -19.546  0.00  0.00    +0.098 C 
BRANCH  23  24
ATOM     24  C   UNL     1      35.548 -21.845 -18.669  0.00  0.00    -0.006 C 
ATOM     25  C   UNL     1      35.962 -22.386 -17.441  0.00  0.00    -0.003 C 
ATOM     26  C   UNL     1      35.038 -23.121 -16.661  0.00  0.00    -0.000 C 
ATOM     27  C   UNL     1      34.241 -22.027 -19.121  0.00  0.00    -0.003 C 
ATOM     28  C   UNL     1      37.274 -22.215 -16.970  0.00  0.00    -0.000 C 
ATOM     29  C   UNL     1      33.726 -23.294 -17.132  0.00  0.00    -0.000 C 
ATOM     30  C   UNL     1      33.331 -22.748 -18.355  0.00  0.00    -0.000 C 
ATOM     31  C   UNL     1      35.452 -23.662 -15.433  0.00  0.00    -0.000 C 
ATOM     32  C   UNL     1      37.669 -22.760 -15.747  0.00  0.00    -0.000 C 
ATOM     33  C   UNL     1      36.759 -23.482 -14.980  0.00  0.00    -0.000 C 
ENDBRANCH  23  24
ENDBRANCH  21  23
ENDBRANCH   9  21
TORSDOF 3
ENDMDL
MODEL 4
REMARK VINA RESULT:     -12.2      3.197      9.168
REMARK  Name = 16750097
REMARK  3 active torsions:
REMARK  status: ('A' for Active; 'I' for Inactive)
REMARK    1  A    between atoms: N_3  and  C_10
REMARK    2  A    between atoms: N_3  and  C_23
REMARK    3  A    between atoms: C_23  and  C_24
REMARK                            x       y       z     vdW  Elec       q    Type
REMARK                         _______ _______ _______ _____ _____    ______ ____
ROOT
ATOM      1  O   UNL     1      33.871 -15.951 -26.210  0.00  0.00    -0.209 OA
ATOM      2  N   UNL     1      35.307 -19.371 -22.489  0.00  0.00    -0.305 N 
ATOM      3  N   UNL     1      35.493 -18.251 -20.579  0.00  0.00    -0.305 N 
ATOM      4  N   UNL     1      34.221 -13.984 -22.740  0.00  0.00    -0.275 N 
ATOM      5  N   UNL     1      33.731 -13.971 -25.069  0.00  0.00    -0.302 NA
ATOM      6  N   UNL     1      33.630 -12.023 -23.772  0.00  0.00    -0.320 N 
ATOM      7  C   UNL     1      34.994 -18.071 -22.795  0.00  0.00    +0.061 C 
ATOM      8  C   UNL     1      35.117 -17.393 -21.586  0.00  0.00    +0.061 C 
ATOM      9  C   UNL     1      35.599 -19.428 -21.155  0.00  0.00    +0.208 C 
ATOM     10  C   UNL     1      34.487 -15.356 -22.729  0.00  0.00    +0.064 C 
ATOM     11  C   UNL     1      34.373 -16.076 -23.928  0.00  0.00    +0.110 C 
ATOM     12  C   UNL     1      34.625 -17.454 -23.992  0.00  0.00    +0.030 C 
ATOM     13  C   UNL     1      34.860 -16.012 -21.544  0.00  0.00    +0.031 C 
ATOM     14  C   UNL     1      33.974 -15.330 -25.157  0.00  0.00    +0.208 C 
ATOM     15  C   UNL     1      33.857 -13.369 -23.915  0.00  0.00    +0.248 C 
ATOM     16  H   UNL     1      35.321 -20.128 -23.117  0.00  0.00    +0.150 HD
ATOM     17  H   UNL     1      35.650 -18.031 -19.633  0.00  0.00    +0.150 HD
ATOM     18  H   UNL     1      34.295 -13.460 -21.910  0.00  0.00    +0.156 HD
ATOM     19  H   UNL     1      33.734 -11.598 -22.890  0.00  0.00    +0.146 HD
ATOM     20  H   UNL     1      33.365 -11.483 -24.551  0.00  0.00    +0.146 HD
ENDROOT
BRANCH   9  21
ATOM     21  N   UNL     1      35.940 -20.622 -20.623  0.00  0.00    -0.263 NA
ATOM     22  H   UNL     1      36.889 -20.882 -20.653  0.00  0.00    +0.127 HD
BRANCH  21  23
ATOM     23  C   UNL     1      35.005 -21.549 -20.011  0.00  0.00    +0.098 C 
BRANCH  23  24
ATOM     24  C   UNL     1      35.493 -21.970 -18.653  0.00  0.00    -0.006 C 
ATOM     25  C   UNL     1      34.641 -22.561 -17.706  0.00  0.00    -0.003 C 
ATOM     26  C   UNL     1      35.162 -22.936 -16.444  0.00  0.00    -0.000 C 
ATOM     27  C   UNL     1      36.839 -21.751 -18.360  0.00  0.00    -0.003 C 
ATOM     28  C   UNL     1      33.283 -22.790 -17.983  0.00  0.00    -0.000 C 
ATOM     29  C   UNL     1      36.520 -22.707 -16.167  0.00  0.00    -0.000 C 
ATOM     30  C   UNL     1      37.352 -22.119 -17.120  0.00  0.00    -0.000 C 
ATOM     31  C   UNL     1      34.311 -23.527 -15.497  0.00  0.00    -0.000 C 
ATOM     32  C   UNL     1      32.451 -23.378 -17.029  0.00  0.00    -0.000 C 
ATOM     33  C   UNL     1      32.965 -23.747 -15.789  0.00  0.00    -0.000 C 
ENDBRANCH  23  24
ENDBRANCH  21  23
ENDBRANCH   9  21
TORSDOF 3
ENDMDL
MODEL 5
REMARK VINA RESULT:     -12.1      1.493      2.079
REMARK  Name = 16750097
REMARK  3 active torsions:
REMARK  status: ('A' for Active; 'I' for Inactive)
REMARK    1  A    between atoms: N_3  and  C_10
REMARK    2  A    between atoms: N_3  and  C_23
REMARK    3  A    between atoms: C_23  and  C_24
REMARK                            x       y       z     vdW  Elec       q    Type
REMARK                         _______ _______ _______ _____ _____    ______ ____
ROOT
ATOM      1  O   UNL     1      38.085 -22.737 -16.054  0.00  0.00    -0.209 OA
ATOM      2  N   UNL     1      36.083 -20.354 -20.287  0.00  0.00    -0.305 N 
ATOM      3  N   UNL     1      33.952 -20.958 -20.457  0.00  0.00    -0.305 N 
ATOM      4  N   UNL     1      34.238 -23.790 -16.408  0.00  0.00    -0.275 N 
ATOM      5  N   UNL     1      36.308 -23.931 -15.242  0.00  0.00    -0.302 NA
ATOM      6  N   UNL     1      34.404 -25.096 -14.530  0.00  0.00    -0.320 N 
ATOM      7  C   UNL     1      35.856 -21.197 -19.230  0.00  0.00    +0.061 C 
ATOM      8  C   UNL     1      34.519 -21.560 -19.357  0.00  0.00    +0.061 C 
ATOM      9  C   UNL     1      34.916 -20.243 -20.991  0.00  0.00    +0.208 C 
ATOM     10  C   UNL     1      34.755 -22.918 -17.370  0.00  0.00    +0.064 C 
ATOM     11  C   UNL     1      36.100 -22.529 -17.275  0.00  0.00    +0.110 C 
ATOM     12  C   UNL     1      36.686 -21.657 -18.205  0.00  0.00    +0.030 C 
ATOM     13  C   UNL     1      33.951 -22.434 -18.415  0.00  0.00    +0.031 C 
ATOM     14  C   UNL     1      36.908 -23.072 -16.146  0.00  0.00    +0.208 C 
ATOM     15  C   UNL     1      35.048 -24.248 -15.395  0.00  0.00    +0.248 C 
ATOM     16  H   UNL     1      36.934 -19.908 -20.503  0.00  0.00    +0.150 HD
ATOM     17  H   UNL     1      33.024 -21.044 -20.774  0.00  0.00    +0.150 HD
ATOM     18  H   UNL     1      33.297 -24.076 -16.456  0.00  0.00    +0.156 HD
ATOM     19  H   UNL     1      33.455 -25.316 -14.672  0.00  0.00    +0.146 HD
ATOM     20  H   UNL     1      34.891 -25.484 -13.767  0.00  0.00    +0.146 HD
ENDROOT
BRANCH   9  21
ATOM     21  N   UNL     1      34.902 -19.455 -22.088  0.00  0.00    -0.263 NA
ATOM     22  H   UNL     1      34.250 -19.665 -22.795  0.00  0.00    +0.127 HD
BRANCH  21  23
ATOM     23  C   UNL     1      35.781 -18.318 -22.297  0.00  0.00    +0.098 C 
BRANCH  23  24
ATOM     24  C   UNL     1      35.051 -17.209 -23.003  0.00  0.00    -0.006 C 
ATOM     25  C   UNL     1      34.464 -16.142 -22.305  0.00  0.00    -0.003 C 
ATOM     26  C   UNL     1      33.790 -15.129 -23.028  0.00  0.00    -0.000 C 
ATOM     27  C   UNL     1      34.974 -17.277 -24.394  0.00  0.00    -0.003 C 
ATOM     28  C   UNL     1      34.530 -16.057 -20.904  0.00  0.00    -0.000 C 
ATOM     29  C   UNL     1      33.722 -15.214 -24.428  0.00  0.00    -0.000 C 
ATOM     30  C   UNL     1      34.312 -16.282 -25.106  0.00  0.00    -0.000 C 
ATOM     31  C   UNL     1      33.203 -14.061 -22.330  0.00  0.00    -0.000 C 
ATOM     32  C   UNL     1      33.941 -14.989 -20.227  0.00  0.00    -0.000 C 
ATOM     33  C   UNL     1      33.279 -13.993 -20.939  0.00  0.00    -0.000 C 
ENDBRANCH  23  24
ENDBRANCH  21  23
ENDBRANCH   9  21
TORSDOF 3
ENDMDL
MODEL 6
REMARK VINA RESULT:     -11.7      3.123      9.107
REMARK  Name = 16750097
REMARK  3 active torsions:
REMARK  status: ('A' for Active; 'I' for Inactive)
REMARK    1  A    between atoms: N_3  and  C_10
REMARK    2  A    between atoms: N_3  and  C_23
REMARK    3  A    between atoms: C_23  and  C_24
REMARK                            x       y       z     vdW  Elec       q    Type
REMARK                         _______ _______ _______ _____ _____    ______ ____
ROOT
ATOM      1  O   UNL     1      33.533 -13.276 -22.252  0.00  0.00    -0.209 OA
ATOM      2  N   UNL     1      35.396 -17.872 -20.517  0.00  0.00    -0.305 N 
ATOM      3  N   UNL     1      35.691 -19.190 -22.281  0.00  0.00    -0.305 N 
ATOM      4  N   UNL     1      34.084 -15.695 -25.396  0.00  0.00    -0.275 N 
ATOM      5  N   UNL     1      33.407 -13.589 -24.517  0.00  0.00    -0.302 NA
ATOM      6  N   UNL     1      33.332 -14.054 -26.812  0.00  0.00    -0.320 N 
ATOM      7  C   UNL     1      35.008 -17.126 -21.601  0.00  0.00    +0.061 C 
ATOM      8  C   UNL     1      35.202 -17.970 -22.689  0.00  0.00    +0.061 C 
ATOM      9  C   UNL     1      35.795 -19.097 -20.975  0.00  0.00    +0.208 C 
ATOM     10  C   UNL     1      34.402 -16.201 -24.133  0.00  0.00    +0.064 C 
ATOM     11  C   UNL     1      34.222 -15.379 -23.010  0.00  0.00    +0.110 C 
ATOM     12  C   UNL     1      34.520 -15.822 -21.713  0.00  0.00    +0.030 C 
ATOM     13  C   UNL     1      34.897 -17.508 -23.981  0.00  0.00    +0.031 C 
ATOM     14  C   UNL     1      33.694 -14.002 -23.228  0.00  0.00    +0.208 C 
ATOM     15  C   UNL     1      33.602 -14.412 -25.515  0.00  0.00    +0.248 C 
ATOM     16  H   UNL     1      35.389 -17.579 -19.578  0.00  0.00    +0.150 HD
ATOM     17  H   UNL     1      35.913 -19.964 -22.846  0.00  0.00    +0.150 HD
ATOM     18  H   UNL     1      34.203 -16.254 -26.197  0.00  0.00    +0.156 HD
ATOM     19  H   UNL     1      33.490 -14.696 -27.542  0.00  0.00    +0.146 HD
ATOM     20  H   UNL     1      32.982 -13.157 -27.012  0.00  0.00    +0.146 HD
ENDROOT
BRANCH   9  21
ATOM     21  N   UNL     1      36.222 -20.009 -20.075  0.00  0.00    -0.263 NA
ATOM     22  H   UNL     1      36.672 -19.677 -19.264  0.00  0.00    +0.127 HD
BRANCH  21  23
ATOM     23  C   UNL     1      36.064 -21.445 -20.219  0.00  0.00    +0.098 C 
BRANCH  23  24
ATOM     24  C   UNL     1      35.249 -22.003 -19.085  0.00  0.00    -0.006 C 
ATOM     25  C   UNL     1      35.819 -22.309 -17.839  0.00  0.00    -0.003 C 
ATOM     26  C   UNL     1      34.997 -22.832 -16.812  0.00  0.00    -0.000 C 
ATOM     27  C   UNL     1      33.889 -22.210 -19.316  0.00  0.00    -0.003 C 
ATOM     28  C   UNL     1      37.186 -22.108 -17.589  0.00  0.00    -0.000 C 
ATOM     29  C   UNL     1      33.630 -23.033 -17.062  0.00  0.00    -0.000 C 
ATOM     30  C   UNL     1      33.080 -22.723 -18.307  0.00  0.00    -0.000 C 
ATOM     31  C   UNL     1      35.567 -23.138 -15.566  0.00  0.00    -0.000 C 
ATOM     32  C   UNL     1      37.736 -22.418 -16.345  0.00  0.00    -0.000 C 
ATOM     33  C   UNL     1      36.927 -22.932 -15.335  0.00  0.00    -0.000 C 
ENDBRANCH  23  24
ENDBRANCH  21  23
ENDBRANCH   9  21
TORSDOF 3
ENDMDL
MODEL 7
REMARK VINA RESULT:     -11.5      5.129      8.144
REMARK  Name = 16750097
REMARK  3 active torsions:
REMARK  status: ('A' for Active; 'I' for Inactive)
REMARK    1  A    between atoms: N_3  and  C_10
REMARK    2  A    between atoms: N_3  and  C_23
REMARK    3  A    between atoms: C_23  and  C_24
REMARK                            x       y       z     vdW  Elec       q    Type
REMARK                         _______ _______ _______ _____ _____    ______ ____
ROOT
ATOM      1  O   UNL     1      35.197 -17.004 -24.506  0.00  0.00    -0.209 OA
ATOM      2  N   UNL     1      32.265 -13.236 -22.311  0.00  0.00    -0.305 N 
ATOM      3  N   UNL     1      32.313 -13.539 -20.111  0.00  0.00    -0.305 N 
ATOM      4  N   UNL     1      35.247 -17.503 -20.532  0.00  0.00    -0.275 N 
ATOM      5  N   UNL     1      35.932 -18.205 -22.700  0.00  0.00    -0.302 NA
ATOM      6  N   UNL     1      36.605 -19.337 -20.762  0.00  0.00    -0.320 N 
ATOM      7  C   UNL     1      33.056 -14.338 -22.111  0.00  0.00    +0.061 C 
ATOM      8  C   UNL     1      33.071 -14.507 -20.730  0.00  0.00    +0.061 C 
ATOM      9  C   UNL     1      31.845 -12.794 -21.088  0.00  0.00    +0.208 C 
ATOM     10  C   UNL     1      34.503 -16.431 -21.035  0.00  0.00    +0.064 C 
ATOM     11  C   UNL     1      34.465 -16.228 -22.423  0.00  0.00    +0.110 C 
ATOM     12  C   UNL     1      33.738 -15.174 -22.997  0.00  0.00    +0.030 C 
ATOM     13  C   UNL     1      33.804 -15.569 -20.174  0.00  0.00    +0.031 C 
ATOM     14  C   UNL     1      35.224 -17.174 -23.290  0.00  0.00    +0.208 C 
ATOM     15  C   UNL     1      35.922 -18.331 -21.399  0.00  0.00    +0.248 C 
ATOM     16  H   UNL     1      32.040 -12.833 -23.180  0.00  0.00    +0.150 HD
ATOM     17  H   UNL     1      32.155 -13.429 -19.145  0.00  0.00    +0.150 HD
ATOM     18  H   UNL     1      35.288 -17.664 -19.562  0.00  0.00    +0.156 HD
ATOM     19  H   UNL     1      36.577 -19.405 -19.780  0.00  0.00    +0.146 HD
ATOM     20  H   UNL     1      37.122 -19.989 -21.287  0.00  0.00    +0.146 HD
ENDROOT
BRANCH   9  21
ATOM     21  N   UNL     1      31.045 -11.708 -21.038  0.00  0.00    -0.263 NA
ATOM     22  H   UNL     1      30.372 -11.666 -20.320  0.00  0.00    +0.127 HD
BRANCH  21  23
ATOM     23  C   UNL     1      31.108 -10.596 -21.970  0.00  0.00    +0.098 C 
BRANCH  23  24
ATOM     24  C   UNL     1      31.632  -9.364 -21.286  0.00  0.00    -0.006 C 
ATOM     25  C   UNL     1      31.774  -8.141 -21.961  0.00  0.00    -0.003 C 
ATOM     26  C   UNL     1      32.274  -7.017 -21.261  0.00  0.00    -0.000 C 
ATOM     27  C   UNL     1      31.980  -9.477 -19.940  0.00  0.00    -0.003 C 
ATOM     28  C   UNL     1      31.429  -8.007 -23.316  0.00  0.00    -0.000 C 
ATOM     29  C   UNL     1      32.619  -7.150 -19.906  0.00  0.00    -0.000 C 
ATOM     30  C   UNL     1      32.472  -8.374 -19.251  0.00  0.00    -0.000 C 
ATOM     31  C   UNL     1      32.415  -5.794 -21.935  0.00  0.00    -0.000 C 
ATOM     32  C   UNL     1      31.577  -6.784 -23.971  0.00  0.00    -0.000 C 
ATOM     33  C   UNL     1      32.068  -5.679 -23.281  0.00  0.00    -0.000 C 
ENDBRANCH  23  24
ENDBRANCH  21  23
ENDBRANCH   9  21
TORSDOF 3
ENDMDL
MODEL 8
REMARK VINA RESULT:     -11.4      4.522      7.620
REMARK  Name = 16750097
REMARK  3 active torsions:
REMARK  status: ('A' for Active; 'I' for Inactive)
REMARK    1  A    between atoms: N_3  and  C_10
REMARK    2  A    between atoms: N_3  and  C_23
REMARK    3  A    between atoms: C_23  and  C_24
REMARK                            x       y       z     vdW  Elec       q    Type
REMARK                         _______ _______ _______ _____ _____    ______ ____
ROOT
ATOM      1  O   UNL     1      35.454 -17.755 -20.646  0.00  0.00    -0.209 OA
ATOM      2  N   UNL     1      34.370 -13.012 -22.630  0.00  0.00    -0.305 N 
ATOM      3  N   UNL     1      33.831 -13.282 -24.769  0.00  0.00    -0.305 N 
ATOM      4  N   UNL     1      34.475 -18.183 -24.505  0.00  0.00    -0.275 N 
ATOM      5  N   UNL     1      35.141 -19.149 -22.435  0.00  0.00    -0.302 NA
ATOM      6  N   UNL     1      34.783 -20.450 -24.350  0.00  0.00    -0.320 N 
ATOM      7  C   UNL     1      34.466 -14.360 -22.865  0.00  0.00    +0.061 C 
ATOM      8  C   UNL     1      34.124 -14.503 -24.206  0.00  0.00    +0.061 C 
ATOM      9  C   UNL     1      33.989 -12.411 -23.798  0.00  0.00    +0.208 C 
ATOM     10  C   UNL     1      34.463 -16.887 -23.980  0.00  0.00    +0.064 C 
ATOM     11  C   UNL     1      34.801 -16.702 -22.631  0.00  0.00    +0.110 C 
ATOM     12  C   UNL     1      34.811 -15.431 -22.038  0.00  0.00    +0.030 C 
ATOM     13  C   UNL     1      34.120 -15.785 -24.781  0.00  0.00    +0.031 C 
ATOM     14  C   UNL     1      35.157 -17.907 -21.827  0.00  0.00    +0.208 C 
ATOM     15  C   UNL     1      34.815 -19.243 -23.698  0.00  0.00    +0.248 C 
ATOM     16  H   UNL     1      34.544 -12.557 -21.775  0.00  0.00    +0.150 HD
ATOM     17  H   UNL     1      33.563 -13.101 -25.698  0.00  0.00    +0.150 HD
ATOM     18  H   UNL     1      34.241 -18.335 -25.449  0.00  0.00    +0.156 HD
ATOM     19  H   UNL     1      34.534 -20.488 -25.302  0.00  0.00    +0.146 HD
ATOM     20  H   UNL     1      35.010 -21.277 -23.867  0.00  0.00    +0.146 HD
ENDROOT
BRANCH   9  21
ATOM     21  N   UNL     1      33.831 -11.070 -23.806  0.00  0.00    -0.263 NA
ATOM     22  H   UNL     1      34.629 -10.515 -23.961  0.00  0.00    +0.127 HD
BRANCH  21  23
ATOM     23  C   UNL     1      32.564 -10.389 -23.604  0.00  0.00    +0.098 C 
BRANCH  23  24
ATOM     24  C   UNL     1      32.587  -9.601 -22.323  0.00  0.00    -0.006 C 
ATOM     25  C   UNL     1      32.051 -10.107 -21.129  0.00  0.00    -0.003 C 
ATOM     26  C   UNL     1      32.104  -9.316 -19.956  0.00  0.00    -0.000 C 
ATOM     27  C   UNL     1      33.167  -8.333 -22.362  0.00  0.00    -0.003 C 
ATOM     28  C   UNL     1      31.463 -11.381 -21.071  0.00  0.00    -0.000 C 
ATOM     29  C   UNL     1      32.691  -8.041 -20.014  0.00  0.00    -0.000 C 
ATOM     30  C   UNL     1      33.220  -7.555 -21.210  0.00  0.00    -0.000 C 
ATOM     31  C   UNL     1      31.567  -9.821 -18.761  0.00  0.00    -0.000 C 
ATOM     32  C   UNL     1      30.934 -11.867 -19.875  0.00  0.00    -0.000 C 
ATOM     33  C   UNL     1      30.987 -11.089 -18.722  0.00  0.00    -0.000 C 
ENDBRANCH  23  24
ENDBRANCH  21  23
ENDBRANCH   9  21
TORSDOF 3
ENDMDL
MODEL 9
REMARK VINA RESULT:     -11.2      5.754      8.668
REMARK  Name = 16750097
REMARK  3 active torsions:
REMARK  status: ('A' for Active; 'I' for Inactive)
REMARK    1  A    between atoms: N_3  and  C_10
REMARK    2  A    between atoms: N_3  and  C_23
REMARK    3  A    between atoms: C_23  and  C_24
REMARK                            x       y       z     vdW  Elec       q    Type
REMARK                         _______ _______ _______ _____ _____    ______ ____
ROOT
ATOM      1  O   UNL     1      35.086 -16.412 -24.566  0.00  0.00    -0.209 OA
ATOM      2  N   UNL     1      32.523 -12.243 -22.652  0.00  0.00    -0.305 N 
ATOM      3  N   UNL     1      32.306 -12.533 -20.460  0.00  0.00    -0.305 N 
ATOM      4  N   UNL     1      34.665 -16.881 -20.612  0.00  0.00    -0.275 N 
ATOM      5  N   UNL     1      35.456 -17.692 -22.705  0.00  0.00    -0.302 NA
ATOM      6  N   UNL     1      35.761 -18.893 -20.716  0.00  0.00    -0.320 N 
ATOM      7  C   UNL     1      33.122 -13.447 -22.381  0.00  0.00    +0.061 C 
ATOM      8  C   UNL     1      32.974 -13.605 -21.006  0.00  0.00    +0.061 C 
ATOM      9  C   UNL     1      32.050 -11.737 -21.474  0.00  0.00    +0.208 C 
ATOM     10  C   UNL     1      34.137 -15.718 -21.179  0.00  0.00    +0.064 C 
ATOM     11  C   UNL     1      34.268 -15.522 -22.563  0.00  0.00    +0.110 C 
ATOM     12  C   UNL     1      33.762 -14.379 -23.199  0.00  0.00    +0.030 C 
ATOM     13  C   UNL     1      33.488 -14.757 -20.387  0.00  0.00    +0.031 C 
ATOM     14  C   UNL     1      34.966 -16.574 -23.356  0.00  0.00    +0.208 C 
ATOM     15  C   UNL     1      35.297 -17.805 -21.412  0.00  0.00    +0.248 C 
ATOM     16  H   UNL     1      32.446 -11.820 -23.537  0.00  0.00    +0.150 HD
ATOM     17  H   UNL     1      32.070 -12.394 -19.515  0.00  0.00    +0.150 HD
ATOM     18  H   UNL     1      34.585 -17.039 -19.643  0.00  0.00    +0.156 HD
ATOM     19  H   UNL     1      35.626 -18.950 -19.743  0.00  0.00    +0.146 HD
ATOM     20  H   UNL     1      36.229 -19.618 -21.191  0.00  0.00    +0.146 HD
ENDROOT
BRANCH   9  21
ATOM     21  N   UNL     1      31.414 -10.546 -21.498  0.00  0.00    -0.263 NA
ATOM     22  H   UNL     1      30.559 -10.493 -21.983  0.00  0.00    +0.127 HD
BRANCH  21  23
ATOM     23  C   UNL     1      31.902  -9.338 -20.856  0.00  0.00    +0.098 C 
BRANCH  23  24
ATOM     24  C   UNL     1      32.433  -8.374 -21.881  0.00  0.00    -0.006 C 
ATOM     25  C   UNL     1      31.869  -7.103 -22.071  0.00  0.00    -0.003 C 
ATOM     26  C   UNL     1      32.415  -6.242 -23.053  0.00  0.00    -0.000 C 
ATOM     27  C   UNL     1      33.521  -8.792 -22.649  0.00  0.00    -0.003 C 
ATOM     28  C   UNL     1      30.773  -6.666 -21.308  0.00  0.00    -0.000 C 
ATOM     29  C   UNL     1      33.509  -6.679 -23.817  0.00  0.00    -0.000 C 
ATOM     30  C   UNL     1      34.058  -7.946 -23.614  0.00  0.00    -0.000 C 
ATOM     31  C   UNL     1      31.850  -4.971 -23.243  0.00  0.00    -0.000 C 
ATOM     32  C   UNL     1      30.224  -5.399 -21.510  0.00  0.00    -0.000 C 
ATOM     33  C   UNL     1      30.763  -4.553 -22.476  0.00  0.00    -0.000 C 
ENDBRANCH  23  24
ENDBRANCH  21  23
ENDBRANCH   9  21
TORSDOF 3
ENDMDL
