MODEL 1
REMARK VINA RESULT:     -11.6      0.000      0.000
REMARK  Name = 16045418
REMARK  6 active torsions:
REMARK  status: ('A' for Active; 'I' for Inactive)
REMARK    1  A    between atoms: C_2  and  O_8
REMARK    2  A    between atoms: C_4  and  O_23
REMARK    3  A    between atoms: O_8  and  C_9
REMARK    4  A    between atoms: C_9  and  C_14
REMARK    5  A    between atoms: O_23  and  C_25
REMARK    6  A    between atoms: C_28  and  C_32
REMARK                            x       y       z     vdW  Elec       q    Type
REMARK                         _______ _______ _______ _____ _____    ______ ____
ROOT
ATOM      1 CL   UNL     1      31.897 -13.123 -19.822  0.00  0.00    -0.079 Cl
ATOM      2  C   UNL     1      34.575 -15.764 -22.308  0.00  0.00    +0.142 C 
ATOM      3  C   UNL     1      33.820 -14.775 -22.933  0.00  0.00    +0.075 C 
ATOM      4  C   UNL     1      32.989 -13.953 -22.171  0.00  0.00    +0.159 C 
ATOM      5  C   UNL     1      34.506 -15.938 -20.929  0.00  0.00    +0.038 C 
ATOM      6  C   UNL     1      32.916 -14.123 -20.788  0.00  0.00    +0.092 C 
ATOM      7  C   UNL     1      33.675 -15.116 -20.168  0.00  0.00    +0.018 C 
ENDROOT
BRANCH   2   8
ATOM      8  O   UNL     1      35.389 -16.570 -23.055  0.00  0.00    -0.469 OA
BRANCH   8   9
ATOM      9  C   UNL     1      35.034 -17.952 -23.118  0.00  0.00    +0.249 C 
BRANCH   9  14
ATOM     10  N   UNL     1      37.149 -18.550 -21.962  0.00  0.00    -0.227 N 
ATOM     11  N   UNL     1      37.704 -19.326 -21.008  0.00  0.00    -0.115 NA
ATOM     12  N   UNL     1      36.676 -20.962 -19.541  0.00  0.00    -0.335 NA
ATOM     13  N   UNL     1      35.304 -22.466 -18.301  0.00  0.00    -0.332 N 
ATOM     14  C   UNL     1      35.800 -18.718 -22.121  0.00  0.00    +0.097 C 
ATOM     15  C   UNL     1      35.457 -19.671 -21.203  0.00  0.00    +0.090 C 
ATOM     16  C   UNL     1      36.667 -20.024 -20.530  0.00  0.00    +0.105 C 
ATOM     17  C   UNL     1      34.184 -20.176 -20.988  0.00  0.00    +0.016 C 
ATOM     18  C   UNL     1      34.214 -21.135 -19.971  0.00  0.00    +0.049 C 
ATOM     19  C   UNL     1      35.423 -21.473 -19.315  0.00  0.00    +0.189 C 
ATOM     20  H   UNL     1      37.674 -17.914 -22.502  0.00  0.00    +0.175 HD
ATOM     21  H   UNL     1      36.099 -22.755 -17.799  0.00  0.00    +0.145 HD
ATOM     22  H   UNL     1      34.425 -22.864 -18.102  0.00  0.00    +0.145 HD
ENDBRANCH   9  14
ENDBRANCH   8   9
ENDBRANCH   2   8
BRANCH   4  23
ATOM     23  O   UNL     1      32.260 -12.991 -22.804  0.00  0.00    -0.452 OA
BRANCH  23  25
ATOM     24 CL   UNL     1      35.836 -10.185 -25.091  0.00  0.00    -0.082 Cl
ATOM     25  C   UNL     1      32.846 -11.749 -22.974  0.00  0.00    +0.147 C 
ATOM     26  C   UNL     1      32.350 -10.666 -22.268  0.00  0.00    +0.048 C 
ATOM     27  C   UNL     1      33.915 -11.620 -23.843  0.00  0.00    +0.049 C 
ATOM     28  C   UNL     1      32.942  -9.415 -22.439  0.00  0.00    +0.072 C 
ATOM     29  C   UNL     1      34.507 -10.369 -24.014  0.00  0.00    +0.061 C 
ATOM     30  C   UNL     1      34.020  -9.266 -23.312  0.00  0.00    +0.022 C 
BRANCH  28  32
ATOM     31  N   UNL     1      32.037  -7.364 -21.135  0.00  0.00    -0.191 NA
ATOM     32  C   UNL     1      32.443  -8.285 -21.720  0.00  0.00    +0.101 C 
ENDBRANCH  28  32
ENDBRANCH  23  25
ENDBRANCH   4  23
TORSDOF 6
ENDMDL
MODEL 2
REMARK VINA RESULT:     -11.4      2.345      4.013
REMARK  Name = 16045418
REMARK  6 active torsions:
REMARK  status: ('A' for Active; 'I' for Inactive)
REMARK    1  A    between atoms: C_2  and  O_8
REMARK    2  A    between atoms: C_4  and  O_23
REMARK    3  A    between atoms: O_8  and  C_9
REMARK    4  A    between atoms: C_9  and  C_14
REMARK    5  A    between atoms: O_23  and  C_25
REMARK    6  A    between atoms: C_28  and  C_32
REMARK                            x       y       z     vdW  Elec       q    Type
REMARK                         _______ _______ _______ _____ _____    ______ ____
ROOT
ATOM      1 CL   UNL     1      33.493 -14.642 -25.708  0.00  0.00    -0.079 Cl
ATOM      2  C   UNL     1      35.055 -18.258 -23.514  0.00  0.00    +0.142 C 
ATOM      3  C   UNL     1      35.240 -16.992 -22.965  0.00  0.00    +0.075 C 
ATOM      4  C   UNL     1      34.760 -15.868 -23.637  0.00  0.00    +0.159 C 
ATOM      5  C   UNL     1      34.394 -18.409 -24.730  0.00  0.00    +0.038 C 
ATOM      6  C   UNL     1      34.096 -16.014 -24.855  0.00  0.00    +0.092 C 
ATOM      7  C   UNL     1      33.914 -17.284 -25.401  0.00  0.00    +0.018 C 
ENDROOT
BRANCH   2   8
ATOM      8  O   UNL     1      35.527 -19.360 -22.856  0.00  0.00    -0.469 OA
BRANCH   8   9
ATOM      9  C   UNL     1      35.672 -19.242 -21.439  0.00  0.00    +0.249 C 
BRANCH   9  14
ATOM     10  N   UNL     1      33.330 -19.965 -21.038  0.00  0.00    -0.227 N 
ATOM     11  N   UNL     1      32.538 -20.794 -20.327  0.00  0.00    -0.115 NA
ATOM     12  N   UNL     1      33.121 -22.432 -18.635  0.00  0.00    -0.335 NA
ATOM     13  N   UNL     1      34.095 -23.916 -17.043  0.00  0.00    -0.332 N 
ATOM     14  C   UNL     1      34.665 -20.071 -20.757  0.00  0.00    +0.097 C 
ATOM     15  C   UNL     1      34.742 -21.039 -19.794  0.00  0.00    +0.090 C 
ATOM     16  C   UNL     1      33.400 -21.464 -19.553  0.00  0.00    +0.105 C 
ATOM     17  C   UNL     1      35.903 -21.496 -19.188  0.00  0.00    +0.016 C 
ATOM     18  C   UNL     1      35.596 -22.489 -18.252  0.00  0.00    +0.049 C 
ATOM     19  C   UNL     1      34.258 -22.898 -18.027  0.00  0.00    +0.189 C 
ATOM     20  H   UNL     1      32.975 -19.334 -21.707  0.00  0.00    +0.175 HD
ATOM     21  H   UNL     1      33.196 -24.254 -16.830  0.00  0.00    +0.145 HD
ATOM     22  H   UNL     1      34.882 -24.281 -16.578  0.00  0.00    +0.145 HD
ENDBRANCH   9  14
ENDBRANCH   8   9
ENDBRANCH   2   8
BRANCH   4  23
ATOM     23  O   UNL     1      34.952 -14.639 -23.079  0.00  0.00    -0.452 OA
BRANCH  23  25
ATOM     24 CL   UNL     1      31.880 -15.372 -19.088  0.00  0.00    -0.082 Cl
ATOM     25  C   UNL     1      33.951 -14.143 -22.261  0.00  0.00    +0.147 C 
ATOM     26  C   UNL     1      33.443 -12.879 -22.508  0.00  0.00    +0.048 C 
ATOM     27  C   UNL     1      33.484 -14.921 -21.217  0.00  0.00    +0.049 C 
ATOM     28  C   UNL     1      32.434 -12.380 -21.684  0.00  0.00    +0.072 C 
ATOM     29  C   UNL     1      32.475 -14.421 -20.393  0.00  0.00    +0.061 C 
ATOM     30  C   UNL     1      31.951 -13.150 -20.627  0.00  0.00    +0.022 C 
BRANCH  28  32
ATOM     31  N   UNL     1      31.461 -10.015 -22.117  0.00  0.00    -0.191 NA
ATOM     32  C   UNL     1      31.898 -11.077 -21.923  0.00  0.00    +0.101 C 
ENDBRANCH  28  32
ENDBRANCH  23  25
ENDBRANCH   4  23
TORSDOF 6
ENDMDL
MODEL 3
REMARK VINA RESULT:     -11.1      1.649      2.053
REMARK  Name = 16045418
REMARK  6 active torsions:
REMARK  status: ('A' for Active; 'I' for Inactive)
REMARK    1  A    between atoms: C_2  and  O_8
REMARK    2  A    between atoms: C_4  and  O_23
REMARK    3  A    between atoms: O_8  and  C_9
REMARK    4  A    between atoms: C_9  and  C_14
REMARK    5  A    between atoms: O_23  and  C_25
REMARK    6  A    between atoms: C_28  and  C_32
REMARK                            x       y       z     vdW  Elec       q    Type
REMARK                         _______ _______ _______ _____ _____    ______ ____
ROOT
ATOM      1 CL   UNL     1      31.927 -13.278 -19.664  0.00  0.00    -0.079 Cl
ATOM      2  C   UNL     1      34.560 -15.843 -22.273  0.00  0.00    +0.142 C 
ATOM      3  C   UNL     1      33.755 -14.871 -22.861  0.00  0.00    +0.075 C 
ATOM      4  C   UNL     1      32.938 -14.072 -22.061  0.00  0.00    +0.159 C 
ATOM      5  C   UNL     1      34.554 -16.024 -20.893  0.00  0.00    +0.038 C 
ATOM      6  C   UNL     1      32.928 -14.250 -20.677  0.00  0.00    +0.092 C 
ATOM      7  C   UNL     1      33.736 -15.226 -20.094  0.00  0.00    +0.018 C 
ENDROOT
BRANCH   2   8
ATOM      8  O   UNL     1      35.361 -16.627 -23.058  0.00  0.00    -0.469 OA
BRANCH   8   9
ATOM      9  C   UNL     1      35.029 -18.015 -23.122  0.00  0.00    +0.249 C 
BRANCH   9  14
ATOM     10  N   UNL     1      37.148 -18.591 -21.961  0.00  0.00    -0.227 N 
ATOM     11  N   UNL     1      37.706 -19.355 -20.999  0.00  0.00    -0.115 NA
ATOM     12  N   UNL     1      36.686 -20.981 -19.516  0.00  0.00    -0.335 NA
ATOM     13  N   UNL     1      35.322 -22.480 -18.261  0.00  0.00    -0.332 N 
ATOM     14  C   UNL     1      35.800 -18.767 -22.118  0.00  0.00    +0.097 C 
ATOM     15  C   UNL     1      35.462 -19.712 -21.190  0.00  0.00    +0.090 C 
ATOM     16  C   UNL     1      36.673 -20.053 -20.514  0.00  0.00    +0.105 C 
ATOM     17  C   UNL     1      34.191 -20.221 -20.971  0.00  0.00    +0.016 C 
ATOM     18  C   UNL     1      34.226 -21.170 -19.944  0.00  0.00    +0.049 C 
ATOM     19  C   UNL     1      35.437 -21.495 -19.284  0.00  0.00    +0.189 C 
ATOM     20  H   UNL     1      37.669 -17.957 -22.507  0.00  0.00    +0.175 HD
ATOM     21  H   UNL     1      36.119 -22.760 -17.756  0.00  0.00    +0.145 HD
ATOM     22  H   UNL     1      34.445 -22.880 -18.058  0.00  0.00    +0.145 HD
ENDBRANCH   9  14
ENDBRANCH   8   9
ENDBRANCH   2   8
BRANCH   4  23
ATOM     23  O   UNL     1      32.159 -13.126 -22.658  0.00  0.00    -0.452 OA
BRANCH  23  25
ATOM     24 CL   UNL     1      32.134  -8.201 -21.378  0.00  0.00    -0.082 Cl
ATOM     25  C   UNL     1      32.703 -11.865 -22.833  0.00  0.00    +0.147 C 
ATOM     26  C   UNL     1      33.738 -11.696 -23.736  0.00  0.00    +0.048 C 
ATOM     27  C   UNL     1      32.199 -10.804 -22.102  0.00  0.00    +0.049 C 
ATOM     28  C   UNL     1      34.285 -10.426 -23.913  0.00  0.00    +0.072 C 
ATOM     29  C   UNL     1      32.746  -9.534 -22.279  0.00  0.00    +0.061 C 
ATOM     30  C   UNL     1      33.790  -9.345 -23.184  0.00  0.00    +0.022 C 
BRANCH  28  32
ATOM     31  N   UNL     1      36.225 -10.074 -25.598  0.00  0.00    -0.191 NA
ATOM     32  C   UNL     1      35.355 -10.232 -24.841  0.00  0.00    +0.101 C 
ENDBRANCH  28  32
ENDBRANCH  23  25
ENDBRANCH   4  23
TORSDOF 6
ENDMDL
MODEL 4
REMARK VINA RESULT:     -11.0      2.440      4.580
REMARK  Name = 16045418
REMARK  6 active torsions:
REMARK  status: ('A' for Active; 'I' for Inactive)
REMARK    1  A    between atoms: C_2  and  O_8
REMARK    2  A    between atoms: C_4  and  O_23
REMARK    3  A    between atoms: O_8  and  C_9
REMARK    4  A    between atoms: C_9  and  C_14
REMARK    5  A    between atoms: O_23  and  C_25
REMARK    6  A    between atoms: C_28  and  C_32
REMARK                            x       y       z     vdW  Elec       q    Type
REMARK                         _______ _______ _______ _____ _____    ______ ____
ROOT
ATOM      1 CL   UNL     1      34.163 -16.819 -25.439  0.00  0.00    -0.079 Cl
ATOM      2  C   UNL     1      35.485 -19.149 -21.813  0.00  0.00    +0.142 C 
ATOM      3  C   UNL     1      35.672 -17.770 -21.844  0.00  0.00    +0.075 C 
ATOM      4  C   UNL     1      35.265 -17.041 -22.962  0.00  0.00    +0.159 C 
ATOM      5  C   UNL     1      34.897 -19.806 -22.890  0.00  0.00    +0.038 C 
ATOM      6  C   UNL     1      34.674 -17.694 -24.044  0.00  0.00    +0.092 C 
ATOM      7  C   UNL     1      34.490 -19.076 -24.007  0.00  0.00    +0.018 C 
ENDROOT
BRANCH   2   8
ATOM      8  O   UNL     1      35.885 -19.864 -20.717  0.00  0.00    -0.469 OA
BRANCH   8   9
ATOM      9  C   UNL     1      35.145 -21.051 -20.425  0.00  0.00    +0.249 C 
BRANCH   9  14
ATOM     10  N   UNL     1      36.803 -21.398 -18.610  0.00  0.00    -0.227 N 
ATOM     11  N   UNL     1      37.013 -21.955 -17.398  0.00  0.00    -0.115 NA
ATOM     12  N   UNL     1      35.505 -23.232 -15.992  0.00  0.00    -0.335 NA
ATOM     13  N   UNL     1      33.741 -24.427 -14.923  0.00  0.00    -0.332 N 
ATOM     14  C   UNL     1      35.546 -21.589 -19.116  0.00  0.00    +0.097 C 
ATOM     15  C   UNL     1      34.894 -22.320 -18.162  0.00  0.00    +0.090 C 
ATOM     16  C   UNL     1      35.839 -22.528 -17.110  0.00  0.00    +0.105 C 
ATOM     17  C   UNL     1      33.581 -22.761 -18.227  0.00  0.00    +0.016 C 
ATOM     18  C   UNL     1      33.259 -23.479 -17.071  0.00  0.00    +0.049 C 
ATOM     19  C   UNL     1      34.208 -23.675 -16.038  0.00  0.00    +0.189 C 
ATOM     20  H   UNL     1      37.500 -20.896 -19.092  0.00  0.00    +0.175 HD
ATOM     21  H   UNL     1      34.341 -24.606 -14.164  0.00  0.00    +0.145 HD
ATOM     22  H   UNL     1      32.817 -24.768 -14.911  0.00  0.00    +0.145 HD
ENDBRANCH   9  14
ENDBRANCH   8   9
ENDBRANCH   2   8
BRANCH   4  23
ATOM     23  O   UNL     1      35.456 -15.692 -22.969  0.00  0.00    -0.452 OA
BRANCH  23  25
ATOM     24 CL   UNL     1      31.905 -15.197 -19.358  0.00  0.00    -0.082 Cl
ATOM     25  C   UNL     1      34.484 -14.902 -22.380  0.00  0.00    +0.147 C 
ATOM     26  C   UNL     1      34.241 -13.638 -22.888  0.00  0.00    +0.048 C 
ATOM     27  C   UNL     1      33.776 -15.397 -21.299  0.00  0.00    +0.049 C 
ATOM     28  C   UNL     1      33.261 -12.843 -22.295  0.00  0.00    +0.072 C 
ATOM     29  C   UNL     1      32.796 -14.602 -20.706  0.00  0.00    +0.061 C 
ATOM     30  C   UNL     1      32.538 -13.325 -21.204  0.00  0.00    +0.022 C 
BRANCH  28  32
ATOM     31  N   UNL     1      32.783 -10.468 -23.220  0.00  0.00    -0.191 NA
ATOM     32  C   UNL     1      32.998 -11.534 -22.806  0.00  0.00    +0.101 C 
ENDBRANCH  28  32
ENDBRANCH  23  25
ENDBRANCH   4  23
TORSDOF 6
ENDMDL
MODEL 5
REMARK VINA RESULT:     -10.9      7.406     11.891
REMARK  Name = 16045418
REMARK  6 active torsions:
REMARK  status: ('A' for Active; 'I' for Inactive)
REMARK    1  A    between atoms: C_2  and  O_8
REMARK    2  A    between atoms: C_4  and  O_23
REMARK    3  A    between atoms: O_8  and  C_9
REMARK    4  A    between atoms: C_9  and  C_14
REMARK    5  A    between atoms: O_23  and  C_25
REMARK    6  A    between atoms: C_28  and  C_32
REMARK                            x       y       z     vdW  Elec       q    Type
REMARK                         _______ _______ _______ _____ _____    ______ ____
ROOT
ATOM      1 CL   UNL     1      31.196 -23.858 -12.241  0.00  0.00    -0.079 Cl
ATOM      2  C   UNL     1      32.065 -23.311 -16.631  0.00  0.00    +0.142 C 
ATOM      3  C   UNL     1      33.106 -23.625 -15.762  0.00  0.00    +0.075 C 
ATOM      4  C   UNL     1      32.846 -23.797 -14.402  0.00  0.00    +0.159 C 
ATOM      5  C   UNL     1      30.766 -23.166 -16.151  0.00  0.00    +0.038 C 
ATOM      6  C   UNL     1      31.546 -23.653 -13.917  0.00  0.00    +0.092 C 
ATOM      7  C   UNL     1      30.507 -23.337 -14.791  0.00  0.00    +0.018 C 
ENDROOT
BRANCH   2   8
ATOM      8  O   UNL     1      32.320 -23.142 -17.964  0.00  0.00    -0.469 OA
BRANCH   8   9
ATOM      9  C   UNL     1      33.682 -22.909 -18.327  0.00  0.00    +0.249 C 
BRANCH   9  14
ATOM     10  N   UNL     1      32.650 -21.239 -19.847  0.00  0.00    -0.227 N 
ATOM     11  N   UNL     1      32.897 -20.229 -20.708  0.00  0.00    -0.115 NA
ATOM     12  N   UNL     1      35.008 -19.262 -21.407  0.00  0.00    -0.335 NA
ATOM     13  N   UNL     1      37.259 -18.599 -21.832  0.00  0.00    -0.332 N 
ATOM     14  C   UNL     1      33.767 -21.797 -19.287  0.00  0.00    +0.097 C 
ATOM     15  C   UNL     1      34.812 -21.097 -19.824  0.00  0.00    +0.090 C 
ATOM     16  C   UNL     1      34.231 -20.132 -20.702  0.00  0.00    +0.105 C 
ATOM     17  C   UNL     1      36.156 -21.304 -19.554  0.00  0.00    +0.016 C 
ATOM     18  C   UNL     1      36.936 -20.402 -20.285  0.00  0.00    +0.049 C 
ATOM     19  C   UNL     1      36.342 -19.451 -21.151  0.00  0.00    +0.189 C 
ATOM     20  H   UNL     1      31.738 -21.549 -19.640  0.00  0.00    +0.175 HD
ATOM     21  H   UNL     1      36.924 -17.912 -22.452  0.00  0.00    +0.145 HD
ATOM     22  H   UNL     1      38.227 -18.698 -21.682  0.00  0.00    +0.145 HD
ENDBRANCH   9  14
ENDBRANCH   8   9
ENDBRANCH   2   8
BRANCH   4  23
ATOM     23  O   UNL     1      33.881 -24.105 -13.570  0.00  0.00    -0.452 OA
BRANCH  23  25
ATOM     24 CL   UNL     1      37.431 -21.505 -16.127  0.00  0.00    -0.082 Cl
ATOM     25  C   UNL     1      35.160 -24.074 -14.099  0.00  0.00    +0.147 C 
ATOM     26  C   UNL     1      35.979 -25.180 -13.951  0.00  0.00    +0.048 C 
ATOM     27  C   UNL     1      35.589 -22.939 -14.764  0.00  0.00    +0.049 C 
ATOM     28  C   UNL     1      37.267 -25.149 -14.485  0.00  0.00    +0.072 C 
ATOM     29  C   UNL     1      36.877 -22.907 -15.297  0.00  0.00    +0.061 C 
ATOM     30  C   UNL     1      37.716 -24.013 -15.158  0.00  0.00    +0.022 C 
BRANCH  28  32
ATOM     31  N   UNL     1      38.828 -27.203 -14.224  0.00  0.00    -0.191 NA
ATOM     32  C   UNL     1      38.126 -26.281 -14.341  0.00  0.00    +0.101 C 
ENDBRANCH  28  32
ENDBRANCH  23  25
ENDBRANCH   4  23
TORSDOF 6
ENDMDL
MODEL 6
REMARK VINA RESULT:     -10.8      7.333     12.056
REMARK  Name = 16045418
REMARK  6 active torsions:
REMARK  status: ('A' for Active; 'I' for Inactive)
REMARK    1  A    between atoms: C_2  and  O_8
REMARK    2  A    between atoms: C_4  and  O_23
REMARK    3  A    between atoms: O_8  and  C_9
REMARK    4  A    between atoms: C_9  and  C_14
REMARK    5  A    between atoms: O_23  and  C_25
REMARK    6  A    between atoms: C_28  and  C_32
REMARK                            x       y       z     vdW  Elec       q    Type
REMARK                         _______ _______ _______ _____ _____    ______ ____
ROOT
ATOM      1 CL   UNL     1      30.372 -24.947 -13.053  0.00  0.00    -0.079 Cl
ATOM      2  C   UNL     1      32.004 -22.980 -16.768  0.00  0.00    +0.142 C 
ATOM      3  C   UNL     1      32.828 -23.815 -16.018  0.00  0.00    +0.075 C 
ATOM      4  C   UNL     1      32.331 -24.428 -14.867  0.00  0.00    +0.159 C 
ATOM      5  C   UNL     1      30.688 -22.753 -16.377  0.00  0.00    +0.038 C 
ATOM      6  C   UNL     1      31.013 -24.203 -14.471  0.00  0.00    +0.092 C 
ATOM      7  C   UNL     1      30.192 -23.366 -15.226  0.00  0.00    +0.018 C 
ENDROOT
BRANCH   2   8
ATOM      8  O   UNL     1      32.492 -22.379 -17.895  0.00  0.00    -0.469 OA
BRANCH   8   9
ATOM      9  C   UNL     1      33.459 -23.118 -18.644  0.00  0.00    +0.249 C 
BRANCH   9  14
ATOM     10  N   UNL     1      35.811 -22.443 -18.225  0.00  0.00    -0.227 N 
ATOM     11  N   UNL     1      36.798 -21.597 -18.589  0.00  0.00    -0.115 NA
ATOM     12  N   UNL     1      36.806 -19.846 -20.267  0.00  0.00    -0.335 NA
ATOM     13  N   UNL     1      36.410 -18.241 -21.985  0.00  0.00    -0.332 N 
ATOM     14  C   UNL     1      34.639 -22.281 -18.912  0.00  0.00    +0.097 C 
ATOM     15  C   UNL     1      34.886 -21.257 -19.784  0.00  0.00    +0.090 C 
ATOM     16  C   UNL     1      36.237 -20.858 -19.553  0.00  0.00    +0.105 C 
ATOM     17  C   UNL     1      33.986 -20.729 -20.698  0.00  0.00    +0.016 C 
ATOM     18  C   UNL     1      34.588 -19.694 -21.420  0.00  0.00    +0.049 C 
ATOM     19  C   UNL     1      35.930 -19.312 -21.177  0.00  0.00    +0.189 C 
ATOM     20  H   UNL     1      35.926 -23.122 -17.520  0.00  0.00    +0.175 HD
ATOM     21  H   UNL     1      37.333 -17.918 -21.876  0.00  0.00    +0.145 HD
ATOM     22  H   UNL     1      35.817 -17.825 -22.652  0.00  0.00    +0.145 HD
ENDBRANCH   9  14
ENDBRANCH   8   9
ENDBRANCH   2   8
BRANCH   4  23
ATOM     23  O   UNL     1      33.156 -25.242 -14.150  0.00  0.00    -0.452 OA
BRANCH  23  25
ATOM     24 CL   UNL     1      37.511 -22.818 -15.177  0.00  0.00    -0.082 Cl
ATOM     25  C   UNL     1      34.338 -24.699 -13.675  0.00  0.00    +0.147 C 
ATOM     26  C   UNL     1      34.614 -24.764 -12.320  0.00  0.00    +0.048 C 
ATOM     27  C   UNL     1      35.215 -24.106 -14.565  0.00  0.00    +0.049 C 
ATOM     28  C   UNL     1      35.804 -24.219 -11.841  0.00  0.00    +0.072 C 
ATOM     29  C   UNL     1      36.406 -23.561 -14.087  0.00  0.00    +0.061 C 
ATOM     30  C   UNL     1      36.701 -23.617 -12.724  0.00  0.00    +0.022 C 
BRANCH  28  32
ATOM     31  N   UNL     1      36.352 -24.323  -9.308  0.00  0.00    -0.191 NA
ATOM     32  C   UNL     1      36.105 -24.276 -10.445  0.00  0.00    +0.101 C 
ENDBRANCH  28  32
ENDBRANCH  23  25
ENDBRANCH   4  23
TORSDOF 6
ENDMDL
MODEL 7
REMARK VINA RESULT:     -10.6      1.535      2.814
REMARK  Name = 16045418
REMARK  6 active torsions:
REMARK  status: ('A' for Active; 'I' for Inactive)
REMARK    1  A    between atoms: C_2  and  O_8
REMARK    2  A    between atoms: C_4  and  O_23
REMARK    3  A    between atoms: O_8  and  C_9
REMARK    4  A    between atoms: C_9  and  C_14
REMARK    5  A    between atoms: O_23  and  C_25
REMARK    6  A    between atoms: C_28  and  C_32
REMARK                            x       y       z     vdW  Elec       q    Type
REMARK                         _______ _______ _______ _____ _____    ______ ____
ROOT
ATOM      1 CL   UNL     1      32.893 -12.998 -26.806  0.00  0.00    -0.079 Cl
ATOM      2  C   UNL     1      34.459 -15.813 -23.651  0.00  0.00    +0.142 C 
ATOM      3  C   UNL     1      34.534 -14.439 -23.438  0.00  0.00    +0.075 C 
ATOM      4  C   UNL     1      34.051 -13.561 -24.409  0.00  0.00    +0.159 C 
ATOM      5  C   UNL     1      33.907 -16.316 -24.825  0.00  0.00    +0.038 C 
ATOM      6  C   UNL     1      33.497 -14.060 -25.588  0.00  0.00    +0.092 C 
ATOM      7  C   UNL     1      33.425 -15.438 -25.796  0.00  0.00    +0.018 C 
ENDROOT
BRANCH   2   8
ATOM      8  O   UNL     1      34.933 -16.673 -22.699  0.00  0.00    -0.469 OA
BRANCH   8   9
ATOM      9  C   UNL     1      35.067 -18.042 -23.087  0.00  0.00    +0.249 C 
BRANCH   9  14
ATOM     10  N   UNL     1      37.155 -18.599 -21.863  0.00  0.00    -0.227 N 
ATOM     11  N   UNL     1      37.692 -19.359 -20.885  0.00  0.00    -0.115 NA
ATOM     12  N   UNL     1      36.643 -20.999 -19.437  0.00  0.00    -0.335 NA
ATOM     13  N   UNL     1      35.256 -22.513 -18.226  0.00  0.00    -0.332 N 
ATOM     14  C   UNL     1      35.814 -18.788 -22.061  0.00  0.00    +0.097 C 
ATOM     15  C   UNL     1      35.457 -19.738 -21.145  0.00  0.00    +0.090 C 
ATOM     16  C   UNL     1      36.651 -20.068 -20.434  0.00  0.00    +0.105 C 
ATOM     17  C   UNL     1      34.186 -20.261 -20.966  0.00  0.00    +0.016 C 
ATOM     18  C   UNL     1      34.199 -21.211 -19.940  0.00  0.00    +0.049 C 
ATOM     19  C   UNL     1      35.392 -21.526 -19.244  0.00  0.00    +0.189 C 
ATOM     20  H   UNL     1      37.687 -17.959 -22.391  0.00  0.00    +0.175 HD
ATOM     21  H   UNL     1      36.041 -22.786 -17.698  0.00  0.00    +0.145 HD
ATOM     22  H   UNL     1      34.378 -22.922 -18.051  0.00  0.00    +0.145 HD
ENDBRANCH   9  14
ENDBRANCH   8   9
ENDBRANCH   2   8
BRANCH   4  23
ATOM     23  O   UNL     1      34.133 -12.220 -24.179  0.00  0.00    -0.452 OA
BRANCH  23  25
ATOM     24 CL   UNL     1      31.466 -12.863 -19.894  0.00  0.00    -0.082 Cl
ATOM     25  C   UNL     1      33.276 -11.677 -23.237  0.00  0.00    +0.147 C 
ATOM     26  C   UNL     1      32.857 -10.366 -23.383  0.00  0.00    +0.048 C 
ATOM     27  C   UNL     1      32.860 -12.457 -22.174  0.00  0.00    +0.049 C 
ATOM     28  C   UNL     1      31.993  -9.819 -22.435  0.00  0.00    +0.072 C 
ATOM     29  C   UNL     1      31.996 -11.911 -21.225  0.00  0.00    +0.061 C 
ATOM     30  C   UNL     1      31.563 -10.591 -21.356  0.00  0.00    +0.022 C 
BRANCH  28  32
ATOM     31  N   UNL     1      31.188  -7.365 -22.678  0.00  0.00    -0.191 NA
ATOM     32  C   UNL     1      31.550  -8.467 -22.568  0.00  0.00    +0.101 C 
ENDBRANCH  28  32
ENDBRANCH  23  25
ENDBRANCH   4  23
TORSDOF 6
ENDMDL
MODEL 8
REMARK VINA RESULT:     -10.6      7.789     12.052
REMARK  Name = 16045418
REMARK  6 active torsions:
REMARK  status: ('A' for Active; 'I' for Inactive)
REMARK    1  A    between atoms: C_2  and  O_8
REMARK    2  A    between atoms: C_4  and  O_23
REMARK    3  A    between atoms: O_8  and  C_9
REMARK    4  A    between atoms: C_9  and  C_14
REMARK    5  A    between atoms: O_23  and  C_25
REMARK    6  A    between atoms: C_28  and  C_32
REMARK                            x       y       z     vdW  Elec       q    Type
REMARK                         _______ _______ _______ _____ _____    ______ ____
ROOT
ATOM      1 CL   UNL     1      30.501 -24.765 -12.638  0.00  0.00    -0.079 Cl
ATOM      2  C   UNL     1      32.016 -23.127 -16.556  0.00  0.00    +0.142 C 
ATOM      3  C   UNL     1      32.849 -23.933 -15.785  0.00  0.00    +0.075 C 
ATOM      4  C   UNL     1      32.388 -24.445 -14.571  0.00  0.00    +0.159 C 
ATOM      5  C   UNL     1      30.728 -22.828 -16.124  0.00  0.00    +0.038 C 
ATOM      6  C   UNL     1      31.097 -24.148 -14.134  0.00  0.00    +0.092 C 
ATOM      7  C   UNL     1      30.267 -23.339 -14.911  0.00  0.00    +0.018 C 
ENDROOT
BRANCH   2   8
ATOM      8  O   UNL     1      32.469 -22.625 -17.745  0.00  0.00    -0.469 OA
BRANCH   8   9
ATOM      9  C   UNL     1      33.514 -23.356 -18.389  0.00  0.00    +0.249 C 
BRANCH   9  14
ATOM     10  N   UNL     1      35.849 -22.556 -18.116  0.00  0.00    -0.227 N 
ATOM     11  N   UNL     1      36.764 -21.656 -18.537  0.00  0.00    -0.115 NA
ATOM     12  N   UNL     1      36.569 -19.902 -20.201  0.00  0.00    -0.335 NA
ATOM     13  N   UNL     1      35.977 -18.317 -21.881  0.00  0.00    -0.332 N 
ATOM     14  C   UNL     1      34.628 -22.455 -18.726  0.00  0.00    +0.097 C 
ATOM     15  C   UNL     1      34.763 -21.417 -19.606  0.00  0.00    +0.090 C 
ATOM     16  C   UNL     1      36.103 -20.946 -19.459  0.00  0.00    +0.105 C 
ATOM     17  C   UNL     1      33.779 -20.937 -20.457  0.00  0.00    +0.016 C 
ATOM     18  C   UNL     1      34.276 -19.868 -21.209  0.00  0.00    +0.049 C 
ATOM     19  C   UNL     1      35.609 -19.414 -21.050  0.00  0.00    +0.189 C 
ATOM     20  H   UNL     1      36.046 -23.229 -17.425  0.00  0.00    +0.175 HD
ATOM     21  H   UNL     1      36.887 -17.944 -21.829  0.00  0.00    +0.145 HD
ATOM     22  H   UNL     1      35.321 -17.931 -22.506  0.00  0.00    +0.145 HD
ENDBRANCH   9  14
ENDBRANCH   8   9
ENDBRANCH   2   8
BRANCH   4  23
ATOM     23  O   UNL     1      33.220 -25.233 -13.834  0.00  0.00    -0.452 OA
BRANCH  23  25
ATOM     24 CL   UNL     1      36.335 -23.860 -10.050  0.00  0.00    -0.082 Cl
ATOM     25  C   UNL     1      34.439 -24.698 -13.452  0.00  0.00    +0.147 C 
ATOM     26  C   UNL     1      35.339 -24.305 -14.428  0.00  0.00    +0.048 C 
ATOM     27  C   UNL     1      34.727 -24.569 -12.105  0.00  0.00    +0.049 C 
ATOM     28  C   UNL     1      36.566 -23.765 -14.043  0.00  0.00    +0.072 C 
ATOM     29  C   UNL     1      35.954 -24.029 -11.721  0.00  0.00    +0.061 C 
ATOM     30  C   UNL     1      36.874 -23.628 -12.690  0.00  0.00    +0.022 C 
BRANCH  28  32
ATOM     31  N   UNL     1      38.275 -23.019 -15.845  0.00  0.00    -0.191 NA
ATOM     32  C   UNL     1      37.508 -23.355 -15.036  0.00  0.00    +0.101 C 
ENDBRANCH  28  32
ENDBRANCH  23  25
ENDBRANCH   4  23
TORSDOF 6
ENDMDL
MODEL 9
REMARK VINA RESULT:     -10.4      7.921     11.607
REMARK  Name = 16045418
REMARK  6 active torsions:
REMARK  status: ('A' for Active; 'I' for Inactive)
REMARK    1  A    between atoms: C_2  and  O_8
REMARK    2  A    between atoms: C_4  and  O_23
REMARK    3  A    between atoms: O_8  and  C_9
REMARK    4  A    between atoms: C_9  and  C_14
REMARK    5  A    between atoms: O_23  and  C_25
REMARK    6  A    between atoms: C_28  and  C_32
REMARK                            x       y       z     vdW  Elec       q    Type
REMARK                         _______ _______ _______ _____ _____    ______ ____
ROOT
ATOM      1 CL   UNL     1      31.121 -23.932 -12.224  0.00  0.00    -0.079 Cl
ATOM      2  C   UNL     1      32.017 -23.303 -16.598  0.00  0.00    +0.142 C 
ATOM      3  C   UNL     1      33.026 -23.756 -15.751  0.00  0.00    +0.075 C 
ATOM      4  C   UNL     1      32.757 -23.953 -14.397  0.00  0.00    +0.159 C 
ATOM      5  C   UNL     1      30.743 -23.047 -16.101  0.00  0.00    +0.038 C 
ATOM      6  C   UNL     1      31.481 -23.697 -13.894  0.00  0.00    +0.092 C 
ATOM      7  C   UNL     1      30.475 -23.244 -14.746  0.00  0.00    +0.018 C 
ENDROOT
BRANCH   2   8
ATOM      8  O   UNL     1      32.281 -23.109 -17.925  0.00  0.00    -0.469 OA
BRANCH   8   9
ATOM      9  C   UNL     1      33.645 -22.865 -18.275  0.00  0.00    +0.249 C 
BRANCH   9  14
ATOM     10  N   UNL     1      32.608 -21.228 -19.828  0.00  0.00    -0.227 N 
ATOM     11  N   UNL     1      32.854 -20.241 -20.716  0.00  0.00    -0.115 NA
ATOM     12  N   UNL     1      34.964 -19.303 -21.456  0.00  0.00    -0.335 NA
ATOM     13  N   UNL     1      37.215 -18.664 -21.917  0.00  0.00    -0.332 N 
ATOM     14  C   UNL     1      33.727 -21.778 -19.264  0.00  0.00    +0.097 C 
ATOM     15  C   UNL     1      34.771 -21.097 -19.826  0.00  0.00    +0.090 C 
ATOM     16  C   UNL     1      34.188 -20.151 -20.723  0.00  0.00    +0.105 C 
ATOM     17  C   UNL     1      36.117 -21.305 -19.562  0.00  0.00    +0.016 C 
ATOM     18  C   UNL     1      36.895 -20.426 -20.322  0.00  0.00    +0.049 C 
ATOM     19  C   UNL     1      36.299 -19.493 -21.207  0.00  0.00    +0.189 C 
ATOM     20  H   UNL     1      31.697 -21.528 -19.605  0.00  0.00    +0.175 HD
ATOM     21  H   UNL     1      36.878 -17.990 -22.551  0.00  0.00    +0.145 HD
ATOM     22  H   UNL     1      38.184 -18.764 -21.773  0.00  0.00    +0.145 HD
ENDBRANCH   9  14
ENDBRANCH   8   9
ENDBRANCH   2   8
BRANCH   4  23
ATOM     23  O   UNL     1      33.760 -24.398 -13.587  0.00  0.00    -0.452 OA
BRANCH  23  25
ATOM     24 CL   UNL     1      38.359 -26.531 -14.026  0.00  0.00    -0.082 Cl
ATOM     25  C   UNL     1      35.057 -24.304 -14.062  0.00  0.00    +0.147 C 
ATOM     26  C   UNL     1      35.440 -23.171 -14.759  0.00  0.00    +0.048 C 
ATOM     27  C   UNL     1      35.939 -25.343 -13.828  0.00  0.00    +0.049 C 
ATOM     28  C   UNL     1      36.746 -23.076 -15.237  0.00  0.00    +0.072 C 
ATOM     29  C   UNL     1      37.246 -25.248 -14.305  0.00  0.00    +0.061 C 
ATOM     30  C   UNL     1      37.649 -24.115 -15.010  0.00  0.00    +0.022 C 
BRANCH  28  32
ATOM     31  N   UNL     1      37.496 -20.969 -16.550  0.00  0.00    -0.191 NA
ATOM     32  C   UNL     1      37.159 -21.914 -15.960  0.00  0.00    +0.101 C 
ENDBRANCH  28  32
ENDBRANCH  23  25
ENDBRANCH   4  23
TORSDOF 6
ENDMDL
