MODEL 1
REMARK VINA RESULT:     -12.6      0.000      0.000
REMARK  Name = 72734520
REMARK  6 active torsions:
REMARK  status: ('A' for Active; 'I' for Inactive)
REMARK    1  A    between atoms: N_1  and  C_19
REMARK    2  A    between atoms: C_8  and  O_28
REMARK    3  A    between atoms: C_14  and  N_20
REMARK    4  A    between atoms: O_28  and  C_29
REMARK    5  A    between atoms: C_32  and  N_36
REMARK    6  A    between atoms: C_37  and  C_39
REMARK                            x       y       z     vdW  Elec       q    Type
REMARK                         _______ _______ _______ _____ _____    ______ ____
ROOT
ATOM      1  N   UNL     1      35.111 -21.239 -21.098  0.00  0.00    -0.238 N 
ATOM      2  N   UNL     1      34.892 -19.918 -23.009  0.00  0.00    -0.316 NA
ATOM      3  N   UNL     1      35.084 -18.922 -20.796  0.00  0.00    -0.294 NA
ATOM      4  N   UNL     1      34.679 -18.278 -24.764  0.00  0.00    -0.289 N 
ATOM      5  C   UNL     1      35.025 -19.954 -21.668  0.00  0.00    +0.207 C 
ATOM      6  C   UNL     1      34.863 -17.497 -22.682  0.00  0.00    +0.181 C 
ATOM      7  C   UNL     1      34.816 -18.652 -23.454  0.00  0.00    +0.188 C 
ATOM      8  C   UNL     1      35.003 -17.671 -21.306  0.00  0.00    +0.281 C 
ATOM      9  C   UNL     1      34.748 -16.400 -23.573  0.00  0.00    +0.008 C 
ATOM     10  C   UNL     1      34.635 -16.910 -24.848  0.00  0.00    +0.060 C 
ATOM     11  H   UNL     1      35.065 -21.969 -21.757  0.00  0.00    +0.166 HD
ATOM     12  H   UNL     1      34.620 -18.896 -25.528  0.00  0.00    +0.154 HD
ENDROOT
BRANCH   1  19
ATOM     13  F   UNL     1      33.273 -23.296 -17.178  0.00  0.00    -0.203 F 
ATOM     14  C   UNL     1      35.533 -22.568 -17.135  0.00  0.00    +0.076 C 
ATOM     15  C   UNL     1      34.316 -22.724 -17.797  0.00  0.00    +0.155 C 
ATOM     16  C   UNL     1      36.610 -21.969 -17.789  0.00  0.00    +0.018 C 
ATOM     17  C   UNL     1      34.176 -22.283 -19.113  0.00  0.00    +0.046 C 
ATOM     18  C   UNL     1      36.470 -21.528 -19.105  0.00  0.00    +0.017 C 
ATOM     19  C   UNL     1      35.253 -21.685 -19.767  0.00  0.00    +0.061 C 
BRANCH  14  20
ATOM     20  N   UNL     1      35.676 -23.007 -15.814  0.00  0.00    -0.310 N 
ATOM     21  N   UNL     1      35.981 -23.655 -13.049  0.00  0.00    +0.388 N 
ATOM     22  C   UNL     1      36.944 -22.727 -15.128  0.00  0.00    +0.068 C 
ATOM     23  C   UNL     1      34.496 -23.112 -14.950  0.00  0.00    +0.068 C 
ATOM     24  C   UNL     1      37.140 -23.684 -13.950  0.00  0.00    -0.056 C 
ATOM     25  C   UNL     1      34.772 -24.056 -13.777  0.00  0.00    -0.056 C 
ATOM     26  C   UNL     1      36.203 -24.532 -11.900  0.00  0.00    -0.101 C 
ATOM     27  H   UNL     1      35.857 -22.704 -12.704  0.00  0.00    -0.080 HD
ENDBRANCH  14  20
ENDBRANCH   1  19
BRANCH   8  28
ATOM     28  O   UNL     1      35.063 -16.612 -20.434  0.00  0.00    -0.429 OA
BRANCH  28  29
ATOM     29  C   UNL     1      34.206 -15.555 -20.664  0.00  0.00    +0.149 C 
ATOM     30  C   UNL     1      34.569 -14.545 -21.555  0.00  0.00    +0.052 C 
ATOM     31  C   UNL     1      32.977 -15.497 -20.007  0.00  0.00    +0.038 C 
ATOM     32  C   UNL     1      33.703 -13.477 -21.789  0.00  0.00    +0.054 C 
ATOM     33  C   UNL     1      32.475 -13.418 -21.132  0.00  0.00    +0.015 C 
ATOM     34  C   UNL     1      32.111 -14.429 -20.242  0.00  0.00    +0.004 C 
BRANCH  32  36
ATOM     35  O   UNL     1      33.571 -13.391 -24.788  0.00  0.00    -0.270 OA
ATOM     36  N   UNL     1      34.067 -12.467 -22.681  0.00  0.00    -0.280 N 
ATOM     37  C   UNL     1      33.983 -12.480 -24.080  0.00  0.00    +0.250 C 
ATOM     38  H   UNL     1      34.425 -11.644 -22.278  0.00  0.00    +0.155 HD
BRANCH  37  39
ATOM     39  C   UNL     1      34.473 -11.201 -24.672  0.00  0.00    +0.058 C 
ATOM     40  C   UNL     1      34.754 -10.155 -23.891  0.00  0.00    +0.005 C 
ENDBRANCH  37  39
ENDBRANCH  32  36
ENDBRANCH  28  29
ENDBRANCH   8  28
TORSDOF 6
ENDMDL
MODEL 2
REMARK VINA RESULT:     -12.6      0.820      1.144
REMARK  Name = 72734520
REMARK  6 active torsions:
REMARK  status: ('A' for Active; 'I' for Inactive)
REMARK    1  A    between atoms: N_1  and  C_19
REMARK    2  A    between atoms: C_8  and  O_28
REMARK    3  A    between atoms: C_14  and  N_20
REMARK    4  A    between atoms: O_28  and  C_29
REMARK    5  A    between atoms: C_32  and  N_36
REMARK    6  A    between atoms: C_37  and  C_39
REMARK                            x       y       z     vdW  Elec       q    Type
REMARK                         _______ _______ _______ _____ _____    ______ ____
ROOT
ATOM      1  N   UNL     1      34.959 -21.185 -21.183  0.00  0.00    -0.238 N 
ATOM      2  N   UNL     1      34.888 -19.804 -23.064  0.00  0.00    -0.316 NA
ATOM      3  N   UNL     1      34.959 -18.877 -20.814  0.00  0.00    -0.294 NA
ATOM      4  N   UNL     1      34.818 -18.109 -24.778  0.00  0.00    -0.289 N 
ATOM      5  C   UNL     1      34.934 -19.882 -21.718  0.00  0.00    +0.207 C 
ATOM      6  C   UNL     1      34.886 -17.394 -22.665  0.00  0.00    +0.181 C 
ATOM      7  C   UNL     1      34.865 -18.524 -23.473  0.00  0.00    +0.188 C 
ATOM      8  C   UNL     1      34.934 -17.611 -21.289  0.00  0.00    +0.281 C 
ATOM      9  C   UNL     1      34.849 -16.268 -23.527  0.00  0.00    +0.008 C 
ATOM     10  C   UNL     1      34.807 -16.739 -24.822  0.00  0.00    +0.060 C 
ATOM     11  H   UNL     1      34.940 -21.894 -21.866  0.00  0.00    +0.166 HD
ATOM     12  H   UNL     1      34.795 -18.703 -25.563  0.00  0.00    +0.154 HD
ENDROOT
BRANCH   1  19
ATOM     13  F   UNL     1      37.457 -22.328 -17.256  0.00  0.00    -0.203 F 
ATOM     14  C   UNL     1      35.103 -22.639 -17.245  0.00  0.00    +0.076 C 
ATOM     15  C   UNL     1      36.277 -22.246 -17.886  0.00  0.00    +0.155 C 
ATOM     16  C   UNL     1      33.881 -22.550 -17.912  0.00  0.00    +0.018 C 
ATOM     17  C   UNL     1      36.229 -21.762 -19.194  0.00  0.00    +0.046 C 
ATOM     18  C   UNL     1      33.833 -22.067 -19.220  0.00  0.00    +0.017 C 
ATOM     19  C   UNL     1      35.007 -21.673 -19.860  0.00  0.00    +0.061 C 
BRANCH  14  20
ATOM     20  N   UNL     1      35.148 -23.126 -15.934  0.00  0.00    -0.310 N 
ATOM     21  N   UNL     1      35.158 -23.884 -13.180  0.00  0.00    +0.388 N 
ATOM     22  C   UNL     1      36.117 -22.525 -15.009  0.00  0.00    +0.068 C 
ATOM     23  C   UNL     1      33.933 -23.667 -15.316  0.00  0.00    +0.068 C 
ATOM     24  C   UNL     1      36.403 -23.473 -13.841  0.00  0.00    -0.056 C 
ATOM     25  C   UNL     1      34.289 -24.577 -14.138  0.00  0.00    -0.056 C 
ATOM     26  C   UNL     1      35.447 -24.745 -12.033  0.00  0.00    -0.101 C 
ATOM     27  H   UNL     1      34.677 -23.052 -12.840  0.00  0.00    -0.080 HD
ENDBRANCH  14  20
ENDBRANCH   1  19
BRANCH   8  28
ATOM     28  O   UNL     1      34.960 -16.580 -20.384  0.00  0.00    -0.429 OA
BRANCH  28  29
ATOM     29  C   UNL     1      34.120 -15.510 -20.619  0.00  0.00    +0.149 C 
ATOM     30  C   UNL     1      34.502 -14.508 -21.512  0.00  0.00    +0.052 C 
ATOM     31  C   UNL     1      32.890 -15.431 -19.967  0.00  0.00    +0.038 C 
ATOM     32  C   UNL     1      33.653 -13.428 -21.752  0.00  0.00    +0.054 C 
ATOM     33  C   UNL     1      32.423 -13.349 -21.100  0.00  0.00    +0.015 C 
ATOM     34  C   UNL     1      32.041 -14.350 -20.208  0.00  0.00    +0.004 C 
BRANCH  32  36
ATOM     35  O   UNL     1      33.565 -13.363 -24.753  0.00  0.00    -0.270 OA
ATOM     36  N   UNL     1      34.035 -12.426 -22.646  0.00  0.00    -0.280 N 
ATOM     37  C   UNL     1      33.972 -12.448 -24.046  0.00  0.00    +0.250 C 
ATOM     38  H   UNL     1      34.392 -11.602 -22.243  0.00  0.00    +0.155 HD
BRANCH  37  39
ATOM     39  C   UNL     1      34.477 -11.177 -24.640  0.00  0.00    +0.058 C 
ATOM     40  C   UNL     1      34.770 -10.132 -23.860  0.00  0.00    +0.005 C 
ENDBRANCH  37  39
ENDBRANCH  32  36
ENDBRANCH  28  29
ENDBRANCH   8  28
TORSDOF 6
ENDMDL
MODEL 3
REMARK VINA RESULT:     -12.0      2.437      3.891
REMARK  Name = 72734520
REMARK  6 active torsions:
REMARK  status: ('A' for Active; 'I' for Inactive)
REMARK    1  A    between atoms: N_1  and  C_19
REMARK    2  A    between atoms: C_8  and  O_28
REMARK    3  A    between atoms: C_14  and  N_20
REMARK    4  A    between atoms: O_28  and  C_29
REMARK    5  A    between atoms: C_32  and  N_36
REMARK    6  A    between atoms: C_37  and  C_39
REMARK                            x       y       z     vdW  Elec       q    Type
REMARK                         _______ _______ _______ _____ _____    ______ ____
ROOT
ATOM      1  N   UNL     1      34.565 -18.389 -23.833  0.00  0.00    -0.238 N 
ATOM      2  N   UNL     1      34.051 -16.727 -25.388  0.00  0.00    -0.316 NA
ATOM      3  N   UNL     1      34.580 -16.179 -23.076  0.00  0.00    -0.294 NA
ATOM      4  N   UNL     1      33.566 -14.782 -26.728  0.00  0.00    -0.289 N 
ATOM      5  C   UNL     1      34.390 -17.021 -24.116  0.00  0.00    +0.207 C 
ATOM      6  C   UNL     1      34.068 -14.420 -24.585  0.00  0.00    +0.181 C 
ATOM      7  C   UNL     1      33.905 -15.401 -25.555  0.00  0.00    +0.188 C 
ATOM      8  C   UNL     1      34.419 -14.856 -23.308  0.00  0.00    +0.281 C 
ATOM      9  C   UNL     1      33.815 -13.173 -25.211  0.00  0.00    +0.008 C 
ATOM     10  C   UNL     1      33.507 -13.426 -26.531  0.00  0.00    +0.060 C 
ATOM     11  H   UNL     1      34.419 -18.977 -24.610  0.00  0.00    +0.166 HD
ATOM     12  H   UNL     1      33.391 -15.239 -27.582  0.00  0.00    +0.154 HD
ENDROOT
BRANCH   1  19
ATOM     13  F   UNL     1      33.318 -21.070 -20.061  0.00  0.00    -0.203 F 
ATOM     14  C   UNL     1      35.597 -20.456 -20.324  0.00  0.00    +0.076 C 
ATOM     15  C   UNL     1      34.271 -20.435 -20.757  0.00  0.00    +0.155 C 
ATOM     16  C   UNL     1      36.579 -19.789 -21.056  0.00  0.00    +0.018 C 
ATOM     17  C   UNL     1      33.929 -19.750 -21.923  0.00  0.00    +0.046 C 
ATOM     18  C   UNL     1      36.237 -19.104 -22.221  0.00  0.00    +0.017 C 
ATOM     19  C   UNL     1      34.912 -19.084 -22.655  0.00  0.00    +0.061 C 
BRANCH  14  20
ATOM     20  N   UNL     1      35.943 -21.142 -19.155  0.00  0.00    -0.310 N 
ATOM     21  N   UNL     1      36.752 -22.727 -16.921  0.00  0.00    +0.388 N 
ATOM     22  C   UNL     1      35.298 -22.436 -18.898  0.00  0.00    +0.068 C 
ATOM     23  C   UNL     1      37.284 -20.977 -18.584  0.00  0.00    +0.068 C 
ATOM     24  C   UNL     1      35.369 -22.785 -17.410  0.00  0.00    -0.056 C 
ATOM     25  C   UNL     1      37.291 -21.375 -17.106  0.00  0.00    -0.056 C 
ATOM     26  C   UNL     1      36.814 -23.116 -15.512  0.00  0.00    -0.101 C 
ATOM     27  H   UNL     1      37.318 -23.383 -17.457  0.00  0.00    -0.080 HD
ENDBRANCH  14  20
ENDBRANCH   1  19
BRANCH   8  28
ATOM     28  O   UNL     1      34.611 -13.988 -22.262  0.00  0.00    -0.429 OA
BRANCH  28  29
ATOM     29  C   UNL     1      33.490 -13.391 -21.722  0.00  0.00    +0.149 C 
ATOM     30  C   UNL     1      33.016 -12.190 -22.253  0.00  0.00    +0.052 C 
ATOM     31  C   UNL     1      32.830 -13.987 -20.648  0.00  0.00    +0.038 C 
ATOM     32  C   UNL     1      31.882 -11.587 -21.709  0.00  0.00    +0.054 C 
ATOM     33  C   UNL     1      31.222 -12.183 -20.635  0.00  0.00    +0.015 C 
ATOM     34  C   UNL     1      31.695 -13.383 -20.105  0.00  0.00    +0.004 C 
BRANCH  32  36
ATOM     35  O   UNL     1      32.608  -8.748 -21.053  0.00  0.00    -0.270 OA
ATOM     36  N   UNL     1      31.408 -10.387 -22.241  0.00  0.00    -0.280 N 
ATOM     37  C   UNL     1      31.784  -9.081 -21.896  0.00  0.00    +0.250 C 
ATOM     38  H   UNL     1      30.725 -10.468 -22.945  0.00  0.00    +0.155 HD
BRANCH  37  39
ATOM     39  C   UNL     1      31.042  -8.065 -22.698  0.00  0.00    +0.058 C 
ATOM     40  C   UNL     1      30.852  -6.832 -22.222  0.00  0.00    +0.005 C 
ENDBRANCH  37  39
ENDBRANCH  32  36
ENDBRANCH  28  29
ENDBRANCH   8  28
TORSDOF 6
ENDMDL
MODEL 4
REMARK VINA RESULT:     -11.9      4.253     10.402
REMARK  Name = 72734520
REMARK  6 active torsions:
REMARK  status: ('A' for Active; 'I' for Inactive)
REMARK    1  A    between atoms: N_1  and  C_19
REMARK    2  A    between atoms: C_8  and  O_28
REMARK    3  A    between atoms: C_14  and  N_20
REMARK    4  A    between atoms: O_28  and  C_29
REMARK    5  A    between atoms: C_32  and  N_36
REMARK    6  A    between atoms: C_37  and  C_39
REMARK                            x       y       z     vdW  Elec       q    Type
REMARK                         _______ _______ _______ _____ _____    ______ ____
ROOT
ATOM      1  N   UNL     1      36.263 -23.071 -17.219  0.00  0.00    -0.238 N 
ATOM      2  N   UNL     1      36.106 -24.325 -15.257  0.00  0.00    -0.316 NA
ATOM      3  N   UNL     1      34.316 -22.827 -15.950  0.00  0.00    -0.294 NA
ATOM      4  N   UNL     1      35.629 -25.466 -13.188  0.00  0.00    -0.289 N 
ATOM      5  C   UNL     1      35.519 -23.429 -16.078  0.00  0.00    +0.207 C 
ATOM      6  C   UNL     1      34.067 -24.060 -13.938  0.00  0.00    +0.181 C 
ATOM      7  C   UNL     1      35.321 -24.597 -14.201  0.00  0.00    +0.188 C 
ATOM      8  C   UNL     1      33.573 -23.144 -14.865  0.00  0.00    +0.281 C 
ATOM      9  C   UNL     1      33.617 -24.635 -12.721  0.00  0.00    +0.008 C 
ATOM     10  C   UNL     1      34.600 -25.496 -12.282  0.00  0.00    +0.060 C 
ATOM     11  H   UNL     1      37.134 -23.525 -17.284  0.00  0.00    +0.166 HD
ATOM     12  H   UNL     1      36.460 -25.989 -13.120  0.00  0.00    +0.154 HD
ENDROOT
BRANCH   1  19
ATOM     13  F   UNL     1      33.219 -21.151 -20.386  0.00  0.00    -0.203 F 
ATOM     14  C   UNL     1      35.488 -20.448 -20.409  0.00  0.00    +0.076 C 
ATOM     15  C   UNL     1      34.459 -21.229 -19.882  0.00  0.00    +0.155 C 
ATOM     16  C   UNL     1      36.774 -20.540 -19.877  0.00  0.00    +0.018 C 
ATOM     17  C   UNL     1      34.716 -22.099 -18.822  0.00  0.00    +0.046 C 
ATOM     18  C   UNL     1      37.031 -21.410 -18.818  0.00  0.00    +0.017 C 
ATOM     19  C   UNL     1      36.002 -22.190 -18.290  0.00  0.00    +0.061 C 
BRANCH  14  20
ATOM     20  N   UNL     1      35.233 -19.575 -21.472  0.00  0.00    -0.310 N 
ATOM     21  N   UNL     1      34.971 -17.777 -23.676  0.00  0.00    +0.388 N 
ATOM     22  C   UNL     1      35.683 -18.184 -21.344  0.00  0.00    +0.068 C 
ATOM     23  C   UNL     1      35.164 -20.096 -22.841  0.00  0.00    +0.068 C 
ATOM     24  C   UNL     1      34.902 -17.277 -22.297  0.00  0.00    -0.056 C 
ATOM     25  C   UNL     1      34.400 -19.127 -23.746  0.00  0.00    -0.056 C 
ATOM     26  C   UNL     1      34.267 -16.874 -24.586  0.00  0.00    -0.101 C 
ATOM     27  H   UNL     1      35.949 -17.819 -23.962  0.00  0.00    -0.080 HD
ENDBRANCH  14  20
ENDBRANCH   1  19
BRANCH   8  28
ATOM     28  O   UNL     1      32.347 -22.543 -14.722  0.00  0.00    -0.429 OA
BRANCH  28  29
ATOM     29  C   UNL     1      31.241 -23.253 -15.142  0.00  0.00    +0.149 C 
ATOM     30  C   UNL     1      30.202 -22.598 -15.803  0.00  0.00    +0.052 C 
ATOM     31  C   UNL     1      31.162 -24.626 -14.907  0.00  0.00    +0.038 C 
ATOM     32  C   UNL     1      29.084 -23.315 -16.229  0.00  0.00    +0.054 C 
ATOM     33  C   UNL     1      29.006 -24.688 -15.995  0.00  0.00    +0.015 C 
ATOM     34  C   UNL     1      30.045 -25.343 -15.335  0.00  0.00    +0.004 C 
BRANCH  32  36
ATOM     35  O   UNL     1      26.318 -22.617 -15.295  0.00  0.00    -0.270 OA
ATOM     36  N   UNL     1      28.045 -22.660 -16.892  0.00  0.00    -0.280 N 
ATOM     37  C   UNL     1      26.766 -22.357 -16.405  0.00  0.00    +0.250 C 
ATOM     38  H   UNL     1      28.235 -22.373 -17.814  0.00  0.00    +0.155 HD
BRANCH  37  39
ATOM     39  C   UNL     1      25.943 -21.645 -17.425  0.00  0.00    +0.058 C 
ATOM     40  C   UNL     1      25.909 -22.074 -18.690  0.00  0.00    +0.005 C 
ENDBRANCH  37  39
ENDBRANCH  32  36
ENDBRANCH  28  29
ENDBRANCH   8  28
TORSDOF 6
ENDMDL
MODEL 5
REMARK VINA RESULT:     -11.1      4.093     10.411
REMARK  Name = 72734520
REMARK  6 active torsions:
REMARK  status: ('A' for Active; 'I' for Inactive)
REMARK    1  A    between atoms: N_1  and  C_19
REMARK    2  A    between atoms: C_8  and  O_28
REMARK    3  A    between atoms: C_14  and  N_20
REMARK    4  A    between atoms: O_28  and  C_29
REMARK    5  A    between atoms: C_32  and  N_36
REMARK    6  A    between atoms: C_37  and  C_39
REMARK                            x       y       z     vdW  Elec       q    Type
REMARK                         _______ _______ _______ _____ _____    ______ ____
ROOT
ATOM      1  N   UNL     1      36.910 -21.577 -18.060  0.00  0.00    -0.238 N 
ATOM      2  N   UNL     1      37.051 -23.002 -16.216  0.00  0.00    -0.316 NA
ATOM      3  N   UNL     1      34.987 -22.776 -17.487  0.00  0.00    -0.294 NA
ATOM      4  N   UNL     1      36.858 -24.548 -14.376  0.00  0.00    -0.289 N 
ATOM      5  C   UNL     1      36.281 -22.505 -17.206  0.00  0.00    +0.207 C 
ATOM      6  C   UNL     1      35.034 -24.247 -15.626  0.00  0.00    +0.181 C 
ATOM      7  C   UNL     1      36.361 -23.872 -15.459  0.00  0.00    +0.188 C 
ATOM      8  C   UNL     1      34.348 -23.660 -16.688  0.00  0.00    +0.281 C 
ATOM      9  C   UNL     1      34.736 -25.182 -14.601  0.00  0.00    +0.008 C 
ATOM     10  C   UNL     1      35.877 -25.347 -13.846  0.00  0.00    +0.060 C 
ATOM     11  H   UNL     1      37.850 -21.401 -17.829  0.00  0.00    +0.166 HD
ATOM     12  H   UNL     1      37.776 -24.472 -14.031  0.00  0.00    +0.154 HD
ENDROOT
BRANCH   1  19
ATOM     13  F   UNL     1      37.746 -18.535 -21.667  0.00  0.00    -0.203 F 
ATOM     14  C   UNL     1      35.558 -19.420 -21.401  0.00  0.00    +0.076 C 
ATOM     15  C   UNL     1      36.890 -19.318 -20.997  0.00  0.00    +0.155 C 
ATOM     16  C   UNL     1      34.676 -20.237 -20.694  0.00  0.00    +0.018 C 
ATOM     17  C   UNL     1      37.339 -20.036 -19.888  0.00  0.00    +0.046 C 
ATOM     18  C   UNL     1      35.125 -20.954 -19.585  0.00  0.00    +0.017 C 
ATOM     19  C   UNL     1      36.456 -20.853 -19.182  0.00  0.00    +0.061 C 
BRANCH  14  20
ATOM     20  N   UNL     1      35.105 -18.701 -22.513  0.00  0.00    -0.310 N 
ATOM     21  N   UNL     1      34.428 -17.206 -24.850  0.00  0.00    +0.388 N 
ATOM     22  C   UNL     1      35.456 -17.278 -22.604  0.00  0.00    +0.068 C 
ATOM     23  C   UNL     1      34.906 -19.389 -23.792  0.00  0.00    +0.068 C 
ATOM     24  C   UNL     1      34.493 -16.546 -23.540  0.00  0.00    -0.056 C 
ATOM     25  C   UNL     1      33.961 -18.588 -24.691  0.00  0.00    -0.056 C 
ATOM     26  C   UNL     1      33.547 -16.466 -25.754  0.00  0.00    -0.101 C 
ATOM     27  H   UNL     1      35.363 -17.219 -25.258  0.00  0.00    -0.080 HD
ENDBRANCH  14  20
ENDBRANCH   1  19
BRANCH   8  28
ATOM     28  O   UNL     1      33.034 -23.947 -16.962  0.00  0.00    -0.429 OA
BRANCH  28  29
ATOM     29  C   UNL     1      32.105 -23.647 -15.986  0.00  0.00    +0.149 C 
ATOM     30  C   UNL     1      30.838 -23.188 -16.349  0.00  0.00    +0.052 C 
ATOM     31  C   UNL     1      32.431 -23.802 -14.639  0.00  0.00    +0.038 C 
ATOM     32  C   UNL     1      29.898 -22.885 -15.364  0.00  0.00    +0.054 C 
ATOM     33  C   UNL     1      30.224 -23.041 -14.017  0.00  0.00    +0.015 C 
ATOM     34  C   UNL     1      31.490 -23.501 -13.654  0.00  0.00    +0.004 C 
BRANCH  32  36
ATOM     35  O   UNL     1      27.845 -24.090 -17.195  0.00  0.00    -0.270 OA
ATOM     36  N   UNL     1      28.630 -22.427 -15.727  0.00  0.00    -0.280 N 
ATOM     37  C   UNL     1      27.708 -23.033 -16.590  0.00  0.00    +0.250 C 
ATOM     38  H   UNL     1      28.350 -21.574 -15.325  0.00  0.00    +0.155 HD
BRANCH  37  39
ATOM     39  C   UNL     1      26.461 -22.225 -16.718  0.00  0.00    +0.058 C 
ATOM     40  C   UNL     1      26.039 -21.812 -17.917  0.00  0.00    +0.005 C 
ENDBRANCH  37  39
ENDBRANCH  32  36
ENDBRANCH  28  29
ENDBRANCH   8  28
TORSDOF 6
ENDMDL
MODEL 6
REMARK VINA RESULT:      -9.9      7.264     12.537
REMARK  Name = 72734520
REMARK  6 active torsions:
REMARK  status: ('A' for Active; 'I' for Inactive)
REMARK    1  A    between atoms: N_1  and  C_19
REMARK    2  A    between atoms: C_8  and  O_28
REMARK    3  A    between atoms: C_14  and  N_20
REMARK    4  A    between atoms: O_28  and  C_29
REMARK    5  A    between atoms: C_32  and  N_36
REMARK    6  A    between atoms: C_37  and  C_39
REMARK                            x       y       z     vdW  Elec       q    Type
REMARK                         _______ _______ _______ _____ _____    ______ ____
ROOT
ATOM      1  N   UNL     1      32.133  -8.215 -21.933  0.00  0.00    -0.238 N 
ATOM      2  N   UNL     1      31.681  -5.925 -21.940  0.00  0.00    -0.316 NA
ATOM      3  N   UNL     1      32.493  -7.062 -23.934  0.00  0.00    -0.294 NA
ATOM      4  N   UNL     1      31.317  -3.567 -22.285  0.00  0.00    -0.289 N 
ATOM      5  C   UNL     1      32.099  -6.998 -22.642  0.00  0.00    +0.207 C 
ATOM      6  C   UNL     1      32.064  -4.730 -24.037  0.00  0.00    +0.181 C 
ATOM      7  C   UNL     1      31.687  -4.818 -22.702  0.00  0.00    +0.188 C 
ATOM      8  C   UNL     1      32.477  -5.914 -24.648  0.00  0.00    +0.281 C 
ATOM      9  C   UNL     1      31.910  -3.374 -24.422  0.00  0.00    +0.008 C 
ATOM     10  C   UNL     1      31.450  -2.681 -23.323  0.00  0.00    +0.060 C 
ATOM     11  H   UNL     1      31.841  -8.136 -20.996  0.00  0.00    +0.166 HD
ATOM     12  H   UNL     1      31.005  -3.338 -21.380  0.00  0.00    +0.154 HD
ENDROOT
BRANCH   1  19
ATOM     13  F   UNL     1      31.593 -12.961 -21.533  0.00  0.00    -0.203 F 
ATOM     14  C   UNL     1      33.228 -12.118 -23.034  0.00  0.00    +0.076 C 
ATOM     15  C   UNL     1      32.219 -11.917 -22.093  0.00  0.00    +0.155 C 
ATOM     16  C   UNL     1      33.874 -11.023 -23.609  0.00  0.00    +0.018 C 
ATOM     17  C   UNL     1      31.855 -10.620 -21.728  0.00  0.00    +0.046 C 
ATOM     18  C   UNL     1      33.510  -9.727 -23.244  0.00  0.00    +0.017 C 
ATOM     19  C   UNL     1      32.500  -9.526 -22.303  0.00  0.00    +0.061 C 
BRANCH  14  20
ATOM     20  N   UNL     1      33.597 -13.417 -23.402  0.00  0.00    -0.310 N 
ATOM     21  N   UNL     1      34.557 -15.963 -24.269  0.00  0.00    +0.388 N 
ATOM     22  C   UNL     1      33.608 -13.751 -24.831  0.00  0.00    +0.068 C 
ATOM     23  C   UNL     1      34.537 -14.171 -22.566  0.00  0.00    +0.068 C 
ATOM     24  C   UNL     1      33.512 -15.266 -25.030  0.00  0.00    -0.056 C 
ATOM     25  C   UNL     1      34.412 -15.672 -22.838  0.00  0.00    -0.056 C 
ATOM     26  C   UNL     1      34.490 -17.405 -24.509  0.00  0.00    -0.101 C 
ATOM     27  H   UNL     1      35.468 -15.631 -24.581  0.00  0.00    -0.080 HD
ENDBRANCH  14  20
ENDBRANCH   1  19
BRANCH   8  28
ATOM     28  O   UNL     1      32.873  -5.962 -25.961  0.00  0.00    -0.429 OA
BRANCH  28  29
ATOM     29  C   UNL     1      33.743  -4.983 -26.396  0.00  0.00    +0.149 C 
ATOM     30  C   UNL     1      35.119  -5.158 -26.248  0.00  0.00    +0.052 C 
ATOM     31  C   UNL     1      33.247  -3.819 -26.984  0.00  0.00    +0.038 C 
ATOM     32  C   UNL     1      35.999  -4.170 -26.689  0.00  0.00    +0.054 C 
ATOM     33  C   UNL     1      35.503  -3.006 -27.277  0.00  0.00    +0.015 C 
ATOM     34  C   UNL     1      34.127  -2.831 -27.425  0.00  0.00    +0.004 C 
BRANCH  32  36
ATOM     35  O   UNL     1      38.130  -4.639 -28.751  0.00  0.00    -0.270 OA
ATOM     36  N   UNL     1      37.376  -4.345 -26.542  0.00  0.00    -0.280 N 
ATOM     37  C   UNL     1      38.330  -4.562 -27.545  0.00  0.00    +0.250 C 
ATOM     38  H   UNL     1      37.718  -4.312 -25.620  0.00  0.00    +0.155 HD
BRANCH  37  39
ATOM     39  C   UNL     1      39.703  -4.701 -26.977  0.00  0.00    +0.058 C 
ATOM     40  C   UNL     1      39.971  -4.280 -25.738  0.00  0.00    +0.005 C 
ENDBRANCH  37  39
ENDBRANCH  32  36
ENDBRANCH  28  29
ENDBRANCH   8  28
TORSDOF 6
ENDMDL
MODEL 7
REMARK VINA RESULT:      -9.6      6.627     11.994
REMARK  Name = 72734520
REMARK  6 active torsions:
REMARK  status: ('A' for Active; 'I' for Inactive)
REMARK    1  A    between atoms: N_1  and  C_19
REMARK    2  A    between atoms: C_8  and  O_28
REMARK    3  A    between atoms: C_14  and  N_20
REMARK    4  A    between atoms: O_28  and  C_29
REMARK    5  A    between atoms: C_32  and  N_36
REMARK    6  A    between atoms: C_37  and  C_39
REMARK                            x       y       z     vdW  Elec       q    Type
REMARK                         _______ _______ _______ _____ _____    ______ ____
ROOT
ATOM      1  N   UNL     1      31.017  -8.838 -22.100  0.00  0.00    -0.238 N 
ATOM      2  N   UNL     1      30.489  -6.567 -22.185  0.00  0.00    -0.316 NA
ATOM      3  N   UNL     1      32.608  -7.407 -23.040  0.00  0.00    -0.294 NA
ATOM      4  N   UNL     1      30.260  -4.178 -22.423  0.00  0.00    -0.289 N 
ATOM      5  C   UNL     1      31.391  -7.530 -22.463  0.00  0.00    +0.207 C 
ATOM      6  C   UNL     1      32.160  -5.080 -23.169  0.00  0.00    +0.181 C 
ATOM      7  C   UNL     1      30.939  -5.359 -22.566  0.00  0.00    +0.188 C 
ATOM      8  C   UNL     1      33.004  -6.166 -23.402  0.00  0.00    +0.281 C 
ATOM      9  C   UNL     1      32.202  -3.680 -23.389  0.00  0.00    +0.008 C 
ATOM     10  C   UNL     1      31.019  -3.150 -22.920  0.00  0.00    +0.060 C 
ATOM     11  H   UNL     1      30.128  -8.895 -21.682  0.00  0.00    +0.166 HD
ATOM     12  H   UNL     1      29.365  -4.082 -22.024  0.00  0.00    +0.154 HD
ENDROOT
BRANCH   1  19
ATOM     13  F   UNL     1      34.429 -11.585 -24.047  0.00  0.00    -0.203 F 
ATOM     14  C   UNL     1      32.951 -12.551 -22.458  0.00  0.00    +0.076 C 
ATOM     15  C   UNL     1      33.391 -11.460 -23.208  0.00  0.00    +0.155 C 
ATOM     16  C   UNL     1      31.868 -12.408 -21.591  0.00  0.00    +0.018 C 
ATOM     17  C   UNL     1      32.749 -10.227 -23.089  0.00  0.00    +0.046 C 
ATOM     18  C   UNL     1      31.227 -11.176 -21.471  0.00  0.00    +0.017 C 
ATOM     19  C   UNL     1      31.667 -10.085 -22.220  0.00  0.00    +0.061 C 
BRANCH  14  20
ATOM     20  N   UNL     1      33.592 -13.789 -22.577  0.00  0.00    -0.310 N 
ATOM     21  N   UNL     1      35.111 -16.186 -22.897  0.00  0.00    +0.388 N 
ATOM     22  C   UNL     1      34.000 -14.228 -23.917  0.00  0.00    +0.068 C 
ATOM     23  C   UNL     1      34.406 -14.296 -21.468  0.00  0.00    +0.068 C 
ATOM     24  C   UNL     1      34.188 -15.747 -23.951  0.00  0.00    -0.056 C 
ATOM     25  C   UNL     1      34.582 -15.812 -21.581  0.00  0.00    -0.056 C 
ATOM     26  C   UNL     1      35.326 -17.631 -22.973  0.00  0.00    -0.101 C 
ATOM     27  H   UNL     1      36.010 -15.724 -23.034  0.00  0.00    -0.080 HD
ENDBRANCH  14  20
ENDBRANCH   1  19
BRANCH   8  28
ATOM     28  O   UNL     1      34.235  -6.025 -23.991  0.00  0.00    -0.429 OA
BRANCH  28  29
ATOM     29  C   UNL     1      34.268  -5.519 -25.274  0.00  0.00    +0.149 C 
ATOM     30  C   UNL     1      35.488  -5.178 -25.858  0.00  0.00    +0.052 C 
ATOM     31  C   UNL     1      33.082  -5.351 -25.989  0.00  0.00    +0.038 C 
ATOM     32  C   UNL     1      35.523  -4.668 -27.156  0.00  0.00    +0.054 C 
ATOM     33  C   UNL     1      34.337  -4.500 -27.870  0.00  0.00    +0.015 C 
ATOM     34  C   UNL     1      33.117  -4.842 -27.288  0.00  0.00    +0.004 C 
BRANCH  32  36
ATOM     35  O   UNL     1      37.420  -6.317 -28.798  0.00  0.00    -0.270 OA
ATOM     36  N   UNL     1      36.744  -4.328 -27.739  0.00  0.00    -0.280 N 
ATOM     37  C   UNL     1      37.594  -5.142 -28.501  0.00  0.00    +0.250 C 
ATOM     38  H   UNL     1      37.045  -3.401 -27.599  0.00  0.00    +0.155 HD
BRANCH  37  39
ATOM     39  C   UNL     1      38.810  -4.402 -28.947  0.00  0.00    +0.058 C 
ATOM     40  C   UNL     1      40.005  -4.679 -28.419  0.00  0.00    +0.005 C 
ENDBRANCH  37  39
ENDBRANCH  32  36
ENDBRANCH  28  29
ENDBRANCH   8  28
TORSDOF 6
ENDMDL
