MODEL 1
REMARK VINA RESULT:     -11.4      0.000      0.000
REMARK  Name = 42627755
REMARK  2 active torsions:
REMARK  status: ('A' for Active; 'I' for Inactive)
REMARK    1  A    between atoms: N_5  and  C_20
REMARK    2  A    between atoms: C_7  and  C_28
REMARK                            x       y       z     vdW  Elec       q    Type
REMARK                         _______ _______ _______ _____ _____    ______ ____
ROOT
ATOM      1  N   UNL     1      34.032 -22.157 -18.629  0.00  0.00    -0.239 N 
ATOM      2  N   UNL     1      34.444 -22.736 -17.489  0.00  0.00    -0.166 NA
ATOM      3  N   UNL     1      36.687 -23.054 -16.578  0.00  0.00    -0.271 N 
ATOM      4  N   UNL     1      35.271 -24.038 -14.936  0.00  0.00    -0.322 NA
ATOM      5  N   UNL     1      33.917 -25.017 -13.296  0.00  0.00    -0.247 N 
ATOM      6  N   UNL     1      36.234 -25.022 -12.959  0.00  0.00    -0.170 NA
ATOM      7  C   UNL     1      35.047 -21.670 -19.399  0.00  0.00    +0.045 C 
ATOM      8  C   UNL     1      36.204 -21.949 -18.713  0.00  0.00    +0.048 C 
ATOM      9  C   UNL     1      35.773 -22.607 -17.546  0.00  0.00    +0.152 C 
ATOM     10  C   UNL     1      36.519 -23.727 -15.344  0.00  0.00    +0.199 C 
ATOM     11  C   UNL     1      37.657 -24.026 -14.623  0.00  0.00    +0.070 C 
ATOM     12  C   UNL     1      35.203 -24.676 -13.752  0.00  0.00    +0.150 C 
ATOM     13  C   UNL     1      37.453 -24.681 -13.427  0.00  0.00    +0.116 C 
ATOM     14  H   UNL     1      33.083 -22.090 -18.885  0.00  0.00    +0.174 HD
ATOM     15  H   UNL     1      37.626 -22.863 -16.802  0.00  0.00    +0.156 HD
ATOM     16  H   UNL     1      33.915 -25.481 -12.427  0.00  0.00    +0.165 HD
ENDROOT
BRANCH   5  20
ATOM     17  N   UNL     1      30.632 -22.939 -16.346  0.00  0.00    -0.315 N 
ATOM     18  N   UNL     1      28.917 -24.115 -15.562  0.00  0.00    -0.315 N 
ATOM     19  C   UNL     1      31.156 -23.740 -15.366  0.00  0.00    +0.060 C 
ATOM     20  C   UNL     1      32.627 -24.823 -13.841  0.00  0.00    +0.059 C 
ATOM     21  C   UNL     1      30.066 -24.464 -14.891  0.00  0.00    +0.059 C 
ATOM     22  C   UNL     1      32.451 -23.889 -14.868  0.00  0.00    +0.031 C 
ATOM     23  C   UNL     1      31.554 -25.565 -13.344  0.00  0.00    +0.017 C 
ATOM     24  C   UNL     1      30.262 -25.398 -13.859  0.00  0.00    +0.017 C 
ATOM     25  C   UNL     1      29.291 -23.198 -16.426  0.00  0.00    +0.182 C 
ATOM     26  H   UNL     1      31.130 -22.291 -16.896  0.00  0.00    +0.148 HD
ATOM     27  H   UNL     1      28.010 -24.473 -15.424  0.00  0.00    +0.148 HD
ENDBRANCH   5  20
BRANCH   7  28
ATOM     28  C   UNL     1      34.914 -20.963 -20.741  0.00  0.00    +0.037 C 
ATOM     29  C   UNL     1      35.734 -19.732 -20.992  0.00  0.00    +0.006 C 
ATOM     30  C   UNL     1      34.252 -19.617 -20.784  0.00  0.00    +0.006 C 
ENDBRANCH   7  28
TORSDOF 2
ENDMDL
MODEL 2
REMARK VINA RESULT:     -11.3      1.712      5.481
REMARK  Name = 42627755
REMARK  2 active torsions:
REMARK  status: ('A' for Active; 'I' for Inactive)
REMARK    1  A    between atoms: N_5  and  C_20
REMARK    2  A    between atoms: C_7  and  C_28
REMARK                            x       y       z     vdW  Elec       q    Type
REMARK                         _______ _______ _______ _____ _____    ______ ____
ROOT
ATOM      1  N   UNL     1      35.369 -22.030 -18.834  0.00  0.00    -0.239 N 
ATOM      2  N   UNL     1      34.723 -22.633 -17.823  0.00  0.00    -0.166 NA
ATOM      3  N   UNL     1      32.339 -22.794 -17.320  0.00  0.00    -0.271 N 
ATOM      4  N   UNL     1      33.369 -23.999 -15.543  0.00  0.00    -0.322 NA
ATOM      5  N   UNL     1      34.339 -25.194 -13.778  0.00  0.00    -0.247 N 
ATOM      6  N   UNL     1      32.006 -25.004 -13.829  0.00  0.00    -0.170 NA
ATOM      7  C   UNL     1      34.544 -21.406 -19.722  0.00  0.00    +0.045 C 
ATOM      8  C   UNL     1      33.268 -21.616 -19.259  0.00  0.00    +0.048 C 
ATOM      9  C   UNL     1      33.438 -22.376 -18.087  0.00  0.00    +0.152 C 
ATOM     10  C   UNL     1      32.238 -23.550 -16.126  0.00  0.00    +0.199 C 
ATOM     11  C   UNL     1      30.974 -23.784 -15.628  0.00  0.00    +0.070 C 
ATOM     12  C   UNL     1      33.182 -24.710 -14.414  0.00  0.00    +0.150 C 
ATOM     13  C   UNL     1      30.917 -24.523 -14.464  0.00  0.00    +0.116 C 
ATOM     14  H   UNL     1      36.350 -22.039 -18.927  0.00  0.00    +0.174 HD
ATOM     15  H   UNL     1      31.471 -22.505 -17.681  0.00  0.00    +0.156 HD
ATOM     16  H   UNL     1      34.155 -25.706 -12.958  0.00  0.00    +0.165 HD
ENDROOT
BRANCH   5  20
ATOM     17  N   UNL     1      38.998 -26.827 -13.995  0.00  0.00    -0.315 N 
ATOM     18  N   UNL     1      39.779 -24.964 -14.923  0.00  0.00    -0.315 N 
ATOM     19  C   UNL     1      37.912 -26.002 -14.129  0.00  0.00    +0.060 C 
ATOM     20  C   UNL     1      35.715 -25.089 -14.087  0.00  0.00    +0.059 C 
ATOM     21  C   UNL     1      38.424 -24.846 -14.711  0.00  0.00    +0.059 C 
ATOM     22  C   UNL     1      36.565 -26.163 -13.802  0.00  0.00    +0.031 C 
ATOM     23  C   UNL     1      36.199 -23.916 -14.670  0.00  0.00    +0.017 C 
ATOM     24  C   UNL     1      37.556 -23.777 -14.990  0.00  0.00    +0.017 C 
ATOM     25  C   UNL     1      40.090 -26.162 -14.482  0.00  0.00    +0.182 C 
ATOM     26  H   UNL     1      38.994 -27.735 -13.615  0.00  0.00    +0.148 HD
ATOM     27  H   UNL     1      40.383 -24.295 -15.319  0.00  0.00    +0.148 HD
ENDBRANCH   5  20
BRANCH   7  28
ATOM     28  C   UNL     1      34.960 -20.636 -20.968  0.00  0.00    +0.037 C 
ATOM     29  C   UNL     1      36.120 -19.688 -20.877  0.00  0.00    +0.006 C 
ATOM     30  C   UNL     1      34.724 -19.154 -21.013  0.00  0.00    +0.006 C 
ENDBRANCH   7  28
TORSDOF 2
ENDMDL
MODEL 3
REMARK VINA RESULT:     -10.9      1.483      6.245
REMARK  Name = 42627755
REMARK  2 active torsions:
REMARK  status: ('A' for Active; 'I' for Inactive)
REMARK    1  A    between atoms: N_5  and  C_20
REMARK    2  A    between atoms: C_7  and  C_28
REMARK                            x       y       z     vdW  Elec       q    Type
REMARK                         _______ _______ _______ _____ _____    ______ ____
ROOT
ATOM      1  N   UNL     1      30.795 -23.268 -16.522  0.00  0.00    -0.239 N 
ATOM      2  N   UNL     1      32.098 -23.401 -16.225  0.00  0.00    -0.166 NA
ATOM      3  N   UNL     1      33.207 -24.507 -14.352  0.00  0.00    -0.271 N 
ATOM      4  N   UNL     1      35.013 -23.651 -15.645  0.00  0.00    -0.322 NA
ATOM      5  N   UNL     1      36.821 -22.827 -16.886  0.00  0.00    -0.247 N 
ATOM      6  N   UNL     1      37.283 -24.012 -14.920  0.00  0.00    -0.170 NA
ATOM      7  C   UNL     1      29.961 -23.851 -15.614  0.00  0.00    +0.045 C 
ATOM      8  C   UNL     1      30.777 -24.406 -14.658  0.00  0.00    +0.048 C 
ATOM      9  C   UNL     1      32.081 -24.097 -15.085  0.00  0.00    +0.152 C 
ATOM     10  C   UNL     1      34.597 -24.330 -14.557  0.00  0.00    +0.199 C 
ATOM     11  C   UNL     1      35.451 -24.873 -13.620  0.00  0.00    +0.070 C 
ATOM     12  C   UNL     1      36.350 -23.531 -15.763  0.00  0.00    +0.150 C 
ATOM     13  C   UNL     1      36.797 -24.681 -13.854  0.00  0.00    +0.116 C 
ATOM     14  H   UNL     1      30.471 -22.792 -17.321  0.00  0.00    +0.174 HD
ATOM     15  H   UNL     1      32.987 -25.013 -13.538  0.00  0.00    +0.156 HD
ATOM     16  H   UNL     1      37.802 -22.764 -16.931  0.00  0.00    +0.165 HD
ENDROOT
BRANCH   5  20
ATOM     17  N   UNL     1      36.495 -19.706 -20.704  0.00  0.00    -0.315 N 
ATOM     18  N   UNL     1      34.383 -20.227 -21.158  0.00  0.00    -0.315 N 
ATOM     19  C   UNL     1      36.144 -20.650 -19.775  0.00  0.00    +0.060 C 
ATOM     20  C   UNL     1      36.159 -22.192 -17.963  0.00  0.00    +0.059 C 
ATOM     21  C   UNL     1      34.822 -20.960 -20.079  0.00  0.00    +0.059 C 
ATOM     22  C   UNL     1      36.847 -21.243 -18.726  0.00  0.00    +0.031 C 
ATOM     23  C   UNL     1      34.833 -22.524 -18.243  0.00  0.00    +0.017 C 
ATOM     24  C   UNL     1      34.145 -21.916 -19.302  0.00  0.00    +0.017 C 
ATOM     25  C   UNL     1      35.410 -19.486 -21.507  0.00  0.00    +0.182 C 
ATOM     26  H   UNL     1      37.372 -19.264 -20.779  0.00  0.00    +0.148 HD
ATOM     27  H   UNL     1      33.493 -20.253 -21.578  0.00  0.00    +0.148 HD
ENDBRANCH   5  20
BRANCH   7  28
ATOM     28  C   UNL     1      28.439 -23.877 -15.660  0.00  0.00    +0.037 C 
ATOM     29  C   UNL     1      27.739 -23.169 -16.782  0.00  0.00    +0.006 C 
ATOM     30  C   UNL     1      27.688 -22.605 -15.392  0.00  0.00    +0.006 C 
ENDBRANCH   7  28
TORSDOF 2
ENDMDL
MODEL 4
REMARK VINA RESULT:     -10.8      1.768      6.599
REMARK  Name = 42627755
REMARK  2 active torsions:
REMARK  status: ('A' for Active; 'I' for Inactive)
REMARK    1  A    between atoms: N_5  and  C_20
REMARK    2  A    between atoms: C_7  and  C_28
REMARK                            x       y       z     vdW  Elec       q    Type
REMARK                         _______ _______ _______ _____ _____    ______ ____
ROOT
ATOM      1  N   UNL     1      37.415 -24.339 -15.107  0.00  0.00    -0.239 N 
ATOM      2  N   UNL     1      36.083 -24.234 -15.245  0.00  0.00    -0.166 NA
ATOM      3  N   UNL     1      34.259 -25.095 -13.870  0.00  0.00    -0.271 N 
ATOM      4  N   UNL     1      33.139 -23.947 -15.630  0.00  0.00    -0.322 NA
ATOM      5  N   UNL     1      31.996 -22.830 -17.342  0.00  0.00    -0.247 N 
ATOM      6  N   UNL     1      30.731 -23.885 -15.678  0.00  0.00    -0.170 NA
ATOM      7  C   UNL     1      37.800 -25.052 -14.009  0.00  0.00    +0.045 C 
ATOM      8  C   UNL     1      36.638 -25.438 -13.387  0.00  0.00    +0.048 C 
ATOM      9  C   UNL     1      35.613 -24.908 -14.192  0.00  0.00    +0.152 C 
ATOM     10  C   UNL     1      33.061 -24.676 -14.497  0.00  0.00    +0.199 C 
ATOM     11  C   UNL     1      31.871 -25.043 -13.904  0.00  0.00    +0.070 C 
ATOM     12  C   UNL     1      31.953 -23.590 -16.160  0.00  0.00    +0.150 C 
ATOM     13  C   UNL     1      30.726 -24.616 -14.544  0.00  0.00    +0.116 C 
ATOM     14  H   UNL     1      38.055 -23.939 -15.739  0.00  0.00    +0.174 HD
ATOM     15  H   UNL     1      34.115 -25.620 -13.051  0.00  0.00    +0.156 HD
ATOM     16  H   UNL     1      31.108 -22.592 -17.692  0.00  0.00    +0.165 HD
ENDROOT
BRANCH   5  20
ATOM     17  N   UNL     1      34.013 -20.071 -20.911  0.00  0.00    -0.315 N 
ATOM     18  N   UNL     1      36.080 -20.790 -20.522  0.00  0.00    -0.315 N 
ATOM     19  C   UNL     1      33.902 -20.959 -19.874  0.00  0.00    +0.060 C 
ATOM     20  C   UNL     1      33.067 -22.340 -18.124  0.00  0.00    +0.059 C 
ATOM     21  C   UNL     1      35.205 -21.395 -19.649  0.00  0.00    +0.059 C 
ATOM     22  C   UNL     1      32.807 -21.407 -19.134  0.00  0.00    +0.031 C 
ATOM     23  C   UNL     1      34.363 -22.795 -17.875  0.00  0.00    +0.017 C 
ATOM     24  C   UNL     1      35.448 -22.332 -18.630  0.00  0.00    +0.017 C 
ATOM     25  C   UNL     1      35.333 -20.004 -21.264  0.00  0.00    +0.182 C 
ATOM     26  H   UNL     1      33.276 -19.570 -21.328  0.00  0.00    +0.148 HD
ATOM     27  H   UNL     1      37.055 -20.919 -20.578  0.00  0.00    +0.148 HD
ENDBRANCH   5  20
BRANCH   7  28
ATOM     28  C   UNL     1      39.227 -25.353 -13.573  0.00  0.00    +0.037 C 
ATOM     29  C   UNL     1      40.309 -25.380 -14.612  0.00  0.00    +0.006 C 
ATOM     30  C   UNL     1      39.845 -26.660 -13.979  0.00  0.00    +0.006 C 
ENDBRANCH   7  28
TORSDOF 2
ENDMDL
MODEL 5
REMARK VINA RESULT:     -10.2      1.767      6.502
REMARK  Name = 42627755
REMARK  2 active torsions:
REMARK  status: ('A' for Active; 'I' for Inactive)
REMARK    1  A    between atoms: N_5  and  C_20
REMARK    2  A    between atoms: C_7  and  C_28
REMARK                            x       y       z     vdW  Elec       q    Type
REMARK                         _______ _______ _______ _____ _____    ______ ____
ROOT
ATOM      1  N   UNL     1      37.438 -24.467 -14.961  0.00  0.00    -0.239 N 
ATOM      2  N   UNL     1      36.097 -24.405 -15.010  0.00  0.00    -0.166 NA
ATOM      3  N   UNL     1      34.399 -25.328 -13.519  0.00  0.00    -0.271 N 
ATOM      4  N   UNL     1      33.127 -24.214 -15.195  0.00  0.00    -0.322 NA
ATOM      5  N   UNL     1      31.835 -23.132 -16.821  0.00  0.00    -0.247 N 
ATOM      6  N   UNL     1      30.720 -24.231 -15.081  0.00  0.00    -0.170 NA
ATOM      7  C   UNL     1      37.920 -25.169 -13.895  0.00  0.00    +0.045 C 
ATOM      8  C   UNL     1      36.815 -25.594 -13.197  0.00  0.00    +0.048 C 
ATOM      9  C   UNL     1      35.722 -25.096 -13.930  0.00  0.00    +0.152 C 
ATOM     10  C   UNL     1      33.148 -24.948 -14.062  0.00  0.00    +0.199 C 
ATOM     11  C   UNL     1      32.014 -25.354 -13.391  0.00  0.00    +0.070 C 
ATOM     12  C   UNL     1      31.896 -23.895 -15.642  0.00  0.00    +0.150 C 
ATOM     13  C   UNL     1      30.815 -24.964 -13.952  0.00  0.00    +0.116 C 
ATOM     14  H   UNL     1      38.021 -24.045 -15.633  0.00  0.00    +0.174 HD
ATOM     15  H   UNL     1      34.328 -25.859 -12.694  0.00  0.00    +0.156 HD
ATOM     16  H   UNL     1      30.918 -22.922 -17.110  0.00  0.00    +0.165 HD
ENDROOT
BRANCH   5  20
ATOM     17  N   UNL     1      36.490 -22.390 -18.306  0.00  0.00    -0.315 N 
ATOM     18  N   UNL     1      35.906 -21.145 -20.052  0.00  0.00    -0.315 N 
ATOM     19  C   UNL     1      35.122 -22.330 -18.271  0.00  0.00    +0.060 C 
ATOM     20  C   UNL     1      32.835 -22.605 -17.672  0.00  0.00    +0.059 C 
ATOM     21  C   UNL     1      34.780 -21.548 -19.370  0.00  0.00    +0.059 C 
ATOM     22  C   UNL     1      34.180 -22.876 -17.398  0.00  0.00    +0.031 C 
ATOM     23  C   UNL     1      32.462 -21.824 -18.767  0.00  0.00    +0.017 C 
ATOM     24  C   UNL     1      33.424 -21.286 -19.631  0.00  0.00    +0.017 C 
ATOM     25  C   UNL     1      36.912 -21.666 -19.387  0.00  0.00    +0.182 C 
ATOM     26  H   UNL     1      37.067 -22.867 -17.667  0.00  0.00    +0.148 HD
ATOM     27  H   UNL     1      35.948 -20.588 -20.863  0.00  0.00    +0.148 HD
ENDBRANCH   5  20
BRANCH   7  28
ATOM     28  C   UNL     1      39.382 -25.423 -13.557  0.00  0.00    +0.037 C 
ATOM     29  C   UNL     1      40.394 -25.396 -14.664  0.00  0.00    +0.006 C 
ATOM     30  C   UNL     1      40.018 -26.701 -14.023  0.00  0.00    +0.006 C 
ENDBRANCH   7  28
TORSDOF 2
ENDMDL
MODEL 6
REMARK VINA RESULT:      -9.4      6.904     11.822
REMARK  Name = 42627755
REMARK  2 active torsions:
REMARK  status: ('A' for Active; 'I' for Inactive)
REMARK    1  A    between atoms: N_5  and  C_20
REMARK    2  A    between atoms: C_7  and  C_28
REMARK                            x       y       z     vdW  Elec       q    Type
REMARK                         _______ _______ _______ _____ _____    ______ ____
ROOT
ATOM      1  N   UNL     1      32.619 -13.851 -20.152  0.00  0.00    -0.239 N 
ATOM      2  N   UNL     1      32.920 -14.219 -21.408  0.00  0.00    -0.166 NA
ATOM      3  N   UNL     1      32.534 -13.092 -23.539  0.00  0.00    -0.271 N 
ATOM      4  N   UNL     1      33.625 -15.114 -24.165  0.00  0.00    -0.322 NA
ATOM      5  N   UNL     1      34.696 -17.089 -24.825  0.00  0.00    -0.247 N 
ATOM      6  N   UNL     1      34.066 -15.567 -26.490  0.00  0.00    -0.170 NA
ATOM      7  C   UNL     1      31.992 -12.643 -20.066  0.00  0.00    +0.045 C 
ATOM      8  C   UNL     1      31.875 -12.189 -21.357  0.00  0.00    +0.048 C 
ATOM      9  C   UNL     1      32.462 -13.200 -22.141  0.00  0.00    +0.152 C 
ATOM     10  C   UNL     1      33.060 -13.946 -24.538  0.00  0.00    +0.199 C 
ATOM     11  C   UNL     1      32.964 -13.527 -25.849  0.00  0.00    +0.070 C 
ATOM     12  C   UNL     1      34.101 -15.864 -25.178  0.00  0.00    +0.150 C 
ATOM     13  C   UNL     1      33.487 -14.386 -26.792  0.00  0.00    +0.116 C 
ATOM     14  H   UNL     1      32.833 -14.403 -19.364  0.00  0.00    +0.174 HD
ATOM     15  H   UNL     1      32.141 -12.262 -23.893  0.00  0.00    +0.156 HD
ATOM     16  H   UNL     1      35.029 -17.603 -25.596  0.00  0.00    +0.165 HD
ENDROOT
BRANCH   5  20
ATOM     17  N   UNL     1      34.847 -20.967 -21.766  0.00  0.00    -0.315 N 
ATOM     18  N   UNL     1      35.487 -19.763 -20.011  0.00  0.00    -0.315 N 
ATOM     19  C   UNL     1      34.939 -19.678 -22.221  0.00  0.00    +0.060 C 
ATOM     20  C   UNL     1      34.910 -17.725 -23.580  0.00  0.00    +0.059 C 
ATOM     21  C   UNL     1      35.340 -18.945 -21.108  0.00  0.00    +0.059 C 
ATOM     22  C   UNL     1      34.713 -19.106 -23.474  0.00  0.00    +0.031 C 
ATOM     23  C   UNL     1      35.312 -16.963 -22.482  0.00  0.00    +0.017 C 
ATOM     24  C   UNL     1      35.533 -17.559 -21.233  0.00  0.00    +0.017 C 
ATOM     25  C   UNL     1      35.183 -20.967 -20.440  0.00  0.00    +0.182 C 
ATOM     26  H   UNL     1      34.585 -21.753 -22.297  0.00  0.00    +0.148 HD
ATOM     27  H   UNL     1      35.761 -19.502 -19.102  0.00  0.00    +0.148 HD
ENDBRANCH   5  20
BRANCH   7  28
ATOM     28  C   UNL     1      31.522 -11.949 -18.795  0.00  0.00    +0.037 C 
ATOM     29  C   UNL     1      30.464 -10.890 -18.901  0.00  0.00    +0.006 C 
ATOM     30  C   UNL     1      31.881 -10.506 -18.587  0.00  0.00    +0.006 C 
ENDBRANCH   7  28
TORSDOF 2
ENDMDL
MODEL 7
REMARK VINA RESULT:      -9.2      1.688      2.748
REMARK  Name = 42627755
REMARK  2 active torsions:
REMARK  status: ('A' for Active; 'I' for Inactive)
REMARK    1  A    between atoms: N_5  and  C_20
REMARK    2  A    between atoms: C_7  and  C_28
REMARK                            x       y       z     vdW  Elec       q    Type
REMARK                         _______ _______ _______ _____ _____    ______ ____
ROOT
ATOM      1  N   UNL     1      32.902 -21.665 -19.201  0.00  0.00    -0.239 N 
ATOM      2  N   UNL     1      32.908 -22.338 -18.039  0.00  0.00    -0.166 NA
ATOM      3  N   UNL     1      34.759 -23.204 -16.703  0.00  0.00    -0.271 N 
ATOM      4  N   UNL     1      32.828 -23.828 -15.456  0.00  0.00    -0.322 NA
ATOM      5  N   UNL     1      30.957 -24.461 -14.198  0.00  0.00    -0.247 N 
ATOM      6  N   UNL     1      33.077 -25.037 -13.387  0.00  0.00    -0.170 NA
ATOM      7  C   UNL     1      34.146 -21.434 -19.711  0.00  0.00    +0.045 C 
ATOM      8  C   UNL     1      35.027 -21.995 -18.818  0.00  0.00    +0.048 C 
ATOM      9  C   UNL     1      34.209 -22.538 -17.810  0.00  0.00    +0.152 C 
ATOM     10  C   UNL     1      34.172 -23.828 -15.575  0.00  0.00    +0.199 C 
ATOM     11  C   UNL     1      35.022 -24.404 -14.653  0.00  0.00    +0.070 C 
ATOM     12  C   UNL     1      32.355 -24.441 -14.354  0.00  0.00    +0.150 C 
ATOM     13  C   UNL     1      34.413 -25.001 -13.569  0.00  0.00    +0.116 C 
ATOM     14  H   UNL     1      32.076 -21.365 -19.645  0.00  0.00    +0.174 HD
ATOM     15  H   UNL     1      35.741 -23.247 -16.714  0.00  0.00    +0.156 HD
ATOM     16  H   UNL     1      30.657 -24.919 -13.380  0.00  0.00    +0.165 HD
ENDROOT
BRANCH   5  20
ATOM     17  N   UNL     1      26.565 -22.314 -14.917  0.00  0.00    -0.315 N 
ATOM     18  N   UNL     1      26.701 -22.407 -17.133  0.00  0.00    -0.315 N 
ATOM     19  C   UNL     1      27.770 -22.909 -15.184  0.00  0.00    +0.060 C 
ATOM     20  C   UNL     1      29.900 -23.951 -14.987  0.00  0.00    +0.059 C 
ATOM     21  C   UNL     1      27.832 -22.956 -16.574  0.00  0.00    +0.059 C 
ATOM     22  C   UNL     1      28.781 -23.396 -14.356  0.00  0.00    +0.031 C 
ATOM     23  C   UNL     1      29.991 -24.012 -16.378  0.00  0.00    +0.017 C 
ATOM     24  C   UNL     1      28.963 -23.517 -17.191  0.00  0.00    +0.017 C 
ATOM     25  C   UNL     1      25.963 -22.034 -16.113  0.00  0.00    +0.182 C 
ATOM     26  H   UNL     1      26.197 -22.123 -14.024  0.00  0.00    +0.148 HD
ATOM     27  H   UNL     1      26.490 -22.315 -18.091  0.00  0.00    +0.148 HD
ENDBRANCH   5  20
BRANCH   7  28
ATOM     28  C   UNL     1      34.480 -20.703 -21.004  0.00  0.00    +0.037 C 
ATOM     29  C   UNL     1      35.770 -19.943 -21.091  0.00  0.00    +0.006 C 
ATOM     30  C   UNL     1      34.467 -19.202 -21.008  0.00  0.00    +0.006 C 
ENDBRANCH   7  28
TORSDOF 2
ENDMDL
MODEL 8
REMARK VINA RESULT:      -8.9     12.033     15.767
REMARK  Name = 42627755
REMARK  2 active torsions:
REMARK  status: ('A' for Active; 'I' for Inactive)
REMARK    1  A    between atoms: N_5  and  C_20
REMARK    2  A    between atoms: C_7  and  C_28
REMARK                            x       y       z     vdW  Elec       q    Type
REMARK                         _______ _______ _______ _____ _____    ______ ____
ROOT
ATOM      1  N   UNL     1      33.597 -12.435 -24.380  0.00  0.00    -0.239 N 
ATOM      2  N   UNL     1      33.161 -11.852 -23.251  0.00  0.00    -0.166 NA
ATOM      3  N   UNL     1      32.331 -12.821 -21.169  0.00  0.00    -0.271 N 
ATOM      4  N   UNL     1      32.209 -10.474 -20.782  0.00  0.00    -0.322 NA
ATOM      5  N   UNL     1      32.071  -8.175 -20.359  0.00  0.00    -0.247 N 
ATOM      6  N   UNL     1      31.391  -9.649 -18.672  0.00  0.00    -0.170 NA
ATOM      7  C   UNL     1      33.565 -13.798 -24.344  0.00  0.00    +0.045 C 
ATOM      8  C   UNL     1      33.074 -14.129 -23.105  0.00  0.00    +0.048 C 
ATOM      9  C   UNL     1      32.842 -12.892 -22.475  0.00  0.00    +0.152 C 
ATOM     10  C   UNL     1      32.013 -11.729 -20.325  0.00  0.00    +0.199 C 
ATOM     11  C   UNL     1      31.517 -12.018 -19.071  0.00  0.00    +0.070 C 
ATOM     12  C   UNL     1      31.881  -9.496 -19.916  0.00  0.00    +0.150 C 
ATOM     13  C   UNL     1      31.219 -10.929 -18.279  0.00  0.00    +0.116 C 
ATOM     14  H   UNL     1      33.912 -11.925 -25.161  0.00  0.00    +0.174 HD
ATOM     15  H   UNL     1      32.161 -13.700 -20.762  0.00  0.00    +0.156 HD
ATOM     16  H   UNL     1      31.820  -7.495 -19.694  0.00  0.00    +0.165 HD
ENDROOT
BRANCH   5  20
ATOM     17  N   UNL     1      32.246  -4.835 -23.996  0.00  0.00    -0.315 N 
ATOM     18  N   UNL     1      33.846  -5.898 -25.114  0.00  0.00    -0.315 N 
ATOM     19  C   UNL     1      32.532  -5.950 -23.254  0.00  0.00    +0.060 C 
ATOM     20  C   UNL     1      32.555  -7.634 -21.573  0.00  0.00    +0.059 C 
ATOM     21  C   UNL     1      33.533  -6.598 -23.972  0.00  0.00    +0.059 C 
ATOM     22  C   UNL     1      32.016  -6.436 -22.052  0.00  0.00    +0.031 C 
ATOM     23  C   UNL     1      33.560  -8.307 -22.270  0.00  0.00    +0.017 C 
ATOM     24  C   UNL     1      34.063  -7.801 -23.476  0.00  0.00    +0.017 C 
ATOM     25  C   UNL     1      33.056  -4.848 -25.098  0.00  0.00    +0.182 C 
ATOM     26  H   UNL     1      31.577  -4.146 -23.777  0.00  0.00    +0.148 HD
ATOM     27  H   UNL     1      34.517  -6.132 -25.796  0.00  0.00    +0.148 HD
ENDBRANCH   5  20
BRANCH   7  28
ATOM     28  C   UNL     1      33.989 -14.749 -25.456  0.00  0.00    +0.037 C 
ATOM     29  C   UNL     1      33.066 -15.868 -25.838  0.00  0.00    +0.006 C 
ATOM     30  C   UNL     1      34.339 -16.164 -25.099  0.00  0.00    +0.006 C 
ENDBRANCH   7  28
TORSDOF 2
ENDMDL
MODEL 9
REMARK VINA RESULT:      -8.5     12.208     15.277
REMARK  Name = 42627755
REMARK  2 active torsions:
REMARK  status: ('A' for Active; 'I' for Inactive)
REMARK    1  A    between atoms: N_5  and  C_20
REMARK    2  A    between atoms: C_7  and  C_28
REMARK                            x       y       z     vdW  Elec       q    Type
REMARK                         _______ _______ _______ _____ _____    ______ ____
ROOT
ATOM      1  N   UNL     1      33.058  -7.646 -23.873  0.00  0.00    -0.239 N 
ATOM      2  N   UNL     1      32.773  -8.579 -22.950  0.00  0.00    -0.166 NA
ATOM      3  N   UNL     1      31.993  -8.361 -20.647  0.00  0.00    -0.271 N 
ATOM      4  N   UNL     1      32.161 -10.716 -20.961  0.00  0.00    -0.322 NA
ATOM      5  N   UNL     1      32.313 -13.038 -21.226  0.00  0.00    -0.247 N 
ATOM      6  N   UNL     1      31.594 -12.209 -19.157  0.00  0.00    -0.170 NA
ATOM      7  C   UNL     1      32.879  -6.366 -23.438  0.00  0.00    +0.045 C 
ATOM      8  C   UNL     1      32.445  -6.469 -22.139  0.00  0.00    +0.048 C 
ATOM      9  C   UNL     1      32.399  -7.854 -21.891  0.00  0.00    +0.152 C 
ATOM     10  C   UNL     1      31.861  -9.681 -20.149  0.00  0.00    +0.199 C 
ATOM     11  C   UNL     1      31.427  -9.829 -18.848  0.00  0.00    +0.070 C 
ATOM     12  C   UNL     1      32.008 -11.935 -20.408  0.00  0.00    +0.150 C 
ATOM     13  C   UNL     1      31.312 -11.128 -18.400  0.00  0.00    +0.116 C 
ATOM     14  H   UNL     1      33.369  -7.866 -24.782  0.00  0.00    +0.174 HD
ATOM     15  H   UNL     1      31.754  -7.665 -19.994  0.00  0.00    +0.156 HD
ATOM     16  H   UNL     1      32.186 -13.907 -20.781  0.00  0.00    +0.165 HD
ENDROOT
BRANCH   5  20
ATOM     17  N   UNL     1      32.883 -15.310 -25.577  0.00  0.00    -0.315 N 
ATOM     18  N   UNL     1      34.011 -13.628 -26.491  0.00  0.00    -0.315 N 
ATOM     19  C   UNL     1      32.964 -14.352 -24.601  0.00  0.00    +0.060 C 
ATOM     20  C   UNL     1      32.764 -13.141 -22.562  0.00  0.00    +0.059 C 
ATOM     21  C   UNL     1      33.672 -13.312 -25.195  0.00  0.00    +0.059 C 
ATOM     22  C   UNL     1      32.494 -14.306 -23.288  0.00  0.00    +0.031 C 
ATOM     23  C   UNL     1      33.472 -12.081 -23.130  0.00  0.00    +0.017 C 
ATOM     24  C   UNL     1      33.935 -12.149 -24.451  0.00  0.00    +0.017 C 
ATOM     25  C   UNL     1      33.523 -14.832 -26.686  0.00  0.00    +0.182 C 
ATOM     26  H   UNL     1      32.443 -16.187 -25.494  0.00  0.00    +0.148 HD
ATOM     27  H   UNL     1      34.510 -13.072 -27.132  0.00  0.00    +0.148 HD
ENDBRANCH   5  20
BRANCH   7  28
ATOM     28  C   UNL     1      33.114  -5.090 -24.236  0.00  0.00    +0.037 C 
ATOM     29  C   UNL     1      32.763  -5.077 -25.694  0.00  0.00    +0.006 C 
ATOM     30  C   UNL     1      34.202  -5.078 -25.270  0.00  0.00    +0.006 C 
ENDBRANCH   7  28
TORSDOF 2
ENDMDL
