MODEL 1
REMARK VINA RESULT:     -11.4      0.000      0.000
REMARK  Name = 24941243
REMARK  5 active torsions:
REMARK  status: ('A' for Active; 'I' for Inactive)
REMARK    1  A    between atoms: N_1  and  C_14
REMARK    2  A    between atoms: N_2  and  C_22
REMARK    3  A    between atoms: C_25  and  O_28
REMARK    4  A    between atoms: C_26  and  O_30
REMARK    5  A    between atoms: C_27  and  O_32
REMARK                            x       y       z     vdW  Elec       q    Type
REMARK                         _______ _______ _______ _____ _____    ______ ____
ROOT
ATOM      1  N   UNL     1      36.314 -19.082 -21.621  0.00  0.00    -0.260 N 
ATOM      2  N   UNL     1      36.735 -21.801 -17.775  0.00  0.00    -0.247 N 
ATOM      3  N   UNL     1      36.547 -20.446 -19.682  0.00  0.00    -0.322 NA
ATOM      4  N   UNL     1      34.645 -21.659 -18.834  0.00  0.00    -0.170 NA
ATOM      5  C   UNL     1      35.755 -19.964 -20.662  0.00  0.00    +0.201 C 
ATOM      6  C   UNL     1      37.775 -19.043 -21.747  0.00  0.00    +0.120 C 
ATOM      7  C   UNL     1      34.418 -20.279 -20.792  0.00  0.00    +0.070 C 
ATOM      8  C   UNL     1      35.937 -21.276 -18.815  0.00  0.00    +0.150 C 
ATOM      9  C   UNL     1      33.912 -21.140 -19.840  0.00  0.00    +0.116 C 
ATOM     10  H   UNL     1      37.670 -21.494 -17.801  0.00  0.00    +0.165 HD
ENDROOT
BRANCH   1  14
ATOM     11  N   UNL     1      33.639 -15.764 -25.521  0.00  0.00    -0.280 N 
ATOM     12  N   UNL     1      34.222 -16.979 -25.527  0.00  0.00    -0.173 NA
ATOM     13  C   UNL     1      34.313 -15.993 -23.483  0.00  0.00    +0.032 A 
ATOM     14  C   UNL     1      35.625 -18.049 -22.311  0.00  0.00    +0.055 C 
ATOM     15  C   UNL     1      34.655 -17.156 -24.267  0.00  0.00    +0.103 A 
ATOM     16  C   UNL     1      33.666 -15.125 -24.316  0.00  0.00    +0.053 A 
ATOM     17  C   UNL     1      35.336 -18.238 -23.680  0.00  0.00    +0.036 C 
ATOM     18  C   UNL     1      34.581 -15.777 -22.137  0.00  0.00    +0.004 C 
ATOM     19  C   UNL     1      35.263 -16.875 -21.577  0.00  0.00    +0.015 C 
ATOM     20  C   UNL     1      33.078 -13.788 -24.128  0.00  0.00    +0.051 C 
ATOM     21  H   UNL     1      33.227 -15.369 -26.323  0.00  0.00    +0.189 HD
ENDBRANCH   1  14
BRANCH   2  22
ATOM     22  C   UNL     1      36.457 -22.677 -16.710  0.00  0.00    +0.064 C 
ATOM     23  C   UNL     1      37.482 -23.088 -15.860  0.00  0.00    +0.055 C 
ATOM     24  C   UNL     1      35.153 -23.132 -16.503  0.00  0.00    +0.055 C 
ATOM     25  C   UNL     1      34.878 -23.996 -15.445  0.00  0.00    +0.177 C 
ATOM     26  C   UNL     1      37.205 -23.954 -14.801  0.00  0.00    +0.177 C 
ATOM     27  C   UNL     1      35.903 -24.408 -14.594  0.00  0.00    +0.206 C 
BRANCH  25  28
ATOM     28  O   UNL     1      33.601 -24.433 -15.253  0.00  0.00    -0.468 OA
ATOM     29  C   UNL     1      32.646 -23.469 -14.815  0.00  0.00    +0.253 C 
ENDBRANCH  25  28
BRANCH  26  30
ATOM     30  O   UNL     1      38.217 -24.349 -13.978  0.00  0.00    -0.468 OA
ATOM     31  C   UNL     1      39.047 -25.414 -14.435  0.00  0.00    +0.253 C 
ENDBRANCH  26  30
BRANCH  27  32
ATOM     32  O   UNL     1      35.633 -25.256 -13.560  0.00  0.00    -0.465 OA
ATOM     33  C   UNL     1      35.288 -24.663 -12.310  0.00  0.00    +0.253 C 
ENDBRANCH  27  32
ENDBRANCH   2  22
TORSDOF 5
ENDMDL
MODEL 2
REMARK VINA RESULT:     -11.3      0.022      2.265
REMARK  Name = 24941243
REMARK  5 active torsions:
REMARK  status: ('A' for Active; 'I' for Inactive)
REMARK    1  A    between atoms: N_1  and  C_14
REMARK    2  A    between atoms: N_2  and  C_22
REMARK    3  A    between atoms: C_25  and  O_28
REMARK    4  A    between atoms: C_26  and  O_30
REMARK    5  A    between atoms: C_27  and  O_32
REMARK                            x       y       z     vdW  Elec       q    Type
REMARK                         _______ _______ _______ _____ _____    ______ ____
ROOT
ATOM      1  N   UNL     1      36.322 -19.084 -21.623  0.00  0.00    -0.260 N 
ATOM      2  N   UNL     1      36.756 -21.800 -17.776  0.00  0.00    -0.247 N 
ATOM      3  N   UNL     1      36.562 -20.447 -19.683  0.00  0.00    -0.322 NA
ATOM      4  N   UNL     1      34.663 -21.662 -18.830  0.00  0.00    -0.170 NA
ATOM      5  C   UNL     1      35.767 -19.967 -20.662  0.00  0.00    +0.201 C 
ATOM      6  C   UNL     1      37.783 -19.044 -21.752  0.00  0.00    +0.120 C 
ATOM      7  C   UNL     1      34.430 -20.283 -20.790  0.00  0.00    +0.070 C 
ATOM      8  C   UNL     1      35.954 -21.277 -18.815  0.00  0.00    +0.150 C 
ATOM      9  C   UNL     1      33.927 -21.144 -19.836  0.00  0.00    +0.116 C 
ATOM     10  H   UNL     1      37.690 -21.491 -17.804  0.00  0.00    +0.165 HD
ENDROOT
BRANCH   1  14
ATOM     11  N   UNL     1      33.632 -15.775 -25.519  0.00  0.00    -0.280 N 
ATOM     12  N   UNL     1      34.215 -16.990 -25.525  0.00  0.00    -0.173 NA
ATOM     13  C   UNL     1      34.314 -16.000 -23.484  0.00  0.00    +0.032 A 
ATOM     14  C   UNL     1      35.631 -18.053 -22.313  0.00  0.00    +0.055 C 
ATOM     15  C   UNL     1      34.653 -17.164 -24.267  0.00  0.00    +0.103 A 
ATOM     16  C   UNL     1      33.664 -15.133 -24.315  0.00  0.00    +0.053 A 
ATOM     17  C   UNL     1      35.337 -18.245 -23.680  0.00  0.00    +0.036 C 
ATOM     18  C   UNL     1      34.587 -15.781 -22.139  0.00  0.00    +0.004 C 
ATOM     19  C   UNL     1      35.271 -16.878 -21.580  0.00  0.00    +0.015 C 
ATOM     20  C   UNL     1      33.076 -13.797 -24.129  0.00  0.00    +0.051 C 
ATOM     21  H   UNL     1      33.216 -15.381 -26.320  0.00  0.00    +0.189 HD
ENDBRANCH   1  14
BRANCH   2  22
ATOM     22  C   UNL     1      36.480 -22.675 -16.709  0.00  0.00    +0.064 C 
ATOM     23  C   UNL     1      35.179 -23.128 -16.497  0.00  0.00    +0.055 C 
ATOM     24  C   UNL     1      37.510 -23.092 -15.865  0.00  0.00    +0.055 C 
ATOM     25  C   UNL     1      37.238 -23.962 -14.810  0.00  0.00    +0.177 C 
ATOM     26  C   UNL     1      34.906 -23.998 -15.441  0.00  0.00    +0.177 C 
ATOM     27  C   UNL     1      35.936 -24.415 -14.598  0.00  0.00    +0.206 C 
BRANCH  25  28
ATOM     28  O   UNL     1      38.252 -24.362 -13.993  0.00  0.00    -0.468 OA
ATOM     29  C   UNL     1      39.066 -25.440 -14.451  0.00  0.00    +0.253 C 
ENDBRANCH  25  28
BRANCH  26  30
ATOM     30  O   UNL     1      33.629 -24.432 -15.245  0.00  0.00    -0.468 OA
ATOM     31  C   UNL     1      32.675 -23.465 -14.815  0.00  0.00    +0.253 C 
ENDBRANCH  26  30
BRANCH  27  32
ATOM     32  O   UNL     1      35.669 -25.264 -13.565  0.00  0.00    -0.465 OA
ATOM     33  C   UNL     1      35.297 -24.674 -12.322  0.00  0.00    +0.253 C 
ENDBRANCH  27  32
ENDBRANCH   2  22
TORSDOF 5
ENDMDL
MODEL 3
REMARK VINA RESULT:     -11.2      1.032      2.424
REMARK  Name = 24941243
REMARK  5 active torsions:
REMARK  status: ('A' for Active; 'I' for Inactive)
REMARK    1  A    between atoms: N_1  and  C_14
REMARK    2  A    between atoms: N_2  and  C_22
REMARK    3  A    between atoms: C_25  and  O_28
REMARK    4  A    between atoms: C_26  and  O_30
REMARK    5  A    between atoms: C_27  and  O_32
REMARK                            x       y       z     vdW  Elec       q    Type
REMARK                         _______ _______ _______ _____ _____    ______ ____
ROOT
ATOM      1  N   UNL     1      35.818 -18.937 -21.993  0.00  0.00    -0.260 N 
ATOM      2  N   UNL     1      35.899 -21.811 -18.239  0.00  0.00    -0.247 N 
ATOM      3  N   UNL     1      35.881 -20.383 -20.100  0.00  0.00    -0.322 NA
ATOM      4  N   UNL     1      33.840 -21.363 -19.273  0.00  0.00    -0.170 NA
ATOM      5  C   UNL     1      35.153 -19.769 -21.057  0.00  0.00    +0.201 C 
ATOM      6  C   UNL     1      37.271 -19.086 -22.131  0.00  0.00    +0.120 C 
ATOM      7  C   UNL     1      33.786 -19.902 -21.185  0.00  0.00    +0.070 C 
ATOM      8  C   UNL     1      35.171 -21.153 -19.254  0.00  0.00    +0.150 C 
ATOM      9  C   UNL     1      33.176 -20.719 -20.256  0.00  0.00    +0.116 C 
ATOM     10  H   UNL     1      36.866 -21.629 -18.264  0.00  0.00    +0.165 HD
ENDROOT
BRANCH   1  14
ATOM     11  N   UNL     1      33.569 -15.178 -25.758  0.00  0.00    -0.280 N 
ATOM     12  N   UNL     1      33.980 -16.460 -25.806  0.00  0.00    -0.173 NA
ATOM     13  C   UNL     1      34.233 -15.554 -23.739  0.00  0.00    +0.032 A 
ATOM     14  C   UNL     1      35.268 -17.801 -22.644  0.00  0.00    +0.055 C 
ATOM     15  C   UNL     1      34.402 -16.730 -24.559  0.00  0.00    +0.103 A 
ATOM     16  C   UNL     1      33.699 -14.583 -24.537  0.00  0.00    +0.053 A 
ATOM     17  C   UNL     1      34.937 -17.911 -24.013  0.00  0.00    +0.036 C 
ATOM     18  C   UNL     1      34.546 -15.414 -22.392  0.00  0.00    +0.004 C 
ATOM     19  C   UNL     1      35.079 -16.610 -21.873  0.00  0.00    +0.015 C 
ATOM     20  C   UNL     1      33.301 -13.184 -24.305  0.00  0.00    +0.051 C 
ATOM     21  H   UNL     1      33.203 -14.707 -26.542  0.00  0.00    +0.189 HD
ENDBRANCH   1  14
BRANCH   2  22
ATOM     22  C   UNL     1      35.513 -22.677 -17.199  0.00  0.00    +0.064 C 
ATOM     23  C   UNL     1      34.189 -23.104 -17.102  0.00  0.00    +0.055 C 
ATOM     24  C   UNL     1      36.456 -23.110 -16.265  0.00  0.00    +0.055 C 
ATOM     25  C   UNL     1      36.074 -23.971 -15.237  0.00  0.00    +0.177 C 
ATOM     26  C   UNL     1      33.807 -23.964 -16.072  0.00  0.00    +0.177 C 
ATOM     27  C   UNL     1      34.750 -24.398 -15.140  0.00  0.00    +0.206 C 
BRANCH  25  28
ATOM     28  O   UNL     1      37.004 -24.387 -14.332  0.00  0.00    -0.468 OA
ATOM     29  C   UNL     1      37.289 -23.508 -13.246  0.00  0.00    +0.253 C 
ENDBRANCH  25  28
BRANCH  26  30
ATOM     30  O   UNL     1      32.510 -24.374 -15.990  0.00  0.00    -0.468 OA
ATOM     31  C   UNL     1      31.507 -23.363 -16.049  0.00  0.00    +0.253 C 
ENDBRANCH  26  30
BRANCH  27  32
ATOM     32  O   UNL     1      34.376 -25.238 -14.133  0.00  0.00    -0.465 OA
ATOM     33  C   UNL     1      33.838 -24.639 -12.957  0.00  0.00    +0.253 C 
ENDBRANCH  27  32
ENDBRANCH   2  22
TORSDOF 5
ENDMDL
MODEL 4
REMARK VINA RESULT:     -11.2      1.300      1.654
REMARK  Name = 24941243
REMARK  5 active torsions:
REMARK  status: ('A' for Active; 'I' for Inactive)
REMARK    1  A    between atoms: N_1  and  C_14
REMARK    2  A    between atoms: N_2  and  C_22
REMARK    3  A    between atoms: C_25  and  O_28
REMARK    4  A    between atoms: C_26  and  O_30
REMARK    5  A    between atoms: C_27  and  O_32
REMARK                            x       y       z     vdW  Elec       q    Type
REMARK                         _______ _______ _______ _____ _____    ______ ____
ROOT
ATOM      1  N   UNL     1      35.939 -18.933 -21.986  0.00  0.00    -0.260 N 
ATOM      2  N   UNL     1      35.990 -21.760 -18.196  0.00  0.00    -0.247 N 
ATOM      3  N   UNL     1      35.986 -20.353 -20.073  0.00  0.00    -0.322 NA
ATOM      4  N   UNL     1      33.961 -21.425 -19.327  0.00  0.00    -0.170 NA
ATOM      5  C   UNL     1      35.274 -19.787 -21.070  0.00  0.00    +0.201 C 
ATOM      6  C   UNL     1      37.402 -19.011 -22.057  0.00  0.00    +0.120 C 
ATOM      7  C   UNL     1      33.922 -19.988 -21.258  0.00  0.00    +0.070 C 
ATOM      8  C   UNL     1      35.277 -21.149 -19.251  0.00  0.00    +0.150 C 
ATOM      9  C   UNL     1      33.311 -20.826 -20.346  0.00  0.00    +0.116 C 
ATOM     10  H   UNL     1      36.947 -21.529 -18.179  0.00  0.00    +0.165 HD
ENDROOT
BRANCH   1  14
ATOM     11  N   UNL     1      33.775 -13.809 -23.546  0.00  0.00    -0.280 N 
ATOM     12  N   UNL     1      34.301 -14.330 -22.420  0.00  0.00    -0.173 NA
ATOM     13  C   UNL     1      34.253 -15.833 -24.122  0.00  0.00    +0.032 A 
ATOM     14  C   UNL     1      35.363 -17.832 -22.675  0.00  0.00    +0.055 C 
ATOM     15  C   UNL     1      34.613 -15.597 -22.744  0.00  0.00    +0.103 A 
ATOM     16  C   UNL     1      33.721 -14.671 -24.602  0.00  0.00    +0.053 A 
ATOM     17  C   UNL     1      35.192 -16.620 -21.971  0.00  0.00    +0.036 C 
ATOM     18  C   UNL     1      34.409 -17.011 -24.842  0.00  0.00    +0.004 C 
ATOM     19  C   UNL     1      34.990 -18.016 -24.044  0.00  0.00    +0.015 C 
ATOM     20  C   UNL     1      33.174 -14.269 -25.909  0.00  0.00    +0.051 C 
ATOM     21  H   UNL     1      33.455 -12.879 -23.601  0.00  0.00    +0.189 HD
ENDBRANCH   1  14
BRANCH   2  22
ATOM     22  C   UNL     1      35.600 -22.633 -17.163  0.00  0.00    +0.064 C 
ATOM     23  C   UNL     1      36.544 -23.091 -16.245  0.00  0.00    +0.055 C 
ATOM     24  C   UNL     1      34.269 -23.038 -17.056  0.00  0.00    +0.055 C 
ATOM     25  C   UNL     1      33.883 -23.900 -16.031  0.00  0.00    +0.177 C 
ATOM     26  C   UNL     1      36.157 -23.955 -15.220  0.00  0.00    +0.177 C 
ATOM     27  C   UNL     1      34.827 -24.359 -15.112  0.00  0.00    +0.206 C 
BRANCH  25  28
ATOM     28  O   UNL     1      32.580 -24.288 -15.938  0.00  0.00    -0.468 OA
ATOM     29  C   UNL     1      31.589 -23.305 -16.232  0.00  0.00    +0.253 C 
ENDBRANCH  25  28
BRANCH  26  30
ATOM     30  O   UNL     1      37.090 -24.395 -14.329  0.00  0.00    -0.468 OA
ATOM     31  C   UNL     1      37.437 -23.514 -13.264  0.00  0.00    +0.253 C 
ENDBRANCH  26  30
BRANCH  27  32
ATOM     32  O   UNL     1      34.449 -25.203 -14.111  0.00  0.00    -0.465 OA
ATOM     33  C   UNL     1      33.974 -24.608 -12.906  0.00  0.00    +0.253 C 
ENDBRANCH  27  32
ENDBRANCH   2  22
TORSDOF 5
ENDMDL
MODEL 5
REMARK VINA RESULT:     -10.1      5.914     11.614
REMARK  Name = 24941243
REMARK  5 active torsions:
REMARK  status: ('A' for Active; 'I' for Inactive)
REMARK    1  A    between atoms: N_1  and  C_14
REMARK    2  A    between atoms: N_2  and  C_22
REMARK    3  A    between atoms: C_25  and  O_28
REMARK    4  A    between atoms: C_26  and  O_30
REMARK    5  A    between atoms: C_27  and  O_32
REMARK                            x       y       z     vdW  Elec       q    Type
REMARK                         _______ _______ _______ _____ _____    ______ ____
ROOT
ATOM      1  N   UNL     1      34.910 -18.491 -21.904  0.00  0.00    -0.260 N 
ATOM      2  N   UNL     1      33.807 -14.079 -23.198  0.00  0.00    -0.247 N 
ATOM      3  N   UNL     1      34.350 -16.275 -22.577  0.00  0.00    -0.322 NA
ATOM      4  N   UNL     1      34.402 -14.484 -20.964  0.00  0.00    -0.170 NA
ATOM      5  C   UNL     1      34.733 -17.119 -21.595  0.00  0.00    +0.201 C 
ATOM      6  C   UNL     1      35.058 -18.862 -23.316  0.00  0.00    +0.120 C 
ATOM      7  C   UNL     1      34.965 -16.726 -20.293  0.00  0.00    +0.070 C 
ATOM      8  C   UNL     1      34.206 -14.991 -22.197  0.00  0.00    +0.150 C 
ATOM      9  C   UNL     1      34.782 -15.384 -20.033  0.00  0.00    +0.116 C 
ATOM     10  H   UNL     1      33.676 -14.493 -24.081  0.00  0.00    +0.165 HD
ENDROOT
BRANCH   1  14
ATOM     11  N   UNL     1      35.541 -22.906 -18.233  0.00  0.00    -0.280 N 
ATOM     12  N   UNL     1      36.371 -22.066 -18.881  0.00  0.00    -0.173 NA
ATOM     13  C   UNL     1      34.189 -21.644 -19.345  0.00  0.00    +0.032 A 
ATOM     14  C   UNL     1      34.718 -19.582 -21.015  0.00  0.00    +0.055 C 
ATOM     15  C   UNL     1      35.559 -21.261 -19.587  0.00  0.00    +0.103 A 
ATOM     16  C   UNL     1      34.215 -22.698 -18.477  0.00  0.00    +0.053 A 
ATOM     17  C   UNL     1      35.860 -20.191 -20.450  0.00  0.00    +0.036 C 
ATOM     18  C   UNL     1      33.045 -21.066 -19.883  0.00  0.00    +0.004 C 
ATOM     19  C   UNL     1      33.377 -20.000 -20.742  0.00  0.00    +0.015 C 
ATOM     20  C   UNL     1      33.168 -23.526 -17.854  0.00  0.00    +0.051 C 
ATOM     21  H   UNL     1      35.866 -23.615 -17.631  0.00  0.00    +0.189 HD
ENDBRANCH   1  14
BRANCH   2  22
ATOM     22  C   UNL     1      33.561 -12.693 -23.180  0.00  0.00    +0.064 C 
ATOM     23  C   UNL     1      32.532 -12.179 -22.392  0.00  0.00    +0.055 C 
ATOM     24  C   UNL     1      34.347 -11.834 -23.949  0.00  0.00    +0.055 C 
ATOM     25  C   UNL     1      34.105 -10.462 -23.928  0.00  0.00    +0.177 C 
ATOM     26  C   UNL     1      32.289 -10.805 -22.373  0.00  0.00    +0.177 C 
ATOM     27  C   UNL     1      33.075  -9.946 -23.140  0.00  0.00    +0.206 C 
BRANCH  25  28
ATOM     28  O   UNL     1      34.880  -9.634 -24.683  0.00  0.00    -0.468 OA
ATOM     29  C   UNL     1      35.876 -10.245 -25.500  0.00  0.00    +0.253 C 
ENDBRANCH  25  28
BRANCH  26  30
ATOM     30  O   UNL     1      31.279 -10.315 -21.599  0.00  0.00    -0.468 OA
ATOM     31  C   UNL     1      31.456 -10.381 -20.186  0.00  0.00    +0.253 C 
ENDBRANCH  26  30
BRANCH  27  32
ATOM     32  O   UNL     1      32.837  -8.604 -23.122  0.00  0.00    -0.465 OA
ATOM     33  C   UNL     1      33.511  -7.840 -22.124  0.00  0.00    +0.253 C 
ENDBRANCH  27  32
ENDBRANCH   2  22
TORSDOF 5
ENDMDL
MODEL 6
REMARK VINA RESULT:     -10.1      5.925     11.486
REMARK  Name = 24941243
REMARK  5 active torsions:
REMARK  status: ('A' for Active; 'I' for Inactive)
REMARK    1  A    between atoms: N_1  and  C_14
REMARK    2  A    between atoms: N_2  and  C_22
REMARK    3  A    between atoms: C_25  and  O_28
REMARK    4  A    between atoms: C_26  and  O_30
REMARK    5  A    between atoms: C_27  and  O_32
REMARK                            x       y       z     vdW  Elec       q    Type
REMARK                         _______ _______ _______ _____ _____    ______ ____
ROOT
ATOM      1  N   UNL     1      34.933 -18.456 -21.898  0.00  0.00    -0.260 N 
ATOM      2  N   UNL     1      33.819 -14.044 -23.186  0.00  0.00    -0.247 N 
ATOM      3  N   UNL     1      34.368 -16.240 -22.568  0.00  0.00    -0.322 NA
ATOM      4  N   UNL     1      34.382 -14.457 -20.945  0.00  0.00    -0.170 NA
ATOM      5  C   UNL     1      34.741 -17.086 -21.585  0.00  0.00    +0.201 C 
ATOM      6  C   UNL     1      35.105 -18.818 -23.309  0.00  0.00    +0.120 C 
ATOM      7  C   UNL     1      34.951 -16.699 -20.277  0.00  0.00    +0.070 C 
ATOM      8  C   UNL     1      34.209 -14.960 -22.184  0.00  0.00    +0.150 C 
ATOM      9  C   UNL     1      34.755 -15.359 -20.013  0.00  0.00    +0.116 C 
ATOM     10  H   UNL     1      33.705 -14.455 -24.074  0.00  0.00    +0.165 HD
ENDROOT
BRANCH   1  14
ATOM     11  N   UNL     1      35.541 -22.912 -18.273  0.00  0.00    -0.280 N 
ATOM     12  N   UNL     1      36.376 -22.076 -18.920  0.00  0.00    -0.173 NA
ATOM     13  C   UNL     1      34.195 -21.624 -19.363  0.00  0.00    +0.032 A 
ATOM     14  C   UNL     1      34.735 -19.553 -21.018  0.00  0.00    +0.055 C 
ATOM     15  C   UNL     1      35.568 -21.254 -19.612  0.00  0.00    +0.103 A 
ATOM     16  C   UNL     1      34.215 -22.686 -18.505  0.00  0.00    +0.053 A 
ATOM     17  C   UNL     1      35.875 -20.180 -20.468  0.00  0.00    +0.036 C 
ATOM     18  C   UNL     1      33.054 -21.028 -19.887  0.00  0.00    +0.004 C 
ATOM     19  C   UNL     1      33.392 -19.957 -20.738  0.00  0.00    +0.015 C 
ATOM     20  C   UNL     1      33.164 -23.507 -17.882  0.00  0.00    +0.051 C 
ATOM     21  H   UNL     1      35.862 -23.630 -17.681  0.00  0.00    +0.189 HD
ENDBRANCH   1  14
BRANCH   2  22
ATOM     22  C   UNL     1      33.562 -12.661 -23.165  0.00  0.00    +0.064 C 
ATOM     23  C   UNL     1      34.348 -11.795 -23.924  0.00  0.00    +0.055 C 
ATOM     24  C   UNL     1      32.520 -12.156 -22.387  0.00  0.00    +0.055 C 
ATOM     25  C   UNL     1      32.264 -10.786 -22.369  0.00  0.00    +0.177 C 
ATOM     26  C   UNL     1      34.092 -10.423 -23.905  0.00  0.00    +0.177 C 
ATOM     27  C   UNL     1      33.050  -9.919 -23.128  0.00  0.00    +0.206 C 
BRANCH  25  28
ATOM     28  O   UNL     1      31.242 -10.306 -21.605  0.00  0.00    -0.468 OA
ATOM     29  C   UNL     1      31.239 -10.668 -20.226  0.00  0.00    +0.253 C 
ENDBRANCH  25  28
BRANCH  26  30
ATOM     30  O   UNL     1      34.869  -9.588 -24.651  0.00  0.00    -0.468 OA
ATOM     31  C   UNL     1      35.870 -10.190 -25.467  0.00  0.00    +0.253 C 
ENDBRANCH  26  30
BRANCH  27  32
ATOM     32  O   UNL     1      32.800  -8.579 -23.109  0.00  0.00    -0.465 OA
ATOM     33  C   UNL     1      33.465  -7.811 -22.108  0.00  0.00    +0.253 C 
ENDBRANCH  27  32
ENDBRANCH   2  22
TORSDOF 5
ENDMDL
MODEL 7
REMARK VINA RESULT:      -9.3      7.520     12.225
REMARK  Name = 24941243
REMARK  5 active torsions:
REMARK  status: ('A' for Active; 'I' for Inactive)
REMARK    1  A    between atoms: N_1  and  C_14
REMARK    2  A    between atoms: N_2  and  C_22
REMARK    3  A    between atoms: C_25  and  O_28
REMARK    4  A    between atoms: C_26  and  O_30
REMARK    5  A    between atoms: C_27  and  O_32
REMARK                            x       y       z     vdW  Elec       q    Type
REMARK                         _______ _______ _______ _____ _____    ______ ____
ROOT
ATOM      1  N   UNL     1      32.338  -8.224 -21.633  0.00  0.00    -0.260 N 
ATOM      2  N   UNL     1      33.110 -12.811 -22.484  0.00  0.00    -0.247 N 
ATOM      3  N   UNL     1      32.712 -10.540 -22.047  0.00  0.00    -0.322 NA
ATOM      4  N   UNL     1      34.308 -11.216 -23.722  0.00  0.00    -0.170 NA
ATOM      5  C   UNL     1      33.005  -9.256 -22.340  0.00  0.00    +0.201 C 
ATOM      6  C   UNL     1      31.674  -8.575 -20.373  0.00  0.00    +0.120 C 
ATOM      7  C   UNL     1      33.924  -8.878 -23.297  0.00  0.00    +0.070 C 
ATOM      8  C   UNL     1      33.390 -11.455 -22.764  0.00  0.00    +0.150 C 
ATOM      9  C   UNL     1      34.551  -9.911 -23.963  0.00  0.00    +0.116 C 
ATOM     10  H   UNL     1      32.434 -12.937 -21.779  0.00  0.00    +0.165 HD
ENDROOT
BRANCH   1  14
ATOM     11  N   UNL     1      30.089  -3.006 -22.671  0.00  0.00    -0.280 N 
ATOM     12  N   UNL     1      29.831  -4.012 -21.814  0.00  0.00    -0.173 NA
ATOM     13  C   UNL     1      31.578  -4.480 -23.188  0.00  0.00    +0.032 A 
ATOM     14  C   UNL     1      32.034  -6.928 -22.130  0.00  0.00    +0.055 C 
ATOM     15  C   UNL     1      30.745  -4.953 -22.108  0.00  0.00    +0.103 A 
ATOM     16  C   UNL     1      31.130  -3.234 -23.522  0.00  0.00    +0.053 A 
ATOM     17  C   UNL     1      30.962  -6.223 -21.541  0.00  0.00    +0.036 C 
ATOM     18  C   UNL     1      32.638  -5.148 -23.788  0.00  0.00    +0.004 C 
ATOM     19  C   UNL     1      32.832  -6.414 -23.200  0.00  0.00    +0.015 C 
ATOM     20  C   UNL     1      31.549  -2.242 -24.527  0.00  0.00    +0.051 C 
ATOM     21  H   UNL     1      29.566  -2.171 -22.683  0.00  0.00    +0.189 HD
ENDBRANCH   1  14
BRANCH   2  22
ATOM     22  C   UNL     1      33.607 -14.016 -23.015  0.00  0.00    +0.064 C 
ATOM     23  C   UNL     1      33.373 -14.337 -24.351  0.00  0.00    +0.055 C 
ATOM     24  C   UNL     1      34.335 -14.887 -22.204  0.00  0.00    +0.055 C 
ATOM     25  C   UNL     1      34.830 -16.079 -22.731  0.00  0.00    +0.177 C 
ATOM     26  C   UNL     1      33.868 -15.531 -24.878  0.00  0.00    +0.177 C 
ATOM     27  C   UNL     1      34.597 -16.401 -24.068  0.00  0.00    +0.206 C 
BRANCH  25  28
ATOM     28  O   UNL     1      35.540 -16.922 -21.929  0.00  0.00    -0.468 OA
ATOM     29  C   UNL     1      34.803 -17.685 -20.978  0.00  0.00    +0.253 C 
ENDBRANCH  25  28
BRANCH  26  30
ATOM     30  O   UNL     1      33.632 -15.833 -26.186  0.00  0.00    -0.468 OA
ATOM     31  C   UNL     1      33.299 -14.751 -27.051  0.00  0.00    +0.253 C 
ENDBRANCH  26  30
BRANCH  27  32
ATOM     32  O   UNL     1      35.079 -17.568 -24.582  0.00  0.00    -0.465 OA
ATOM     33  C   UNL     1      34.247 -18.720 -24.467  0.00  0.00    +0.253 C 
ENDBRANCH  27  32
ENDBRANCH   2  22
TORSDOF 5
ENDMDL
MODEL 8
REMARK VINA RESULT:      -9.3      7.499     12.102
REMARK  Name = 24941243
REMARK  5 active torsions:
REMARK  status: ('A' for Active; 'I' for Inactive)
REMARK    1  A    between atoms: N_1  and  C_14
REMARK    2  A    between atoms: N_2  and  C_22
REMARK    3  A    between atoms: C_25  and  O_28
REMARK    4  A    between atoms: C_26  and  O_30
REMARK    5  A    between atoms: C_27  and  O_32
REMARK                            x       y       z     vdW  Elec       q    Type
REMARK                         _______ _______ _______ _____ _____    ______ ____
ROOT
ATOM      1  N   UNL     1      32.341  -8.245 -21.659  0.00  0.00    -0.260 N 
ATOM      2  N   UNL     1      33.101 -12.836 -22.503  0.00  0.00    -0.247 N 
ATOM      3  N   UNL     1      32.708 -10.563 -22.069  0.00  0.00    -0.322 NA
ATOM      4  N   UNL     1      34.303 -11.246 -23.743  0.00  0.00    -0.170 NA
ATOM      5  C   UNL     1      33.005  -9.280 -22.365  0.00  0.00    +0.201 C 
ATOM      6  C   UNL     1      31.676  -8.593 -20.399  0.00  0.00    +0.120 C 
ATOM      7  C   UNL     1      33.925  -8.906 -23.323  0.00  0.00    +0.070 C 
ATOM      8  C   UNL     1      33.385 -11.481 -22.786  0.00  0.00    +0.150 C 
ATOM      9  C   UNL     1      34.549  -9.942 -23.987  0.00  0.00    +0.116 C 
ATOM     10  H   UNL     1      32.425 -12.959 -21.798  0.00  0.00    +0.165 HD
ENDROOT
BRANCH   1  14
ATOM     11  N   UNL     1      30.099  -3.026 -22.711  0.00  0.00    -0.280 N 
ATOM     12  N   UNL     1      29.837  -4.032 -21.855  0.00  0.00    -0.173 NA
ATOM     13  C   UNL     1      31.589  -4.502 -23.220  0.00  0.00    +0.032 A 
ATOM     14  C   UNL     1      32.039  -6.950 -22.159  0.00  0.00    +0.055 C 
ATOM     15  C   UNL     1      30.751  -4.974 -22.144  0.00  0.00    +0.103 A 
ATOM     16  C   UNL     1      31.144  -3.256 -23.558  0.00  0.00    +0.053 A 
ATOM     17  C   UNL     1      30.965  -6.243 -21.575  0.00  0.00    +0.036 C 
ATOM     18  C   UNL     1      32.652  -5.172 -23.815  0.00  0.00    +0.004 C 
ATOM     19  C   UNL     1      32.842  -6.437 -23.226  0.00  0.00    +0.015 C 
ATOM     20  C   UNL     1      31.568  -2.265 -24.561  0.00  0.00    +0.051 C 
ATOM     21  H   UNL     1      29.577  -2.191 -22.726  0.00  0.00    +0.189 HD
ENDBRANCH   1  14
BRANCH   2  22
ATOM     22  C   UNL     1      33.595 -14.042 -23.031  0.00  0.00    +0.064 C 
ATOM     23  C   UNL     1      34.331 -14.907 -22.223  0.00  0.00    +0.055 C 
ATOM     24  C   UNL     1      33.346 -14.375 -24.364  0.00  0.00    +0.055 C 
ATOM     25  C   UNL     1      33.833 -15.572 -24.886  0.00  0.00    +0.177 C 
ATOM     26  C   UNL     1      34.819 -16.105 -22.746  0.00  0.00    +0.177 C 
ATOM     27  C   UNL     1      34.569 -16.438 -24.078  0.00  0.00    +0.206 C 
BRANCH  25  28
ATOM     28  O   UNL     1      33.583 -15.885 -26.188  0.00  0.00    -0.468 OA
ATOM     29  C   UNL     1      33.230 -14.811 -27.056  0.00  0.00    +0.253 C 
ENDBRANCH  25  28
BRANCH  26  30
ATOM     30  O   UNL     1      35.537 -16.942 -21.945  0.00  0.00    -0.468 OA
ATOM     31  C   UNL     1      34.806 -17.727 -21.007  0.00  0.00    +0.253 C 
ENDBRANCH  26  30
BRANCH  27  32
ATOM     32  O   UNL     1      35.047 -17.608 -24.589  0.00  0.00    -0.465 OA
ATOM     33  C   UNL     1      34.219 -18.761 -24.450  0.00  0.00    +0.253 C 
ENDBRANCH  27  32
ENDBRANCH   2  22
TORSDOF 5
ENDMDL
