MODEL 1
REMARK VINA RESULT:     -12.4      0.000      0.000
REMARK  Name = 10224181
REMARK  7 active torsions:
REMARK  status: ('A' for Active; 'I' for Inactive)
REMARK    1  A    between atoms: N_3  and  C_23
REMARK    2  A    between atoms: C_12  and  C_14
REMARK    3  A    between atoms: C_15  and  C_16
REMARK    4  A    between atoms: C_16  and  C_17
REMARK    5  A    between atoms: C_23  and  C_24
REMARK    6  A    between atoms: C_29  and  C_31
REMARK    7  A    between atoms: C_31  and  O_32
REMARK                            x       y       z     vdW  Elec       q    Type
REMARK                         _______ _______ _______ _____ _____    ______ ____
ROOT
ATOM      1  O   UNL     1      32.335 -23.909 -16.836  0.00  0.00    -0.267 OA
ATOM      2  O   UNL     1      34.787 -24.841 -13.000  0.00  0.00    -0.246 OA
ATOM      3  N   UNL     1      33.542 -24.392 -14.898  0.00  0.00    -0.244 N 
ATOM      4  N   UNL     1      35.796 -23.630 -14.698  0.00  0.00    -0.279 N 
ATOM      5  C   UNL     1      35.713 -23.032 -15.990  0.00  0.00    +0.069 A 
ATOM      6  C   UNL     1      34.530 -23.125 -16.726  0.00  0.00    +0.073 A 
ATOM      7  C   UNL     1      33.367 -23.837 -16.173  0.00  0.00    +0.266 A 
ATOM      8  C   UNL     1      34.719 -24.321 -14.119  0.00  0.00    +0.334 A 
ATOM      9  C   UNL     1      34.429 -22.542 -18.000  0.00  0.00    +0.014 C 
ATOM     10  C   UNL     1      36.796 -22.340 -16.561  0.00  0.00    +0.018 C 
ATOM     11  C   UNL     1      37.047 -23.519 -13.948  0.00  0.00    +0.135 C 
ATOM     12  C   UNL     1      35.512 -21.862 -18.548  0.00  0.00    +0.042 C 
ATOM     13  C   UNL     1      36.695 -21.761 -17.828  0.00  0.00    +0.010 C 
ENDROOT
BRANCH  12  14
ATOM     14  C   UNL     1      35.406 -21.270 -19.844  0.00  0.00    -0.064 C 
ATOM     15  C   UNL     1      35.318 -20.775 -20.939  0.00  0.00    -0.082 C 
BRANCH  15  16
ATOM     16  C   UNL     1      35.211 -20.174 -22.273  0.00  0.00    +0.103 C 
BRANCH  16  17
ATOM     17  C   UNL     1      35.056 -18.676 -22.206  0.00  0.00    -0.009 C 
ATOM     18  C   UNL     1      34.875 -18.063 -20.975  0.00  0.00    -0.003 C 
ATOM     19  C   UNL     1      35.098 -17.933 -23.376  0.00  0.00    -0.003 C 
ATOM     20  C   UNL     1      34.733 -16.677 -20.913  0.00  0.00    -0.000 C 
ATOM     21  C   UNL     1      34.956 -16.547 -23.315  0.00  0.00    -0.000 C 
ATOM     22  C   UNL     1      34.773 -15.919 -22.083  0.00  0.00    -0.000 C 
ENDBRANCH  16  17
ENDBRANCH  15  16
ENDBRANCH  12  14
BRANCH   3  23
ATOM     23  C   UNL     1      32.405 -25.105 -14.322  0.00  0.00    +0.140 C 
BRANCH  23  24
ATOM     24  C   UNL     1      31.094 -24.466 -14.695  0.00  0.00    +0.001 C 
ATOM     25  C   UNL     1      30.145 -25.206 -15.387  0.00  0.00    -0.002 C 
ATOM     26  C   UNL     1      30.851 -23.146 -14.340  0.00  0.00    -0.002 C 
ATOM     27  C   UNL     1      28.930 -24.614 -15.732  0.00  0.00    +0.006 C 
ATOM     28  C   UNL     1      29.636 -22.554 -14.684  0.00  0.00    +0.006 C 
ATOM     29  C   UNL     1      28.676 -23.288 -15.381  0.00  0.00    +0.075 C 
BRANCH  29  31
ATOM     30  O   UNL     1      26.372 -22.724 -15.071  0.00  0.00    -0.245 OA
ATOM     31  C   UNL     1      27.408 -22.670 -15.740  0.00  0.00    +0.338 C 
BRANCH  31  32
ATOM     32  O   UNL     1      27.471 -22.004 -16.925  0.00  0.00    -0.477 OA
ATOM     33  H   UNL     1      28.210 -22.121 -17.489  0.00  0.00    +0.295 HD
ENDBRANCH  31  32
ENDBRANCH  29  31
ENDBRANCH  23  24
ENDBRANCH   3  23
TORSDOF 7
ENDMDL
MODEL 2
REMARK VINA RESULT:     -12.3      5.366      9.380
REMARK  Name = 10224181
REMARK  7 active torsions:
REMARK  status: ('A' for Active; 'I' for Inactive)
REMARK    1  A    between atoms: N_3  and  C_23
REMARK    2  A    between atoms: C_12  and  C_14
REMARK    3  A    between atoms: C_15  and  C_16
REMARK    4  A    between atoms: C_16  and  C_17
REMARK    5  A    between atoms: C_23  and  C_24
REMARK    6  A    between atoms: C_29  and  C_31
REMARK    7  A    between atoms: C_31  and  O_32
REMARK                            x       y       z     vdW  Elec       q    Type
REMARK                         _______ _______ _______ _____ _____    ______ ____
ROOT
ATOM      1  O   UNL     1      35.306 -16.772 -19.895  0.00  0.00    -0.267 OA
ATOM      2  O   UNL     1      35.964 -19.119 -23.852  0.00  0.00    -0.246 OA
ATOM      3  N   UNL     1      35.653 -17.971 -21.866  0.00  0.00    -0.244 N 
ATOM      4  N   UNL     1      34.671 -17.197 -23.901  0.00  0.00    -0.279 N 
ATOM      5  C   UNL     1      34.095 -16.093 -23.207  0.00  0.00    +0.069 A 
ATOM      6  C   UNL     1      34.309 -15.943 -21.836  0.00  0.00    +0.073 A 
ATOM      7  C   UNL     1      35.129 -16.921 -21.102  0.00  0.00    +0.266 A 
ATOM      8  C   UNL     1      35.462 -18.160 -23.254  0.00  0.00    +0.334 A 
ATOM      9  C   UNL     1      33.750 -14.862 -21.134  0.00  0.00    +0.014 C 
ATOM     10  C   UNL     1      33.304 -15.132 -23.862  0.00  0.00    +0.018 C 
ATOM     11  C   UNL     1      34.430 -17.331 -25.337  0.00  0.00    +0.135 C 
ATOM     12  C   UNL     1      32.970 -13.921 -21.801  0.00  0.00    +0.042 C 
ATOM     13  C   UNL     1      32.748 -14.056 -23.165  0.00  0.00    +0.010 C 
ENDROOT
BRANCH  12  14
ATOM     14  C   UNL     1      32.403 -12.823 -21.086  0.00  0.00    -0.064 C 
ATOM     15  C   UNL     1      31.928 -11.894 -20.484  0.00  0.00    -0.082 C 
BRANCH  15  16
ATOM     16  C   UNL     1      31.352 -10.761 -19.750  0.00  0.00    +0.103 C 
BRANCH  16  17
ATOM     17  C   UNL     1      31.795  -9.437 -20.320  0.00  0.00    -0.009 C 
ATOM     18  C   UNL     1      31.797  -9.252 -21.694  0.00  0.00    -0.003 C 
ATOM     19  C   UNL     1      32.193  -8.424 -19.460  0.00  0.00    -0.003 C 
ATOM     20  C   UNL     1      32.205  -8.027 -22.221  0.00  0.00    -0.000 C 
ATOM     21  C   UNL     1      32.602  -7.199 -19.987  0.00  0.00    -0.000 C 
ATOM     22  C   UNL     1      32.609  -7.001 -21.367  0.00  0.00    -0.000 C 
ENDBRANCH  16  17
ENDBRANCH  15  16
ENDBRANCH  12  14
BRANCH   3  23
ATOM     23  C   UNL     1      36.472 -18.957 -21.167  0.00  0.00    +0.140 C 
BRANCH  23  24
ATOM     24  C   UNL     1      35.631 -19.999 -20.479  0.00  0.00    +0.001 C 
ATOM     25  C   UNL     1      36.246 -20.961 -19.690  0.00  0.00    -0.002 C 
ATOM     26  C   UNL     1      34.253 -19.981 -20.642  0.00  0.00    -0.002 C 
ATOM     27  C   UNL     1      35.467 -21.926 -19.052  0.00  0.00    +0.006 C 
ATOM     28  C   UNL     1      33.474 -20.946 -20.004  0.00  0.00    +0.006 C 
ATOM     29  C   UNL     1      34.081 -21.919 -19.209  0.00  0.00    +0.075 C 
BRANCH  29  31
ATOM     30  O   UNL     1      32.269 -22.695 -17.853  0.00  0.00    -0.245 OA
ATOM     31  C   UNL     1      33.268 -22.925 -18.543  0.00  0.00    +0.338 C 
BRANCH  31  32
ATOM     32  O   UNL     1      33.725 -24.189 -18.756  0.00  0.00    -0.477 OA
ATOM     33  H   UNL     1      34.109 -24.414 -19.581  0.00  0.00    +0.295 HD
ENDBRANCH  31  32
ENDBRANCH  29  31
ENDBRANCH  23  24
ENDBRANCH   3  23
TORSDOF 7
ENDMDL
MODEL 3
REMARK VINA RESULT:     -11.9      2.456      6.239
REMARK  Name = 10224181
REMARK  7 active torsions:
REMARK  status: ('A' for Active; 'I' for Inactive)
REMARK    1  A    between atoms: N_3  and  C_23
REMARK    2  A    between atoms: C_12  and  C_14
REMARK    3  A    between atoms: C_15  and  C_16
REMARK    4  A    between atoms: C_16  and  C_17
REMARK    5  A    between atoms: C_23  and  C_24
REMARK    6  A    between atoms: C_29  and  C_31
REMARK    7  A    between atoms: C_31  and  O_32
REMARK                            x       y       z     vdW  Elec       q    Type
REMARK                         _______ _______ _______ _____ _____    ______ ____
ROOT
ATOM      1  O   UNL     1      36.537 -23.127 -15.062  0.00  0.00    -0.267 OA
ATOM      2  O   UNL     1      32.751 -24.985 -13.107  0.00  0.00    -0.246 OA
ATOM      3  N   UNL     1      34.653 -24.067 -14.056  0.00  0.00    -0.244 N 
ATOM      4  N   UNL     1      32.564 -24.037 -15.213  0.00  0.00    -0.279 N 
ATOM      5  C   UNL     1      33.179 -23.367 -16.312  0.00  0.00    +0.069 A 
ATOM      6  C   UNL     1      34.538 -23.054 -16.266  0.00  0.00    +0.073 A 
ATOM      7  C   UNL     1      35.341 -23.412 -15.085  0.00  0.00    +0.266 A 
ATOM      8  C   UNL     1      33.280 -24.404 -14.062  0.00  0.00    +0.334 A 
ATOM      9  C   UNL     1      35.161 -22.395 -17.338  0.00  0.00    +0.014 C 
ATOM     10  C   UNL     1      32.454 -23.004 -17.462  0.00  0.00    +0.018 C 
ATOM     11  C   UNL     1      31.138 -24.353 -15.288  0.00  0.00    +0.135 C 
ATOM     12  C   UNL     1      34.427 -22.044 -18.467  0.00  0.00    +0.042 C 
ATOM     13  C   UNL     1      33.074 -22.349 -18.529  0.00  0.00    +0.010 C 
ENDROOT
BRANCH  12  14
ATOM     14  C   UNL     1      35.063 -21.374 -19.557  0.00  0.00    -0.064 C 
ATOM     15  C   UNL     1      35.601 -20.813 -20.477  0.00  0.00    -0.082 C 
BRANCH  15  16
ATOM     16  C   UNL     1      36.259 -20.132 -21.598  0.00  0.00    +0.103 C 
BRANCH  16  17
ATOM     17  C   UNL     1      35.672 -18.766 -21.850  0.00  0.00    -0.009 C 
ATOM     18  C   UNL     1      35.477 -18.337 -23.155  0.00  0.00    -0.003 C 
ATOM     19  C   UNL     1      35.335 -17.960 -20.773  0.00  0.00    -0.003 C 
ATOM     20  C   UNL     1      34.933 -17.074 -23.388  0.00  0.00    -0.000 C 
ATOM     21  C   UNL     1      34.792 -16.696 -21.006  0.00  0.00    -0.000 C 
ATOM     22  C   UNL     1      34.591 -16.254 -22.312  0.00  0.00    -0.000 C 
ENDBRANCH  16  17
ENDBRANCH  15  16
ENDBRANCH  12  14
BRANCH   3  23
ATOM     23  C   UNL     1      35.423 -24.437 -12.871  0.00  0.00    +0.140 C 
BRANCH  23  24
ATOM     24  C   UNL     1      36.755 -25.036 -13.233  0.00  0.00    +0.001 C 
ATOM     25  C   UNL     1      36.805 -26.111 -14.111  0.00  0.00    -0.002 C 
ATOM     26  C   UNL     1      37.915 -24.507 -12.684  0.00  0.00    -0.002 C 
ATOM     27  C   UNL     1      38.040 -26.667 -14.446  0.00  0.00    +0.006 C 
ATOM     28  C   UNL     1      39.149 -25.062 -13.020  0.00  0.00    +0.006 C 
ATOM     29  C   UNL     1      39.212 -26.143 -13.900  0.00  0.00    +0.075 C 
BRANCH  29  31
ATOM     30  O   UNL     1      41.270 -27.281 -13.463  0.00  0.00    -0.245 OA
ATOM     31  C   UNL     1      40.500 -26.722 -14.250  0.00  0.00    +0.338 C 
BRANCH  31  32
ATOM     32  O   UNL     1      40.790 -26.586 -15.573  0.00  0.00    -0.477 OA
ATOM     33  H   UNL     1      41.333 -25.880 -15.863  0.00  0.00    +0.295 HD
ENDBRANCH  31  32
ENDBRANCH  29  31
ENDBRANCH  23  24
ENDBRANCH   3  23
TORSDOF 7
ENDMDL
MODEL 4
REMARK VINA RESULT:     -11.4      3.034      6.554
REMARK  Name = 10224181
REMARK  7 active torsions:
REMARK  status: ('A' for Active; 'I' for Inactive)
REMARK    1  A    between atoms: N_3  and  C_23
REMARK    2  A    between atoms: C_12  and  C_14
REMARK    3  A    between atoms: C_15  and  C_16
REMARK    4  A    between atoms: C_16  and  C_17
REMARK    5  A    between atoms: C_23  and  C_24
REMARK    6  A    between atoms: C_29  and  C_31
REMARK    7  A    between atoms: C_31  and  O_32
REMARK                            x       y       z     vdW  Elec       q    Type
REMARK                         _______ _______ _______ _____ _____    ______ ____
ROOT
ATOM      1  O   UNL     1      36.003 -22.959 -14.525  0.00  0.00    -0.267 OA
ATOM      2  O   UNL     1      33.439 -25.604 -11.690  0.00  0.00    -0.246 OA
ATOM      3  N   UNL     1      34.739 -24.288 -13.082  0.00  0.00    -0.244 N 
ATOM      4  N   UNL     1      32.513 -24.898 -13.693  0.00  0.00    -0.279 N 
ATOM      5  C   UNL     1      32.645 -24.173 -14.914  0.00  0.00    +0.069 A 
ATOM      6  C   UNL     1      33.838 -23.507 -15.203  0.00  0.00    +0.073 A 
ATOM      7  C   UNL     1      34.961 -23.552 -14.252  0.00  0.00    +0.266 A 
ATOM      8  C   UNL     1      33.550 -24.976 -12.749  0.00  0.00    +0.334 A 
ATOM      9  C   UNL     1      33.988 -22.788 -16.400  0.00  0.00    +0.014 C 
ATOM     10  C   UNL     1      31.602 -24.101 -15.854  0.00  0.00    +0.018 C 
ATOM     11  C   UNL     1      31.252 -25.585 -13.414  0.00  0.00    +0.135 C 
ATOM     12  C   UNL     1      32.943 -22.729 -17.318  0.00  0.00    +0.042 C 
ATOM     13  C   UNL     1      31.750 -23.386 -17.045  0.00  0.00    +0.010 C 
ENDROOT
BRANCH  12  14
ATOM     14  C   UNL     1      33.098 -21.997 -18.535  0.00  0.00    -0.064 C 
ATOM     15  C   UNL     1      33.225 -21.378 -19.561  0.00  0.00    -0.082 C 
BRANCH  15  16
ATOM     16  C   UNL     1      33.377 -20.624 -20.810  0.00  0.00    +0.103 C 
BRANCH  16  17
ATOM     17  C   UNL     1      34.767 -20.063 -20.965  0.00  0.00    -0.009 C 
ATOM     18  C   UNL     1      35.795 -20.562 -20.179  0.00  0.00    -0.003 C 
ATOM     19  C   UNL     1      34.998 -19.058 -21.893  0.00  0.00    -0.003 C 
ATOM     20  C   UNL     1      37.082 -20.044 -20.323  0.00  0.00    -0.000 C 
ATOM     21  C   UNL     1      36.284 -18.540 -22.037  0.00  0.00    -0.000 C 
ATOM     22  C   UNL     1      37.327 -19.032 -21.252  0.00  0.00    -0.000 C 
ENDBRANCH  16  17
ENDBRANCH  15  16
ENDBRANCH  12  14
BRANCH   3  23
ATOM     23  C   UNL     1      35.835 -24.351 -12.118  0.00  0.00    +0.140 C 
BRANCH  23  24
ATOM     24  C   UNL     1      37.073 -24.963 -12.717  0.00  0.00    +0.001 C 
ATOM     25  C   UNL     1      36.950 -26.019 -13.609  0.00  0.00    -0.002 C 
ATOM     26  C   UNL     1      38.320 -24.462 -12.369  0.00  0.00    -0.002 C 
ATOM     27  C   UNL     1      38.097 -26.586 -14.164  0.00  0.00    +0.006 C 
ATOM     28  C   UNL     1      39.467 -25.029 -12.924  0.00  0.00    +0.006 C 
ATOM     29  C   UNL     1      39.356 -26.091 -13.822  0.00  0.00    +0.075 C 
BRANCH  29  31
ATOM     30  O   UNL     1      41.407 -27.322 -13.779  0.00  0.00    -0.245 OA
ATOM     31  C   UNL     1      40.553 -26.682 -14.401  0.00  0.00    +0.338 C 
BRANCH  31  32
ATOM     32  O   UNL     1      40.649 -26.456 -15.740  0.00  0.00    -0.477 OA
ATOM     33  H   UNL     1      40.171 -25.752 -16.131  0.00  0.00    +0.295 HD
ENDBRANCH  31  32
ENDBRANCH  29  31
ENDBRANCH  23  24
ENDBRANCH   3  23
TORSDOF 7
ENDMDL
MODEL 5
REMARK VINA RESULT:     -11.1      1.077      1.741
REMARK  Name = 10224181
REMARK  7 active torsions:
REMARK  status: ('A' for Active; 'I' for Inactive)
REMARK    1  A    between atoms: N_3  and  C_23
REMARK    2  A    between atoms: C_12  and  C_14
REMARK    3  A    between atoms: C_15  and  C_16
REMARK    4  A    between atoms: C_16  and  C_17
REMARK    5  A    between atoms: C_23  and  C_24
REMARK    6  A    between atoms: C_29  and  C_31
REMARK    7  A    between atoms: C_31  and  O_32
REMARK                            x       y       z     vdW  Elec       q    Type
REMARK                         _______ _______ _______ _____ _____    ______ ____
ROOT
ATOM      1  O   UNL     1      32.770 -24.372 -16.020  0.00  0.00    -0.267 OA
ATOM      2  O   UNL     1      34.331 -24.971 -11.683  0.00  0.00    -0.246 OA
ATOM      3  N   UNL     1      33.528 -24.687 -13.836  0.00  0.00    -0.244 N 
ATOM      4  N   UNL     1      35.672 -23.850 -13.203  0.00  0.00    -0.279 N 
ATOM      5  C   UNL     1      35.868 -23.344 -14.522  0.00  0.00    +0.069 A 
ATOM      6  C   UNL     1      34.878 -23.520 -15.490  0.00  0.00    +0.073 A 
ATOM      7  C   UNL     1      33.630 -24.226 -15.154  0.00  0.00    +0.266 A 
ATOM      8  C   UNL     1      34.504 -24.531 -12.825  0.00  0.00    +0.334 A 
ATOM      9  C   UNL     1      35.051 -23.028 -16.794  0.00  0.00    +0.014 C 
ATOM     10  C   UNL     1      37.042 -22.662 -14.892  0.00  0.00    +0.018 C 
ATOM     11  C   UNL     1      36.727 -23.653 -12.209  0.00  0.00    +0.135 C 
ATOM     12  C   UNL     1      36.220 -22.357 -17.140  0.00  0.00    +0.042 C 
ATOM     13  C   UNL     1      37.215 -22.173 -16.189  0.00  0.00    +0.010 C 
ENDROOT
BRANCH  12  14
ATOM     14  C   UNL     1      36.394 -21.857 -18.467  0.00  0.00    -0.064 C 
ATOM     15  C   UNL     1      36.545 -21.437 -19.586  0.00  0.00    -0.082 C 
BRANCH  15  16
ATOM     16  C   UNL     1      36.732 -20.925 -20.949  0.00  0.00    +0.103 C 
BRANCH  16  17
ATOM     17  C   UNL     1      35.990 -19.631 -21.171  0.00  0.00    -0.009 C 
ATOM     18  C   UNL     1      36.632 -18.577 -21.805  0.00  0.00    -0.003 C 
ATOM     19  C   UNL     1      34.677 -19.516 -20.740  0.00  0.00    -0.003 C 
ATOM     20  C   UNL     1      35.945 -17.381 -22.011  0.00  0.00    -0.000 C 
ATOM     21  C   UNL     1      33.990 -18.320 -20.946  0.00  0.00    -0.000 C 
ATOM     22  C   UNL     1      34.624 -17.253 -21.582  0.00  0.00    -0.000 C 
ENDBRANCH  16  17
ENDBRANCH  15  16
ENDBRANCH  12  14
BRANCH   3  23
ATOM     23  C   UNL     1      32.301 -25.392 -13.471  0.00  0.00    +0.140 C 
BRANCH  23  24
ATOM     24  C   UNL     1      31.080 -24.722 -14.039  0.00  0.00    +0.001 C 
ATOM     25  C   UNL     1      30.931 -23.347 -13.910  0.00  0.00    -0.002 C 
ATOM     26  C   UNL     1      30.118 -25.486 -14.686  0.00  0.00    -0.002 C 
ATOM     27  C   UNL     1      29.799 -22.726 -14.437  0.00  0.00    +0.006 C 
ATOM     28  C   UNL     1      28.986 -24.865 -15.213  0.00  0.00    +0.006 C 
ATOM     29  C   UNL     1      28.827 -23.484 -15.088  0.00  0.00    +0.075 C 
BRANCH  29  31
ATOM     30  O   UNL     1      26.517 -22.864 -15.139  0.00  0.00    -0.245 OA
ATOM     31  C   UNL     1      27.646 -22.836 -15.638  0.00  0.00    +0.338 C 
BRANCH  31  32
ATOM     32  O   UNL     1      27.908 -22.173 -16.798  0.00  0.00    -0.477 OA
ATOM     33  H   UNL     1      28.795 -22.019 -17.058  0.00  0.00    +0.295 HD
ENDBRANCH  31  32
ENDBRANCH  29  31
ENDBRANCH  23  24
ENDBRANCH   3  23
TORSDOF 7
ENDMDL
MODEL 6
REMARK VINA RESULT:     -11.0      8.468     13.390
REMARK  Name = 10224181
REMARK  7 active torsions:
REMARK  status: ('A' for Active; 'I' for Inactive)
REMARK    1  A    between atoms: N_3  and  C_23
REMARK    2  A    between atoms: C_12  and  C_14
REMARK    3  A    between atoms: C_15  and  C_16
REMARK    4  A    between atoms: C_16  and  C_17
REMARK    5  A    between atoms: C_23  and  C_24
REMARK    6  A    between atoms: C_29  and  C_31
REMARK    7  A    between atoms: C_31  and  O_32
REMARK                            x       y       z     vdW  Elec       q    Type
REMARK                         _______ _______ _______ _____ _____    ______ ____
ROOT
ATOM      1  O   UNL     1      34.372 -12.445 -23.806  0.00  0.00    -0.267 OA
ATOM      2  O   UNL     1      31.272  -9.762 -21.617  0.00  0.00    -0.246 OA
ATOM      3  N   UNL     1      32.820 -11.076 -22.727  0.00  0.00    -0.244 N 
ATOM      4  N   UNL     1      31.706 -11.875 -20.773  0.00  0.00    -0.279 N 
ATOM      5  C   UNL     1      32.417 -13.108 -20.867  0.00  0.00    +0.069 A 
ATOM      6  C   UNL     1      33.331 -13.308 -21.903  0.00  0.00    +0.073 A 
ATOM      7  C   UNL     1      33.564 -12.250 -22.900  0.00  0.00    +0.266 A 
ATOM      8  C   UNL     1      31.887 -10.831 -21.695  0.00  0.00    +0.334 A 
ATOM      9  C   UNL     1      34.042 -14.514 -22.012  0.00  0.00    +0.014 C 
ATOM     10  C   UNL     1      32.231 -14.148 -19.939  0.00  0.00    +0.018 C 
ATOM     11  C   UNL     1      30.753 -11.693 -19.678  0.00  0.00    +0.135 C 
ATOM     12  C   UNL     1      33.843 -15.532 -21.084  0.00  0.00    +0.042 C 
ATOM     13  C   UNL     1      32.938 -15.348 -20.047  0.00  0.00    +0.010 C 
ENDROOT
BRANCH  12  14
ATOM     14  C   UNL     1      34.567 -16.758 -21.197  0.00  0.00    -0.064 C 
ATOM     15  C   UNL     1      35.175 -17.794 -21.290  0.00  0.00    -0.082 C 
BRANCH  15  16
ATOM     16  C   UNL     1      35.913 -19.057 -21.402  0.00  0.00    +0.103 C 
BRANCH  16  17
ATOM     17  C   UNL     1      35.283 -20.152 -20.580  0.00  0.00    -0.009 C 
ATOM     18  C   UNL     1      36.095 -21.039 -19.889  0.00  0.00    -0.003 C 
ATOM     19  C   UNL     1      33.901 -20.256 -20.527  0.00  0.00    -0.003 C 
ATOM     20  C   UNL     1      35.512 -22.052 -19.128  0.00  0.00    -0.000 C 
ATOM     21  C   UNL     1      33.318 -21.269 -19.766  0.00  0.00    -0.000 C 
ATOM     22  C   UNL     1      34.123 -22.167 -19.067  0.00  0.00    -0.000 C 
ENDBRANCH  16  17
ENDBRANCH  15  16
ENDBRANCH  12  14
BRANCH   3  23
ATOM     23  C   UNL     1      33.029 -10.007 -23.701  0.00  0.00    +0.140 C 
BRANCH  23  24
ATOM     24  C   UNL     1      32.455  -8.698 -23.229  0.00  0.00    +0.001 C 
ATOM     25  C   UNL     1      33.202  -7.891 -22.382  0.00  0.00    -0.002 C 
ATOM     26  C   UNL     1      31.189  -8.316 -23.649  0.00  0.00    -0.002 C 
ATOM     27  C   UNL     1      32.670  -6.677 -21.945  0.00  0.00    +0.006 C 
ATOM     28  C   UNL     1      30.657  -7.103 -23.212  0.00  0.00    +0.006 C 
ATOM     29  C   UNL     1      31.398  -6.284 -22.360  0.00  0.00    +0.075 C 
BRANCH  29  31
ATOM     30  O   UNL     1      29.779  -4.883 -21.292  0.00  0.00    -0.245 OA
ATOM     31  C   UNL     1      30.843  -5.018 -21.905  0.00  0.00    +0.338 C 
BRANCH  31  32
ATOM     32  O   UNL     1      31.632  -3.957 -22.229  0.00  0.00    -0.477 OA
ATOM     33  H   UNL     1      31.241  -3.137 -22.459  0.00  0.00    +0.295 HD
ENDBRANCH  31  32
ENDBRANCH  29  31
ENDBRANCH  23  24
ENDBRANCH   3  23
TORSDOF 7
ENDMDL
MODEL 7
REMARK VINA RESULT:     -10.9      7.098     11.777
REMARK  Name = 10224181
REMARK  7 active torsions:
REMARK  status: ('A' for Active; 'I' for Inactive)
REMARK    1  A    between atoms: N_3  and  C_23
REMARK    2  A    between atoms: C_12  and  C_14
REMARK    3  A    between atoms: C_15  and  C_16
REMARK    4  A    between atoms: C_16  and  C_17
REMARK    5  A    between atoms: C_23  and  C_24
REMARK    6  A    between atoms: C_29  and  C_31
REMARK    7  A    between atoms: C_31  and  O_32
REMARK                            x       y       z     vdW  Elec       q    Type
REMARK                         _______ _______ _______ _____ _____    ______ ____
ROOT
ATOM      1  O   UNL     1      32.327 -14.970 -19.577  0.00  0.00    -0.267 OA
ATOM      2  O   UNL     1      32.065 -11.818 -22.983  0.00  0.00    -0.246 OA
ATOM      3  N   UNL     1      32.175 -13.372 -21.271  0.00  0.00    -0.244 N 
ATOM      4  N   UNL     1      33.488 -13.626 -23.248  0.00  0.00    -0.279 N 
ATOM      5  C   UNL     1      34.040 -14.836 -22.731  0.00  0.00    +0.069 A 
ATOM      6  C   UNL     1      33.646 -15.299 -21.475  0.00  0.00    +0.073 A 
ATOM      7  C   UNL     1      32.661 -14.545 -20.681  0.00  0.00    +0.266 A 
ATOM      8  C   UNL     1      32.546 -12.866 -22.537  0.00  0.00    +0.334 A 
ATOM      9  C   UNL     1      34.177 -16.488 -20.948  0.00  0.00    +0.014 C 
ATOM     10  C   UNL     1      34.983 -15.592 -23.450  0.00  0.00    +0.018 C 
ATOM     11  C   UNL     1      33.920 -13.162 -24.566  0.00  0.00    +0.135 C 
ATOM     12  C   UNL     1      35.109 -17.222 -21.675  0.00  0.00    +0.042 C 
ATOM     13  C   UNL     1      35.512 -16.774 -22.926  0.00  0.00    +0.010 C 
ENDROOT
BRANCH  12  14
ATOM     14  C   UNL     1      35.648 -18.431 -21.137  0.00  0.00    -0.064 C 
ATOM     15  C   UNL     1      36.101 -19.450 -20.680  0.00  0.00    -0.082 C 
BRANCH  15  16
ATOM     16  C   UNL     1      36.651 -20.690 -20.120  0.00  0.00    +0.103 C 
BRANCH  16  17
ATOM     17  C   UNL     1      35.622 -21.455 -19.329  0.00  0.00    -0.009 C 
ATOM     18  C   UNL     1      36.023 -22.205 -18.233  0.00  0.00    -0.003 C 
ATOM     19  C   UNL     1      34.289 -21.398 -19.708  0.00  0.00    -0.003 C 
ATOM     20  C   UNL     1      35.070 -22.912 -17.500  0.00  0.00    -0.000 C 
ATOM     21  C   UNL     1      33.336 -22.106 -18.976  0.00  0.00    -0.000 C 
ATOM     22  C   UNL     1      33.727 -22.863 -17.872  0.00  0.00    -0.000 C 
ENDBRANCH  16  17
ENDBRANCH  15  16
ENDBRANCH  12  14
BRANCH   3  23
ATOM     23  C   UNL     1      31.195 -12.601 -20.508  0.00  0.00    +0.140 C 
BRANCH  23  24
ATOM     24  C   UNL     1      31.579 -11.150 -20.407  0.00  0.00    +0.001 C 
ATOM     25  C   UNL     1      32.191 -10.683 -19.251  0.00  0.00    -0.002 C 
ATOM     26  C   UNL     1      31.317 -10.298 -21.471  0.00  0.00    -0.002 C 
ATOM     27  C   UNL     1      32.547  -9.338 -19.158  0.00  0.00    +0.006 C 
ATOM     28  C   UNL     1      31.674  -8.952 -21.378  0.00  0.00    +0.006 C 
ATOM     29  C   UNL     1      32.288  -8.472 -20.220  0.00  0.00    +0.075 C 
BRANCH  29  31
ATOM     30  O   UNL     1      32.395  -6.199 -20.959  0.00  0.00    -0.245 OA
ATOM     31  C   UNL     1      32.660  -7.069 -20.123  0.00  0.00    +0.338 C 
BRANCH  31  32
ATOM     32  O   UNL     1      33.353  -6.792 -18.985  0.00  0.00    -0.477 OA
ATOM     33  H   UNL     1      34.270  -6.604 -19.030  0.00  0.00    +0.295 HD
ENDBRANCH  31  32
ENDBRANCH  29  31
ENDBRANCH  23  24
ENDBRANCH   3  23
TORSDOF 7
ENDMDL
MODEL 8
REMARK VINA RESULT:     -10.5      4.659      9.806
REMARK  Name = 10224181
REMARK  7 active torsions:
REMARK  status: ('A' for Active; 'I' for Inactive)
REMARK    1  A    between atoms: N_3  and  C_23
REMARK    2  A    between atoms: C_12  and  C_14
REMARK    3  A    between atoms: C_15  and  C_16
REMARK    4  A    between atoms: C_16  and  C_17
REMARK    5  A    between atoms: C_23  and  C_24
REMARK    6  A    between atoms: C_29  and  C_31
REMARK    7  A    between atoms: C_31  and  O_32
REMARK                            x       y       z     vdW  Elec       q    Type
REMARK                         _______ _______ _______ _____ _____    ______ ____
ROOT
ATOM      1  O   UNL     1      37.723 -19.855 -19.919  0.00  0.00    -0.267 OA
ATOM      2  O   UNL     1      33.723 -19.511 -22.261  0.00  0.00    -0.246 OA
ATOM      3  N   UNL     1      35.728 -19.662 -21.114  0.00  0.00    -0.244 N 
ATOM      4  N   UNL     1      33.819 -20.919 -20.424  0.00  0.00    -0.279 N 
ATOM      5  C   UNL     1      34.571 -21.480 -19.350  0.00  0.00    +0.069 A 
ATOM      6  C   UNL     1      35.908 -21.119 -19.173  0.00  0.00    +0.073 A 
ATOM      7  C   UNL     1      36.545 -20.160 -20.091  0.00  0.00    +0.266 A 
ATOM      8  C   UNL     1      34.372 -20.000 -21.329  0.00  0.00    +0.334 A 
ATOM      9  C   UNL     1      36.666 -21.660 -18.121  0.00  0.00    +0.014 C 
ATOM     10  C   UNL     1      34.009 -22.400 -18.446  0.00  0.00    +0.018 C 
ATOM     11  C   UNL     1      32.420 -21.315 -20.587  0.00  0.00    +0.135 C 
ATOM     12  C   UNL     1      36.091 -22.569 -17.238  0.00  0.00    +0.042 C 
ATOM     13  C   UNL     1      34.762 -22.938 -17.401  0.00  0.00    +0.010 C 
ENDROOT
BRANCH  12  14
ATOM     14  C   UNL     1      36.864 -23.118 -16.169  0.00  0.00    -0.064 C 
ATOM     15  C   UNL     1      37.514 -23.584 -15.269  0.00  0.00    -0.082 C 
BRANCH  15  16
ATOM     16  C   UNL     1      38.304 -24.155 -14.172  0.00  0.00    +0.103 C 
BRANCH  16  17
ATOM     17  C   UNL     1      37.508 -24.254 -12.896  0.00  0.00    -0.009 C 
ATOM     18  C   UNL     1      36.716 -25.371 -12.670  0.00  0.00    -0.003 C 
ATOM     19  C   UNL     1      37.580 -23.227 -11.966  0.00  0.00    -0.003 C 
ATOM     20  C   UNL     1      35.981 -25.462 -11.489  0.00  0.00    -0.000 C 
ATOM     21  C   UNL     1      36.844 -23.318 -10.785  0.00  0.00    -0.000 C 
ATOM     22  C   UNL     1      36.045 -24.435 -10.546  0.00  0.00    -0.000 C 
ENDBRANCH  16  17
ENDBRANCH  15  16
ENDBRANCH  12  14
BRANCH   3  23
ATOM     23  C   UNL     1      36.331 -18.708 -22.041  0.00  0.00    +0.140 C 
BRANCH  23  24
ATOM     24  C   UNL     1      35.528 -17.439 -22.139  0.00  0.00    +0.001 C 
ATOM     25  C   UNL     1      35.023 -16.858 -20.984  0.00  0.00    -0.002 C 
ATOM     26  C   UNL     1      35.305 -16.865 -23.384  0.00  0.00    -0.002 C 
ATOM     27  C   UNL     1      34.279 -15.681 -21.075  0.00  0.00    +0.006 C 
ATOM     28  C   UNL     1      34.562 -15.689 -23.475  0.00  0.00    +0.006 C 
ATOM     29  C   UNL     1      34.049 -15.097 -22.321  0.00  0.00    +0.075 C 
BRANCH  29  31
ATOM     30  O   UNL     1      33.644 -12.831 -22.974  0.00  0.00    -0.245 OA
ATOM     31  C   UNL     1      33.274 -13.869 -22.416  0.00  0.00    +0.338 C 
BRANCH  31  32
ATOM     32  O   UNL     1      32.058 -13.972 -21.812  0.00  0.00    -0.477 OA
ATOM     33  H   UNL     1      31.673 -13.221 -21.406  0.00  0.00    +0.295 HD
ENDBRANCH  31  32
ENDBRANCH  29  31
ENDBRANCH  23  24
ENDBRANCH   3  23
TORSDOF 7
ENDMDL
MODEL 9
REMARK VINA RESULT:     -10.3      6.298     11.162
REMARK  Name = 10224181
REMARK  7 active torsions:
REMARK  status: ('A' for Active; 'I' for Inactive)
REMARK    1  A    between atoms: N_3  and  C_23
REMARK    2  A    between atoms: C_12  and  C_14
REMARK    3  A    between atoms: C_15  and  C_16
REMARK    4  A    between atoms: C_16  and  C_17
REMARK    5  A    between atoms: C_23  and  C_24
REMARK    6  A    between atoms: C_29  and  C_31
REMARK    7  A    between atoms: C_31  and  O_32
REMARK                            x       y       z     vdW  Elec       q    Type
REMARK                         _______ _______ _______ _____ _____    ______ ____
ROOT
ATOM      1  O   UNL     1      35.070 -14.150 -21.969  0.00  0.00    -0.267 OA
ATOM      2  O   UNL     1      32.785 -13.576 -25.976  0.00  0.00    -0.246 OA
ATOM      3  N   UNL     1      33.922 -13.832 -23.975  0.00  0.00    -0.244 N 
ATOM      4  N   UNL     1      33.431 -15.714 -25.360  0.00  0.00    -0.279 N 
ATOM      5  C   UNL     1      34.070 -16.577 -24.420  0.00  0.00    +0.069 A 
ATOM      6  C   UNL     1      34.633 -16.046 -23.258  0.00  0.00    +0.073 A 
ATOM      7  C   UNL     1      34.568 -14.599 -22.998  0.00  0.00    +0.266 A 
ATOM      8  C   UNL     1      33.339 -14.327 -25.164  0.00  0.00    +0.334 A 
ATOM      9  C   UNL     1      35.266 -16.879 -22.321  0.00  0.00    +0.014 C 
ATOM     10  C   UNL     1      34.157 -17.966 -24.624  0.00  0.00    +0.018 C 
ATOM     11  C   UNL     1      32.850 -16.297 -26.569  0.00  0.00    +0.135 C 
ATOM     12  C   UNL     1      35.342 -18.251 -22.541  0.00  0.00    +0.042 C 
ATOM     13  C   UNL     1      34.787 -18.794 -23.692  0.00  0.00    +0.010 C 
ENDROOT
BRANCH  12  14
ATOM     14  C   UNL     1      35.986 -19.096 -21.586  0.00  0.00    -0.064 C 
ATOM     15  C   UNL     1      36.527 -19.812 -20.782  0.00  0.00    -0.082 C 
BRANCH  15  16
ATOM     16  C   UNL     1      37.184 -20.685 -19.803  0.00  0.00    +0.103 C 
BRANCH  16  17
ATOM     17  C   UNL     1      36.187 -21.486 -19.005  0.00  0.00    -0.009 C 
ATOM     18  C   UNL     1      34.902 -21.660 -19.496  0.00  0.00    -0.003 C 
ATOM     19  C   UNL     1      36.571 -22.038 -17.791  0.00  0.00    -0.003 C 
ATOM     20  C   UNL     1      33.980 -22.403 -18.758  0.00  0.00    -0.000 C 
ATOM     21  C   UNL     1      35.649 -22.779 -17.053  0.00  0.00    -0.000 C 
ATOM     22  C   UNL     1      34.354 -22.962 -17.536  0.00  0.00    -0.000 C 
ENDBRANCH  16  17
ENDBRANCH  15  16
ENDBRANCH  12  14
BRANCH   3  23
ATOM     23  C   UNL     1      33.841 -12.392 -23.745  0.00  0.00    +0.140 C 
BRANCH  23  24
ATOM     24  C   UNL     1      33.023 -12.064 -22.525  0.00  0.00    +0.001 C 
ATOM     25  C   UNL     1      32.566 -13.092 -21.712  0.00  0.00    -0.002 C 
ATOM     26  C   UNL     1      32.738 -10.738 -22.230  0.00  0.00    -0.002 C 
ATOM     27  C   UNL     1      31.808 -12.788 -20.581  0.00  0.00    +0.006 C 
ATOM     28  C   UNL     1      31.980 -10.434 -21.099  0.00  0.00    +0.006 C 
ATOM     29  C   UNL     1      31.515 -11.459 -20.275  0.00  0.00    +0.075 C 
BRANCH  29  31
ATOM     30  O   UNL     1      29.492 -11.075 -19.057  0.00  0.00    -0.245 OA
ATOM     31  C   UNL     1      30.725 -11.142 -19.095  0.00  0.00    +0.338 C 
BRANCH  31  32
ATOM     32  O   UNL     1      31.496 -10.915 -17.997  0.00  0.00    -0.477 OA
ATOM     33  H   UNL     1      32.042 -10.155 -17.957  0.00  0.00    +0.295 HD
ENDBRANCH  31  32
ENDBRANCH  29  31
ENDBRANCH  23  24
ENDBRANCH   3  23
TORSDOF 7
ENDMDL
