MODEL 1
REMARK VINA RESULT:     -11.4      0.000      0.000
REMARK  Name = 4413
REMARK  6 active torsions:
REMARK  status: ('A' for Active; 'I' for Inactive)
REMARK    1  A    between atoms: O_1  and  C_9
REMARK    2  A    between atoms: O_1  and  C_19
REMARK    3  A    between atoms: C_6  and  C_14
REMARK    4  A    between atoms: C_19  and  C_20
REMARK    5  A    between atoms: C_23  and  N_26
REMARK    6  A    between atoms: N_26  and  C_29
REMARK                            x       y       z     vdW  Elec       q    Type
REMARK                         _______ _______ _______ _____ _____    ______ ____
ROOT
ATOM      1  O   UNL     1      35.946 -18.217 -21.760  0.00  0.00    -0.421 OA
ENDROOT
BRANCH   1   9
ATOM      2  C   UNL     1      33.770 -14.685 -22.180  0.00  0.00    +0.000 C 
ATOM      3  C   UNL     1      33.700 -15.420 -20.972  0.00  0.00    +0.003 C 
ATOM      4  C   UNL     1      33.031 -13.498 -22.306  0.00  0.00    +0.003 C 
ATOM      5  C   UNL     1      34.439 -16.607 -20.848  0.00  0.00    +0.038 C 
ATOM      6  C   UNL     1      32.235 -13.040 -21.255  0.00  0.00    +0.031 C 
ATOM      7  C   UNL     1      32.895 -14.945 -19.925  0.00  0.00    +0.000 C 
ATOM      8  C   UNL     1      34.577 -15.161 -23.228  0.00  0.00    +0.003 C 
ATOM      9  C   UNL     1      35.236 -17.065 -21.898  0.00  0.00    +0.149 C 
ATOM     10  C   UNL     1      32.167 -13.763 -20.067  0.00  0.00    +0.003 C 
ATOM     11  C   UNL     1      35.304 -16.342 -23.085  0.00  0.00    +0.038 C 
BRANCH   6  14
ATOM     12  N   UNL     1      32.023 -10.689 -22.025  0.00  0.00    -0.343 N 
ATOM     13  N   UNL     1      30.242 -11.738 -20.933  0.00  0.00    -0.285 NA
ATOM     14  C   UNL     1      31.476 -11.809 -21.401  0.00  0.00    +0.117 C 
ATOM     15  H   UNL     1      31.490  -9.866 -22.112  0.00  0.00    +0.144 HD
ATOM     16  H   UNL     1      32.941 -10.721 -22.377  0.00  0.00    +0.144 HD
ATOM     17  H   UNL     1      29.726 -10.905 -21.031  0.00  0.00    +0.188 HD
ENDBRANCH   6  14
ENDBRANCH   1   9
BRANCH   1  19
ATOM     18  O   UNL     1      35.221 -19.671 -23.429  0.00  0.00    -0.244 OA
ATOM     19  C   UNL     1      35.302 -19.354 -22.252  0.00  0.00    +0.346 C 
BRANCH  19  20
ATOM     20  C   UNL     1      34.720 -20.162 -21.151  0.00  0.00    +0.076 C 
ATOM     21  C   UNL     1      33.352 -20.157 -20.970  0.00  0.00    +0.008 C 
ATOM     22  C   UNL     1      35.565 -20.895 -20.343  0.00  0.00    +0.008 C 
ATOM     23  C   UNL     1      33.638 -21.668 -19.108  0.00  0.00    +0.084 C 
ATOM     24  C   UNL     1      32.806 -20.918 -19.938  0.00  0.00    +0.019 C 
ATOM     25  C   UNL     1      35.018 -21.657 -19.310  0.00  0.00    +0.019 C 
BRANCH  23  26
ATOM     26  N   UNL     1      33.090 -22.430 -18.071  0.00  0.00    -0.214 NA
BRANCH  26  29
ATOM     27  N   UNL     1      33.649 -24.606 -18.711  0.00  0.00    -0.370 N 
ATOM     28  N   UNL     1      34.226 -23.964 -16.599  0.00  0.00    -0.370 N 
ATOM     29  C   UNL     1      33.632 -23.590 -17.784  0.00  0.00    +0.193 C 
ATOM     30  H   UNL     1      33.254 -24.467 -19.602  0.00  0.00    +0.159 HD
ATOM     31  H   UNL     1      34.058 -25.473 -18.484  0.00  0.00    +0.159 HD
ATOM     32  H   UNL     1      34.279 -23.325 -15.852  0.00  0.00    +0.159 HD
ATOM     33  H   UNL     1      34.601 -24.870 -16.499  0.00  0.00    +0.159 HD
ENDBRANCH  26  29
ENDBRANCH  23  26
ENDBRANCH  19  20
ENDBRANCH   1  19
TORSDOF 6
ENDMDL
MODEL 2
REMARK VINA RESULT:     -11.1      1.045      1.654
REMARK  Name = 4413
REMARK  6 active torsions:
REMARK  status: ('A' for Active; 'I' for Inactive)
REMARK    1  A    between atoms: O_1  and  C_9
REMARK    2  A    between atoms: O_1  and  C_19
REMARK    3  A    between atoms: C_6  and  C_14
REMARK    4  A    between atoms: C_19  and  C_20
REMARK    5  A    between atoms: C_23  and  N_26
REMARK    6  A    between atoms: N_26  and  C_29
REMARK                            x       y       z     vdW  Elec       q    Type
REMARK                         _______ _______ _______ _____ _____    ______ ____
ROOT
ATOM      1  O   UNL     1      36.026 -19.008 -22.223  0.00  0.00    -0.421 OA
ENDROOT
BRANCH   1   9
ATOM      2  C   UNL     1      34.007 -15.380 -22.607  0.00  0.00    +0.000 C 
ATOM      3  C   UNL     1      34.150 -15.978 -21.332  0.00  0.00    +0.003 C 
ATOM      4  C   UNL     1      33.325 -14.157 -22.719  0.00  0.00    +0.003 C 
ATOM      5  C   UNL     1      34.833 -17.201 -21.221  0.00  0.00    +0.038 C 
ATOM      6  C   UNL     1      32.791 -13.534 -21.591  0.00  0.00    +0.031 C 
ATOM      7  C   UNL     1      33.607 -15.337 -20.208  0.00  0.00    +0.000 C 
ATOM      8  C   UNL     1      34.551 -16.022 -23.733  0.00  0.00    +0.003 C 
ATOM      9  C   UNL     1      35.366 -17.825 -22.350  0.00  0.00    +0.149 C 
ATOM     10  C   UNL     1      32.932 -14.123 -20.337  0.00  0.00    +0.003 C 
ATOM     11  C   UNL     1      35.225 -17.235 -23.602  0.00  0.00    +0.038 C 
BRANCH   6  14
ATOM     12  N   UNL     1      32.620 -11.216 -22.467  0.00  0.00    -0.343 N 
ATOM     13  N   UNL     1      30.919 -12.101 -21.130  0.00  0.00    -0.285 NA
ATOM     14  C   UNL     1      32.087 -12.269 -21.724  0.00  0.00    +0.117 C 
ATOM     15  H   UNL     1      32.125 -10.369 -22.543  0.00  0.00    +0.144 HD
ATOM     16  H   UNL     1      33.490 -11.321 -22.915  0.00  0.00    +0.144 HD
ATOM     17  H   UNL     1      30.440 -11.245 -21.219  0.00  0.00    +0.188 HD
ENDBRANCH   6  14
ENDBRANCH   1   9
BRANCH   1  19
ATOM     18  O   UNL     1      37.395 -18.713 -20.361  0.00  0.00    -0.244 OA
ATOM     19  C   UNL     1      36.475 -19.282 -20.930  0.00  0.00    +0.346 C 
BRANCH  19  20
ATOM     20  C   UNL     1      35.678 -20.365 -20.301  0.00  0.00    +0.076 C 
ATOM     21  C   UNL     1      36.331 -21.338 -19.573  0.00  0.00    +0.008 C 
ATOM     22  C   UNL     1      34.307 -20.364 -20.463  0.00  0.00    +0.008 C 
ATOM     23  C   UNL     1      34.195 -22.376 -19.129  0.00  0.00    +0.084 C 
ATOM     24  C   UNL     1      35.581 -22.354 -18.981  0.00  0.00    +0.019 C 
ATOM     25  C   UNL     1      33.557 -21.381 -19.870  0.00  0.00    +0.019 C 
BRANCH  23  26
ATOM     26  N   UNL     1      33.443 -23.395 -18.537  0.00  0.00    -0.214 NA
BRANCH  26  29
ATOM     27  N   UNL     1      31.746 -22.799 -17.046  0.00  0.00    -0.370 N 
ATOM     28  N   UNL     1      33.734 -23.464 -16.145  0.00  0.00    -0.370 N 
ATOM     29  C   UNL     1      33.024 -23.238 -17.303  0.00  0.00    +0.193 C 
ATOM     30  H   UNL     1      31.134 -22.601 -17.791  0.00  0.00    +0.159 HD
ATOM     31  H   UNL     1      31.443 -22.685 -16.116  0.00  0.00    +0.159 HD
ATOM     32  H   UNL     1      34.664 -23.782 -16.192  0.00  0.00    +0.159 HD
ATOM     33  H   UNL     1      33.310 -23.310 -15.269  0.00  0.00    +0.159 HD
ENDBRANCH  26  29
ENDBRANCH  23  26
ENDBRANCH  19  20
ENDBRANCH   1  19
TORSDOF 6
ENDMDL
MODEL 3
REMARK VINA RESULT:     -10.7      1.752      8.919
REMARK  Name = 4413
REMARK  6 active torsions:
REMARK  status: ('A' for Active; 'I' for Inactive)
REMARK    1  A    between atoms: O_1  and  C_9
REMARK    2  A    between atoms: O_1  and  C_19
REMARK    3  A    between atoms: C_6  and  C_14
REMARK    4  A    between atoms: C_19  and  C_20
REMARK    5  A    between atoms: C_23  and  N_26
REMARK    6  A    between atoms: N_26  and  C_29
REMARK                            x       y       z     vdW  Elec       q    Type
REMARK                         _______ _______ _______ _____ _____    ______ ____
ROOT
ATOM      1  O   UNL     1      36.118 -17.459 -22.824  0.00  0.00    -0.421 OA
ENDROOT
BRANCH   1   9
ATOM      2  C   UNL     1      35.792 -20.610 -20.112  0.00  0.00    +0.000 C 
ATOM      3  C   UNL     1      34.626 -20.049 -20.689  0.00  0.00    +0.003 C 
ATOM      4  C   UNL     1      35.664 -21.671 -19.201  0.00  0.00    +0.003 C 
ATOM      5  C   UNL     1      34.755 -18.989 -21.601  0.00  0.00    +0.038 C 
ATOM      6  C   UNL     1      34.407 -22.172 -18.864  0.00  0.00    +0.031 C 
ATOM      7  C   UNL     1      33.370 -20.567 -20.339  0.00  0.00    +0.000 C 
ATOM      8  C   UNL     1      37.049 -20.092 -20.463  0.00  0.00    +0.003 C 
ATOM      9  C   UNL     1      36.012 -18.486 -21.938  0.00  0.00    +0.149 C 
ATOM     10  C   UNL     1      33.261 -21.622 -19.431  0.00  0.00    +0.003 C 
ATOM     11  C   UNL     1      37.156 -19.038 -21.370  0.00  0.00    +0.038 C 
BRANCH   6  14
ATOM     12  N   UNL     1      34.904 -23.218 -16.667  0.00  0.00    -0.343 N 
ATOM     13  N   UNL     1      33.598 -24.348 -18.242  0.00  0.00    -0.285 NA
ATOM     14  C   UNL     1      34.292 -23.271 -17.918  0.00  0.00    +0.117 C 
ATOM     15  H   UNL     1      34.812 -23.973 -16.042  0.00  0.00    +0.144 HD
ATOM     16  H   UNL     1      35.427 -22.425 -16.408  0.00  0.00    +0.144 HD
ATOM     17  H   UNL     1      33.519 -25.093 -17.603  0.00  0.00    +0.188 HD
ENDBRANCH   6  14
ENDBRANCH   1   9
BRANCH   1  19
ATOM     18  O   UNL     1      34.491 -18.150 -24.343  0.00  0.00    -0.244 OA
ATOM     19  C   UNL     1      34.999 -17.287 -23.642  0.00  0.00    +0.346 C 
BRANCH  19  20
ATOM     20  C   UNL     1      34.476 -15.900 -23.554  0.00  0.00    +0.076 C 
ATOM     21  C   UNL     1      34.667 -15.187 -22.389  0.00  0.00    +0.008 C 
ATOM     22  C   UNL     1      33.815 -15.367 -24.642  0.00  0.00    +0.008 C 
ATOM     23  C   UNL     1      33.507 -13.322 -23.393  0.00  0.00    +0.084 C 
ATOM     24  C   UNL     1      34.177 -13.884 -22.307  0.00  0.00    +0.019 C 
ATOM     25  C   UNL     1      33.325 -14.063 -24.560  0.00  0.00    +0.019 C 
BRANCH  23  26
ATOM     26  N   UNL     1      33.014 -12.016 -23.311  0.00  0.00    -0.214 NA
BRANCH  26  29
ATOM     27  N   UNL     1      33.568  -9.752 -23.150  0.00  0.00    -0.370 N 
ATOM     28  N   UNL     1      34.922 -11.064 -24.436  0.00  0.00    -0.370 N 
ATOM     29  C   UNL     1      33.806 -11.019 -23.629  0.00  0.00    +0.193 C 
ATOM     30  H   UNL     1      32.797  -9.586 -22.560  0.00  0.00    +0.159 HD
ATOM     31  H   UNL     1      34.169  -9.012 -23.396  0.00  0.00    +0.159 HD
ATOM     32  H   UNL     1      35.201 -11.915 -24.843  0.00  0.00    +0.159 HD
ATOM     33  H   UNL     1      35.441 -10.244 -24.604  0.00  0.00    +0.159 HD
ENDBRANCH  26  29
ENDBRANCH  23  26
ENDBRANCH  19  20
ENDBRANCH   1  19
TORSDOF 6
ENDMDL
MODEL 4
REMARK VINA RESULT:     -10.6      1.207      2.117
REMARK  Name = 4413
REMARK  6 active torsions:
REMARK  status: ('A' for Active; 'I' for Inactive)
REMARK    1  A    between atoms: O_1  and  C_9
REMARK    2  A    between atoms: O_1  and  C_19
REMARK    3  A    between atoms: C_6  and  C_14
REMARK    4  A    between atoms: C_19  and  C_20
REMARK    5  A    between atoms: C_23  and  N_26
REMARK    6  A    between atoms: N_26  and  C_29
REMARK                            x       y       z     vdW  Elec       q    Type
REMARK                         _______ _______ _______ _____ _____    ______ ____
ROOT
ATOM      1  O   UNL     1      35.609 -18.954 -22.109  0.00  0.00    -0.421 OA
ENDROOT
BRANCH   1   9
ATOM      2  C   UNL     1      34.150 -15.060 -21.794  0.00  0.00    +0.000 C 
ATOM      3  C   UNL     1      34.399 -15.621 -23.070  0.00  0.00    +0.003 C 
ATOM      4  C   UNL     1      33.659 -13.747 -21.706  0.00  0.00    +0.003 C 
ATOM      5  C   UNL     1      34.890 -16.934 -23.158  0.00  0.00    +0.038 C 
ATOM      6  C   UNL     1      33.415 -13.000 -22.858  0.00  0.00    +0.031 C 
ATOM      7  C   UNL     1      34.148 -14.855 -24.218  0.00  0.00    +0.000 C 
ATOM      8  C   UNL     1      34.402 -15.828 -20.645  0.00  0.00    +0.003 C 
ATOM      9  C   UNL     1      35.134 -17.683 -22.006  0.00  0.00    +0.149 C 
ATOM     10  C   UNL     1      33.660 -13.552 -24.112  0.00  0.00    +0.003 C 
ATOM     11  C   UNL     1      34.890 -17.130 -20.752  0.00  0.00    +0.038 C 
BRANCH   6  14
ATOM     12  N   UNL     1      33.450 -10.601 -23.501  0.00  0.00    -0.343 N 
ATOM     13  N   UNL     1      31.911 -11.376 -21.922  0.00  0.00    -0.285 NA
ATOM     14  C   UNL     1      32.907 -11.642 -22.749  0.00  0.00    +0.117 C 
ATOM     15  H   UNL     1      33.089  -9.690 -23.412  0.00  0.00    +0.144 HD
ATOM     16  H   UNL     1      34.194 -10.778 -24.121  0.00  0.00    +0.144 HD
ATOM     17  H   UNL     1      31.565 -10.457 -21.847  0.00  0.00    +0.188 HD
ENDBRANCH   6  14
ENDBRANCH   1   9
BRANCH   1  19
ATOM     18  O   UNL     1      37.353 -19.004 -20.565  0.00  0.00    -0.244 OA
ATOM     19  C   UNL     1      36.276 -19.414 -20.972  0.00  0.00    +0.346 C 
BRANCH  19  20
ATOM     20  C   UNL     1      35.502 -20.480 -20.288  0.00  0.00    +0.076 C 
ATOM     21  C   UNL     1      34.127 -20.484 -20.401  0.00  0.00    +0.008 C 
ATOM     22  C   UNL     1      36.183 -21.437 -19.563  0.00  0.00    +0.008 C 
ATOM     23  C   UNL     1      34.065 -22.466 -19.021  0.00  0.00    +0.084 C 
ATOM     24  C   UNL     1      33.401 -21.488 -19.760  0.00  0.00    +0.019 C 
ATOM     25  C   UNL     1      35.456 -22.441 -18.922  0.00  0.00    +0.019 C 
BRANCH  23  26
ATOM     26  N   UNL     1      33.337 -23.471 -18.378  0.00  0.00    -0.214 NA
BRANCH  26  29
ATOM     27  N   UNL     1      31.663 -22.889 -16.857  0.00  0.00    -0.370 N 
ATOM     28  N   UNL     1      33.708 -23.421 -15.996  0.00  0.00    -0.370 N 
ATOM     29  C   UNL     1      32.951 -23.279 -17.138  0.00  0.00    +0.193 C 
ATOM     30  H   UNL     1      31.018 -22.752 -17.588  0.00  0.00    +0.159 HD
ATOM     31  H   UNL     1      31.384 -22.747 -15.922  0.00  0.00    +0.159 HD
ATOM     32  H   UNL     1      34.650 -23.697 -16.062  0.00  0.00    +0.159 HD
ATOM     33  H   UNL     1      33.306 -23.247 -15.113  0.00  0.00    +0.159 HD
ENDBRANCH  26  29
ENDBRANCH  23  26
ENDBRANCH  19  20
ENDBRANCH   1  19
TORSDOF 6
ENDMDL
MODEL 5
REMARK VINA RESULT:     -10.5      4.438      6.941
REMARK  Name = 4413
REMARK  6 active torsions:
REMARK  status: ('A' for Active; 'I' for Inactive)
REMARK    1  A    between atoms: O_1  and  C_9
REMARK    2  A    between atoms: O_1  and  C_19
REMARK    3  A    between atoms: C_6  and  C_14
REMARK    4  A    between atoms: C_19  and  C_20
REMARK    5  A    between atoms: C_23  and  N_26
REMARK    6  A    between atoms: N_26  and  C_29
REMARK                            x       y       z     vdW  Elec       q    Type
REMARK                         _______ _______ _______ _____ _____    ______ ____
ROOT
ATOM      1  O   UNL     1      34.220 -23.831 -17.817  0.00  0.00    -0.421 OA
ENDROOT
BRANCH   1   9
ATOM      2  C   UNL     1      34.135 -20.424 -20.220  0.00  0.00    +0.000 C 
ATOM      3  C   UNL     1      35.375 -20.996 -19.847  0.00  0.00    +0.003 C 
ATOM      4  C   UNL     1      34.124 -19.277 -21.030  0.00  0.00    +0.003 C 
ATOM      5  C   UNL     1      35.385 -22.144 -19.037  0.00  0.00    +0.038 C 
ATOM      6  C   UNL     1      35.318 -18.703 -21.466  0.00  0.00    +0.031 C 
ATOM      7  C   UNL     1      36.566 -20.406 -20.296  0.00  0.00    +0.000 C 
ATOM      8  C   UNL     1      32.943 -21.016 -19.771  0.00  0.00    +0.003 C 
ATOM      9  C   UNL     1      34.191 -22.719 -18.600  0.00  0.00    +0.149 C 
ATOM     10  C   UNL     1      36.537 -19.265 -21.100  0.00  0.00    +0.003 C 
ATOM     11  C   UNL     1      32.973 -22.155 -18.967  0.00  0.00    +0.038 C 
BRANCH   6  14
ATOM     12  N   UNL     1      34.959 -16.265 -21.781  0.00  0.00    -0.343 N 
ATOM     13  N   UNL     1      35.579 -17.609 -23.590  0.00  0.00    -0.285 NA
ATOM     14  C   UNL     1      35.290 -17.514 -22.304  0.00  0.00    +0.117 C 
ATOM     15  H   UNL     1      34.947 -15.475 -22.367  0.00  0.00    +0.144 HD
ATOM     16  H   UNL     1      34.738 -16.175 -20.826  0.00  0.00    +0.144 HD
ATOM     17  H   UNL     1      35.560 -16.806 -24.159  0.00  0.00    +0.188 HD
ENDBRANCH   6  14
ENDBRANCH   1   9
BRANCH   1  19
ATOM     18  O   UNL     1      33.050 -23.165 -15.915  0.00  0.00    -0.244 OA
ATOM     19  C   UNL     1      34.067 -23.579 -16.452  0.00  0.00    +0.346 C 
BRANCH  19  20
ATOM     20  C   UNL     1      35.312 -23.889 -15.705  0.00  0.00    +0.076 C 
ATOM     21  C   UNL     1      35.397 -25.081 -15.016  0.00  0.00    +0.008 C 
ATOM     22  C   UNL     1      36.346 -22.976 -15.725  0.00  0.00    +0.008 C 
ATOM     23  C   UNL     1      37.628 -24.467 -14.320  0.00  0.00    +0.084 C 
ATOM     24  C   UNL     1      36.567 -25.373 -14.316  0.00  0.00    +0.019 C 
ATOM     25  C   UNL     1      37.517 -23.268 -15.024  0.00  0.00    +0.019 C 
BRANCH  23  26
ATOM     26  N   UNL     1      38.800 -24.759 -13.617  0.00  0.00    -0.214 NA
BRANCH  26  29
ATOM     27  N   UNL     1      40.054 -25.602 -15.399  0.00  0.00    -0.370 N 
ATOM     28  N   UNL     1      40.136 -26.757 -13.434  0.00  0.00    -0.370 N 
ATOM     29  C   UNL     1      39.617 -25.667 -14.097  0.00  0.00    +0.193 C 
ATOM     30  H   UNL     1      39.755 -24.867 -15.983  0.00  0.00    +0.159 HD
ATOM     31  H   UNL     1      40.667 -26.289 -15.748  0.00  0.00    +0.159 HD
ATOM     32  H   UNL     1      39.900 -26.918 -12.492  0.00  0.00    +0.159 HD
ATOM     33  H   UNL     1      40.744 -27.375 -13.901  0.00  0.00    +0.159 HD
ENDBRANCH  26  29
ENDBRANCH  23  26
ENDBRANCH  19  20
ENDBRANCH   1  19
TORSDOF 6
ENDMDL
MODEL 6
REMARK VINA RESULT:     -10.5      5.207      7.801
REMARK  Name = 4413
REMARK  6 active torsions:
REMARK  status: ('A' for Active; 'I' for Inactive)
REMARK    1  A    between atoms: O_1  and  C_9
REMARK    2  A    between atoms: O_1  and  C_19
REMARK    3  A    between atoms: C_6  and  C_14
REMARK    4  A    between atoms: C_19  and  C_20
REMARK    5  A    between atoms: C_23  and  N_26
REMARK    6  A    between atoms: N_26  and  C_29
REMARK                            x       y       z     vdW  Elec       q    Type
REMARK                         _______ _______ _______ _____ _____    ______ ____
ROOT
ATOM      1  O   UNL     1      33.685 -24.020 -16.582  0.00  0.00    -0.421 OA
ENDROOT
BRANCH   1   9
ATOM      2  C   UNL     1      35.405 -21.381 -19.313  0.00  0.00    +0.000 C 
ATOM      3  C   UNL     1      34.006 -21.596 -19.321  0.00  0.00    +0.003 C 
ATOM      4  C   UNL     1      35.969 -20.489 -20.239  0.00  0.00    +0.003 C 
ATOM      5  C   UNL     1      33.443 -22.488 -18.395  0.00  0.00    +0.038 C 
ATOM      6  C   UNL     1      35.165 -19.817 -21.160  0.00  0.00    +0.031 C 
ATOM      7  C   UNL     1      33.212 -20.911 -20.255  0.00  0.00    +0.000 C 
ATOM      8  C   UNL     1      36.200 -22.066 -18.379  0.00  0.00    +0.003 C 
ATOM      9  C   UNL     1      34.247 -23.160 -17.473  0.00  0.00    +0.149 C 
ATOM     10  C   UNL     1      33.789 -20.028 -21.169  0.00  0.00    +0.003 C 
ATOM     11  C   UNL     1      35.622 -22.949 -17.466  0.00  0.00    +0.038 C 
BRANCH   6  14
ATOM     12  N   UNL     1      37.137 -18.658 -22.126  0.00  0.00    -0.343 N 
ATOM     13  N   UNL     1      35.000 -18.266 -22.988  0.00  0.00    -0.285 NA
ATOM     14  C   UNL     1      35.764 -18.896 -22.113  0.00  0.00    +0.117 C 
ATOM     15  H   UNL     1      37.521 -18.031 -22.781  0.00  0.00    +0.144 HD
ATOM     16  H   UNL     1      37.723 -19.116 -21.481  0.00  0.00    +0.144 HD
ATOM     17  H   UNL     1      35.404 -17.642 -23.634  0.00  0.00    +0.188 HD
ENDBRANCH   6  14
ENDBRANCH   1   9
BRANCH   1  19
ATOM     18  O   UNL     1      33.089 -22.998 -14.575  0.00  0.00    -0.244 OA
ATOM     19  C   UNL     1      33.865 -23.663 -15.244  0.00  0.00    +0.346 C 
BRANCH  19  20
ATOM     20  C   UNL     1      35.140 -24.206 -14.709  0.00  0.00    +0.076 C 
ATOM     21  C   UNL     1      35.996 -23.359 -14.037  0.00  0.00    +0.008 C 
ATOM     22  C   UNL     1      35.425 -25.543 -14.898  0.00  0.00    +0.008 C 
ATOM     23  C   UNL     1      37.504 -25.218 -13.710  0.00  0.00    +0.084 C 
ATOM     24  C   UNL     1      37.192 -23.871 -13.533  0.00  0.00    +0.019 C 
ATOM     25  C   UNL     1      36.621 -26.055 -14.393  0.00  0.00    +0.019 C 
BRANCH  23  26
ATOM     26  N   UNL     1      38.703 -25.731 -13.206  0.00  0.00    -0.214 NA
BRANCH  26  29
ATOM     27  N   UNL     1      40.651 -26.910 -13.729  0.00  0.00    -0.370 N 
ATOM     28  N   UNL     1      39.904 -25.403 -15.270  0.00  0.00    -0.370 N 
ATOM     29  C   UNL     1      39.685 -25.982 -14.039  0.00  0.00    +0.193 C 
ATOM     30  H   UNL     1      40.609 -27.397 -12.874  0.00  0.00    +0.159 HD
ATOM     31  H   UNL     1      41.383 -27.090 -14.362  0.00  0.00    +0.159 HD
ATOM     32  H   UNL     1      39.282 -24.720 -15.610  0.00  0.00    +0.159 HD
ATOM     33  H   UNL     1      40.681 -25.674 -15.811  0.00  0.00    +0.159 HD
ENDBRANCH  26  29
ENDBRANCH  23  26
ENDBRANCH  19  20
ENDBRANCH   1  19
TORSDOF 6
ENDMDL
MODEL 7
REMARK VINA RESULT:     -10.5      2.471      3.566
REMARK  Name = 4413
REMARK  6 active torsions:
REMARK  status: ('A' for Active; 'I' for Inactive)
REMARK    1  A    between atoms: O_1  and  C_9
REMARK    2  A    between atoms: O_1  and  C_19
REMARK    3  A    between atoms: C_6  and  C_14
REMARK    4  A    between atoms: C_19  and  C_20
REMARK    5  A    between atoms: C_23  and  N_26
REMARK    6  A    between atoms: N_26  and  C_29
REMARK                            x       y       z     vdW  Elec       q    Type
REMARK                         _______ _______ _______ _____ _____    ______ ____
ROOT
ATOM      1  O   UNL     1      35.842 -20.608 -20.515  0.00  0.00    -0.421 OA
ENDROOT
BRANCH   1   9
ATOM      2  C   UNL     1      34.899 -17.332 -22.916  0.00  0.00    +0.000 C 
ATOM      3  C   UNL     1      34.918 -17.194 -21.507  0.00  0.00    +0.003 C 
ATOM      4  C   UNL     1      34.579 -16.218 -23.710  0.00  0.00    +0.003 C 
ATOM      5  C   UNL     1      35.238 -18.308 -20.713  0.00  0.00    +0.038 C 
ATOM      6  C   UNL     1      34.284 -14.987 -23.124  0.00  0.00    +0.031 C 
ATOM      7  C   UNL     1      34.620 -15.948 -20.934  0.00  0.00    +0.000 C 
ATOM      8  C   UNL     1      35.198 -18.579 -23.489  0.00  0.00    +0.003 C 
ATOM      9  C   UNL     1      35.533 -19.540 -21.299  0.00  0.00    +0.149 C 
ATOM     10  C   UNL     1      34.304 -14.852 -21.739  0.00  0.00    +0.003 C 
ATOM     11  C   UNL     1      35.513 -19.674 -22.684  0.00  0.00    +0.038 C 
BRANCH   6  14
ATOM     12  N   UNL     1      34.289 -12.546 -23.578  0.00  0.00    -0.343 N 
ATOM     13  N   UNL     1      33.323 -14.028 -25.106  0.00  0.00    -0.285 NA
ATOM     14  C   UNL     1      33.955 -13.844 -23.960  0.00  0.00    +0.117 C 
ATOM     15  H   UNL     1      34.057 -11.787 -24.161  0.00  0.00    +0.144 HD
ATOM     16  H   UNL     1      34.758 -12.388 -22.727  0.00  0.00    +0.144 HD
ATOM     17  H   UNL     1      33.099 -13.254 -25.674  0.00  0.00    +0.188 HD
ENDBRANCH   6  14
ENDBRANCH   1   9
BRANCH   1  19
ATOM     18  O   UNL     1      33.597 -21.197 -20.319  0.00  0.00    -0.244 OA
ATOM     19  C   UNL     1      34.743 -21.204 -19.895  0.00  0.00    +0.346 C 
BRANCH  19  20
ATOM     20  C   UNL     1      35.136 -21.877 -18.631  0.00  0.00    +0.076 C 
ATOM     21  C   UNL     1      36.441 -21.769 -18.195  0.00  0.00    +0.008 C 
ATOM     22  C   UNL     1      34.183 -22.587 -17.929  0.00  0.00    +0.008 C 
ATOM     23  C   UNL     1      35.865 -23.122 -16.279  0.00  0.00    +0.084 C 
ATOM     24  C   UNL     1      36.809 -22.399 -17.007  0.00  0.00    +0.019 C 
ATOM     25  C   UNL     1      34.552 -23.217 -16.740  0.00  0.00    +0.019 C 
BRANCH  23  26
ATOM     26  N   UNL     1      36.234 -23.755 -15.089  0.00  0.00    -0.214 NA
BRANCH  26  29
ATOM     27  N   UNL     1      36.308 -26.068 -15.408  0.00  0.00    -0.370 N 
ATOM     28  N   UNL     1      34.698 -25.264 -14.006  0.00  0.00    -0.370 N 
ATOM     29  C   UNL     1      35.755 -24.949 -14.831  0.00  0.00    +0.193 C 
ATOM     30  H   UNL     1      37.073 -25.979 -16.021  0.00  0.00    +0.159 HD
ATOM     31  H   UNL     1      35.940 -26.959 -15.207  0.00  0.00    +0.159 HD
ATOM     32  H   UNL     1      34.215 -24.550 -13.531  0.00  0.00    +0.159 HD
ATOM     33  H   UNL     1      34.427 -26.204 -13.889  0.00  0.00    +0.159 HD
ENDBRANCH  26  29
ENDBRANCH  23  26
ENDBRANCH  19  20
ENDBRANCH   1  19
TORSDOF 6
ENDMDL
MODEL 8
REMARK VINA RESULT:     -10.4      2.391      9.245
REMARK  Name = 4413
REMARK  6 active torsions:
REMARK  status: ('A' for Active; 'I' for Inactive)
REMARK    1  A    between atoms: O_1  and  C_9
REMARK    2  A    between atoms: O_1  and  C_19
REMARK    3  A    between atoms: C_6  and  C_14
REMARK    4  A    between atoms: C_19  and  C_20
REMARK    5  A    between atoms: C_23  and  N_26
REMARK    6  A    between atoms: N_26  and  C_29
REMARK                            x       y       z     vdW  Elec       q    Type
REMARK                         _______ _______ _______ _____ _____    ______ ____
ROOT
ATOM      1  O   UNL     1      35.551 -20.423 -21.159  0.00  0.00    -0.421 OA
ENDROOT
BRANCH   1   9
ATOM      2  C   UNL     1      34.539 -22.584 -17.739  0.00  0.00    +0.000 C 
ATOM      3  C   UNL     1      35.880 -22.183 -17.951  0.00  0.00    +0.003 C 
ATOM      4  C   UNL     1      34.214 -23.311 -16.582  0.00  0.00    +0.003 C 
ATOM      5  C   UNL     1      36.203 -21.456 -19.109  0.00  0.00    +0.038 C 
ATOM      6  C   UNL     1      35.198 -23.637 -15.648  0.00  0.00    +0.031 C 
ATOM      7  C   UNL     1      36.856 -22.519 -17.001  0.00  0.00    +0.000 C 
ATOM      8  C   UNL     1      33.562 -22.247 -18.691  0.00  0.00    +0.003 C 
ATOM      9  C   UNL     1      35.220 -21.129 -20.044  0.00  0.00    +0.149 C 
ATOM     10  C   UNL     1      36.516 -23.242 -15.856  0.00  0.00    +0.003 C 
ATOM     11  C   UNL     1      33.903 -21.524 -19.834  0.00  0.00    +0.038 C 
BRANCH   6  14
ATOM     12  N   UNL     1      34.120 -23.808 -13.416  0.00  0.00    -0.343 N 
ATOM     13  N   UNL     1      35.218 -25.653 -14.340  0.00  0.00    -0.285 NA
ATOM     14  C   UNL     1      34.846 -24.390 -14.455  0.00  0.00    +0.117 C 
ATOM     15  H   UNL     1      33.893 -24.337 -12.619  0.00  0.00    +0.144 HD
ATOM     16  H   UNL     1      33.836 -22.868 -13.482  0.00  0.00    +0.144 HD
ATOM     17  H   UNL     1      34.981 -26.165 -13.533  0.00  0.00    +0.188 HD
ENDBRANCH   6  14
ENDBRANCH   1   9
BRANCH   1  19
ATOM     18  O   UNL     1      37.112 -19.029 -20.134  0.00  0.00    -0.244 OA
ATOM     19  C   UNL     1      36.177 -19.202 -20.902  0.00  0.00    +0.346 C 
BRANCH  19  20
ATOM     20  C   UNL     1      35.567 -18.107 -21.699  0.00  0.00    +0.076 C 
ATOM     21  C   UNL     1      35.481 -18.245 -23.068  0.00  0.00    +0.008 C 
ATOM     22  C   UNL     1      35.104 -16.984 -21.043  0.00  0.00    +0.008 C 
ATOM     23  C   UNL     1      34.430 -16.073 -23.177  0.00  0.00    +0.084 C 
ATOM     24  C   UNL     1      34.907 -17.217 -23.815  0.00  0.00    +0.019 C 
ATOM     25  C   UNL     1      34.529 -15.956 -21.790  0.00  0.00    +0.019 C 
BRANCH  23  26
ATOM     26  N   UNL     1      33.855 -15.042 -23.926  0.00  0.00    -0.214 NA
BRANCH  26  29
ATOM     27  N   UNL     1      32.450 -13.720 -22.609  0.00  0.00    -0.370 N 
ATOM     28  N   UNL     1      34.384 -12.762 -23.348  0.00  0.00    -0.370 N 
ATOM     29  C   UNL     1      33.603 -13.897 -23.337  0.00  0.00    +0.193 C 
ATOM     30  H   UNL     1      31.803 -14.458 -22.523  0.00  0.00    +0.159 HD
ATOM     31  H   UNL     1      32.271 -12.856 -22.172  0.00  0.00    +0.159 HD
ATOM     32  H   UNL     1      35.239 -12.759 -23.835  0.00  0.00    +0.159 HD
ATOM     33  H   UNL     1      34.089 -11.956 -22.865  0.00  0.00    +0.159 HD
ENDBRANCH  26  29
ENDBRANCH  23  26
ENDBRANCH  19  20
ENDBRANCH   1  19
TORSDOF 6
ENDMDL
MODEL 9
REMARK VINA RESULT:     -10.4      4.885     11.766
REMARK  Name = 4413
REMARK  6 active torsions:
REMARK  status: ('A' for Active; 'I' for Inactive)
REMARK    1  A    between atoms: O_1  and  C_9
REMARK    2  A    between atoms: O_1  and  C_19
REMARK    3  A    between atoms: C_6  and  C_14
REMARK    4  A    between atoms: C_19  and  C_20
REMARK    5  A    between atoms: C_23  and  N_26
REMARK    6  A    between atoms: N_26  and  C_29
REMARK                            x       y       z     vdW  Elec       q    Type
REMARK                         _______ _______ _______ _____ _____    ______ ____
ROOT
ATOM      1  O   UNL     1      31.226 -10.737 -21.347  0.00  0.00    -0.421 OA
ENDROOT
BRANCH   1   9
ATOM      2  C   UNL     1      33.148 -14.429 -21.091  0.00  0.00    +0.000 C 
ATOM      3  C   UNL     1      33.346 -13.605 -22.225  0.00  0.00    +0.003 C 
ATOM      4  C   UNL     1      33.804 -15.669 -21.020  0.00  0.00    +0.003 C 
ATOM      5  C   UNL     1      32.691 -12.365 -22.295  0.00  0.00    +0.038 C 
ATOM      6  C   UNL     1      34.642 -16.090 -22.052  0.00  0.00    +0.031 C 
ATOM      7  C   UNL     1      34.194 -14.044 -23.254  0.00  0.00    +0.000 C 
ATOM      8  C   UNL     1      32.300 -13.988 -20.061  0.00  0.00    +0.003 C 
ATOM      9  C   UNL     1      31.852 -11.942 -21.263  0.00  0.00    +0.149 C 
ATOM     10  C   UNL     1      34.837 -15.280 -23.167  0.00  0.00    +0.003 C 
ATOM     11  C   UNL     1      31.658 -12.753 -20.149  0.00  0.00    +0.038 C 
BRANCH   6  14
ATOM     12  N   UNL     1      35.487 -18.022 -20.741  0.00  0.00    -0.343 N 
ATOM     13  N   UNL     1      35.774 -17.955 -23.060  0.00  0.00    -0.285 NA
ATOM     14  C   UNL     1      35.313 -17.377 -21.964  0.00  0.00    +0.117 C 
ATOM     15  H   UNL     1      35.944 -18.894 -20.705  0.00  0.00    +0.144 HD
ATOM     16  H   UNL     1      35.153 -17.607 -19.913  0.00  0.00    +0.144 HD
ATOM     17  H   UNL     1      36.228 -18.827 -23.002  0.00  0.00    +0.188 HD
ENDBRANCH   6  14
ENDBRANCH   1   9
BRANCH   1  19
ATOM     18  O   UNL     1      32.264  -9.887 -19.442  0.00  0.00    -0.244 OA
ATOM     19  C   UNL     1      31.799  -9.735 -20.562  0.00  0.00    +0.346 C 
BRANCH  19  20
ATOM     20  C   UNL     1      31.789  -8.428 -21.266  0.00  0.00    +0.076 C 
ATOM     21  C   UNL     1      32.340  -7.328 -20.640  0.00  0.00    +0.008 C 
ATOM     22  C   UNL     1      31.231  -8.354 -22.526  0.00  0.00    +0.008 C 
ATOM     23  C   UNL     1      31.776  -6.000 -22.577  0.00  0.00    +0.084 C 
ATOM     24  C   UNL     1      32.333  -6.102 -21.303  0.00  0.00    +0.019 C 
ATOM     25  C   UNL     1      31.224  -7.126 -23.189  0.00  0.00    +0.019 C 
BRANCH  23  26
ATOM     26  N   UNL     1      31.767  -4.770 -23.242  0.00  0.00    -0.214 NA
BRANCH  26  29
ATOM     27  N   UNL     1      30.266  -3.199 -24.101  0.00  0.00    -0.370 N 
ATOM     28  N   UNL     1      30.047  -3.748 -21.897  0.00  0.00    -0.370 N 
ATOM     29  C   UNL     1      30.750  -3.961 -23.062  0.00  0.00    +0.193 C 
ATOM     30  H   UNL     1      30.682  -3.259 -24.991  0.00  0.00    +0.159 HD
ATOM     31  H   UNL     1      29.502  -2.595 -23.954  0.00  0.00    +0.159 HD
ATOM     32  H   UNL     1      30.295  -4.234 -21.078  0.00  0.00    +0.159 HD
ATOM     33  H   UNL     1      29.296  -3.110 -21.883  0.00  0.00    +0.159 HD
ENDBRANCH  26  29
ENDBRANCH  23  26
ENDBRANCH  19  20
ENDBRANCH   1  19
TORSDOF 6
ENDMDL
