MODEL 1
REMARK VINA RESULT:     -11.5      0.000      0.000
REMARK  Name = 447656
REMARK  5 active torsions:
REMARK  status: ('A' for Active; 'I' for Inactive)
REMARK    1  A    between atoms: N_5  and  C_14
REMARK    2  A    between atoms: C_6  and  O_25
REMARK    3  A    between atoms: C_17  and  C_22
REMARK    4  A    between atoms: O_25  and  C_26
REMARK    5  A    between atoms: C_26  and  C_27
REMARK                            x       y       z     vdW  Elec       q    Type
REMARK                         _______ _______ _______ _____ _____    ______ ____
ROOT
ATOM      1  N   UNL     1      33.139 -23.785 -15.730  0.00  0.00    -0.293 NA
ATOM      2  N   UNL     1      29.738 -22.801 -16.727  0.00  0.00    -0.266 NA
ATOM      3  N   UNL     1      31.502 -23.885 -13.924  0.00  0.00    -0.316 NA
ATOM      4  N   UNL     1      29.258 -23.233 -14.594  0.00  0.00    -0.296 N 
ATOM      5  N   UNL     1      33.743 -24.458 -13.570  0.00  0.00    -0.238 N 
ATOM      6  C   UNL     1      32.206 -23.363 -16.610  0.00  0.00    +0.288 C 
ATOM      7  C   UNL     1      30.914 -23.199 -16.156  0.00  0.00    +0.215 C 
ATOM      8  C   UNL     1      30.589 -23.461 -14.831  0.00  0.00    +0.196 C 
ATOM      9  C   UNL     1      32.735 -24.018 -14.459  0.00  0.00    +0.207 C 
ATOM     10  C   UNL     1      28.776 -22.838 -15.753  0.00  0.00    +0.164 C 
ATOM     11  H   UNL     1      29.608 -22.537 -17.667  0.00  0.00    +0.126 HD
ATOM     12  H   UNL     1      28.770 -23.341 -13.745  0.00  0.00    +0.150 HD
ATOM     13  H   UNL     1      33.420 -24.619 -12.654  0.00  0.00    +0.166 HD
ENDROOT
BRANCH   5  14
ATOM     14  C   UNL     1      35.115 -24.711 -13.739  0.00  0.00    +0.058 C 
ATOM     15  C   UNL     1      36.062 -23.890 -13.120  0.00  0.00    +0.015 C 
ATOM     16  C   UNL     1      35.539 -25.784 -14.526  0.00  0.00    +0.015 C 
ATOM     17  C   UNL     1      37.843 -25.213 -14.074  0.00  0.00    +0.053 C 
ATOM     18  C   UNL     1      37.424 -24.141 -13.287  0.00  0.00    +0.006 C 
ATOM     19  C   UNL     1      36.901 -26.035 -14.693  0.00  0.00    +0.006 C 
BRANCH  17  22
ATOM     20  O   UNL     1      39.984 -24.720 -14.925  0.00  0.00    -0.270 OA
ATOM     21  N   UNL     1      39.797 -26.593 -13.615  0.00  0.00    -0.325 N 
ATOM     22  C   UNL     1      39.262 -25.475 -14.248  0.00  0.00    +0.243 C 
ATOM     23  H   UNL     1      40.755 -26.803 -13.711  0.00  0.00    +0.145 HD
ATOM     24  H   UNL     1      39.218 -27.176 -13.072  0.00  0.00    +0.145 HD
ENDBRANCH  17  22
ENDBRANCH   5  14
BRANCH   6  25
ATOM     25  O   UNL     1      32.582 -23.118 -17.909  0.00  0.00    -0.453 OA
BRANCH  25  26
ATOM     26  C   UNL     1      33.967 -23.158 -18.195  0.00  0.00    +0.208 C 
BRANCH  26  27
ATOM     27  C   UNL     1      34.369 -21.831 -18.835  0.00  0.00    +0.044 C 
ATOM     28  C   UNL     1      35.745 -21.945 -19.504  0.00  0.00    +0.004 C 
ATOM     29  C   UNL     1      33.308 -21.373 -19.845  0.00  0.00    +0.004 C 
ATOM     30  C   UNL     1      36.145 -20.645 -20.198  0.00  0.00    +0.000 C 
ATOM     31  C   UNL     1      33.712 -20.075 -20.538  0.00  0.00    +0.000 C 
ATOM     32  C   UNL     1      35.084 -20.189 -21.194  0.00  0.00    +0.000 C 
ENDBRANCH  26  27
ENDBRANCH  25  26
ENDBRANCH   6  25
TORSDOF 5
ENDMDL
MODEL 2
REMARK VINA RESULT:     -11.2      2.064      6.685
REMARK  Name = 447656
REMARK  5 active torsions:
REMARK  status: ('A' for Active; 'I' for Inactive)
REMARK    1  A    between atoms: N_5  and  C_14
REMARK    2  A    between atoms: C_6  and  O_25
REMARK    3  A    between atoms: C_17  and  C_22
REMARK    4  A    between atoms: O_25  and  C_26
REMARK    5  A    between atoms: C_26  and  C_27
REMARK                            x       y       z     vdW  Elec       q    Type
REMARK                         _______ _______ _______ _____ _____    ______ ____
ROOT
ATOM      1  N   UNL     1      33.538 -23.828 -15.494  0.00  0.00    -0.293 NA
ATOM      2  N   UNL     1      37.186 -24.278 -15.366  0.00  0.00    -0.266 NA
ATOM      3  N   UNL     1      34.314 -25.155 -13.599  0.00  0.00    -0.316 NA
ATOM      4  N   UNL     1      36.726 -25.447 -13.525  0.00  0.00    -0.296 N 
ATOM      5  N   UNL     1      32.039 -24.711 -13.926  0.00  0.00    -0.238 N 
ATOM      6  C   UNL     1      34.799 -23.656 -15.945  0.00  0.00    +0.288 C 
ATOM      7  C   UNL     1      35.828 -24.232 -15.228  0.00  0.00    +0.215 C 
ATOM      8  C   UNL     1      35.567 -24.965 -14.078  0.00  0.00    +0.196 C 
ATOM      9  C   UNL     1      33.375 -24.556 -14.364  0.00  0.00    +0.207 C 
ATOM     10  C   UNL     1      37.679 -25.016 -14.324  0.00  0.00    +0.164 C 
ATOM     11  H   UNL     1      37.713 -23.858 -16.085  0.00  0.00    +0.126 HD
ATOM     12  H   UNL     1      36.823 -25.993 -12.712  0.00  0.00    +0.150 HD
ATOM     13  H   UNL     1      31.951 -25.244 -13.103  0.00  0.00    +0.166 HD
ENDROOT
BRANCH   5  14
ATOM     14  C   UNL     1      30.812 -24.252 -14.436  0.00  0.00    +0.058 C 
ATOM     15  C   UNL     1      29.986 -25.116 -15.160  0.00  0.00    +0.015 C 
ATOM     16  C   UNL     1      30.413 -22.931 -14.221  0.00  0.00    +0.015 C 
ATOM     17  C   UNL     1      28.373 -23.341 -15.450  0.00  0.00    +0.053 C 
ATOM     18  C   UNL     1      28.768 -24.661 -15.666  0.00  0.00    +0.006 C 
ATOM     19  C   UNL     1      29.195 -22.476 -14.727  0.00  0.00    +0.006 C 
BRANCH  17  22
ATOM     20  O   UNL     1      26.138 -22.632 -15.228  0.00  0.00    -0.270 OA
ATOM     21  N   UNL     1      27.008 -22.663 -17.350  0.00  0.00    -0.325 N 
ATOM     22  C   UNL     1      27.104 -22.867 -15.976  0.00  0.00    +0.243 C 
ATOM     23  H   UNL     1      26.163 -22.343 -17.742  0.00  0.00    +0.145 HD
ATOM     24  H   UNL     1      27.784 -22.841 -17.930  0.00  0.00    +0.145 HD
ENDBRANCH  17  22
ENDBRANCH   5  14
BRANCH   6  25
ATOM     25  O   UNL     1      35.000 -22.923 -17.089  0.00  0.00    -0.453 OA
BRANCH  25  26
ATOM     26  C   UNL     1      33.960 -22.931 -18.049  0.00  0.00    +0.208 C 
BRANCH  26  27
ATOM     27  C   UNL     1      34.445 -22.194 -19.296  0.00  0.00    +0.044 C 
ATOM     28  C   UNL     1      33.457 -21.089 -19.692  0.00  0.00    +0.004 C 
ATOM     29  C   UNL     1      35.849 -21.616 -19.072  0.00  0.00    +0.004 C 
ATOM     30  C   UNL     1      33.947 -20.303 -20.906  0.00  0.00    +0.000 C 
ATOM     31  C   UNL     1      36.334 -20.828 -20.286  0.00  0.00    +0.000 C 
ATOM     32  C   UNL     1      35.345 -19.738 -20.682  0.00  0.00    +0.000 C 
ENDBRANCH  26  27
ENDBRANCH  25  26
ENDBRANCH   6  25
TORSDOF 5
ENDMDL
MODEL 3
REMARK VINA RESULT:     -11.0      2.556      6.892
REMARK  Name = 447656
REMARK  5 active torsions:
REMARK  status: ('A' for Active; 'I' for Inactive)
REMARK    1  A    between atoms: N_5  and  C_14
REMARK    2  A    between atoms: C_6  and  O_25
REMARK    3  A    between atoms: C_17  and  C_22
REMARK    4  A    between atoms: O_25  and  C_26
REMARK    5  A    between atoms: C_26  and  C_27
REMARK                            x       y       z     vdW  Elec       q    Type
REMARK                         _______ _______ _______ _____ _____    ______ ____
ROOT
ATOM      1  N   UNL     1      33.967 -22.982 -16.256  0.00  0.00    -0.293 NA
ATOM      2  N   UNL     1      32.887 -24.843 -13.274  0.00  0.00    -0.266 NA
ATOM      3  N   UNL     1      31.697 -23.866 -16.399  0.00  0.00    -0.316 NA
ATOM      4  N   UNL     1      30.994 -25.094 -14.423  0.00  0.00    -0.296 N 
ATOM      5  N   UNL     1      32.640 -22.641 -18.156  0.00  0.00    -0.238 N 
ATOM      6  C   UNL     1      34.135 -23.496 -15.019  0.00  0.00    +0.288 C 
ATOM      7  C   UNL     1      33.087 -24.198 -14.461  0.00  0.00    +0.215 C 
ATOM      8  C   UNL     1      31.897 -24.368 -15.157  0.00  0.00    +0.196 C 
ATOM      9  C   UNL     1      32.775 -23.195 -16.862  0.00  0.00    +0.207 C 
ATOM     10  C   UNL     1      31.621 -25.363 -13.297  0.00  0.00    +0.164 C 
ATOM     11  H   UNL     1      33.536 -24.919 -12.537  0.00  0.00    +0.126 HD
ATOM     12  H   UNL     1      30.080 -25.355 -14.680  0.00  0.00    +0.150 HD
ATOM     13  H   UNL     1      31.764 -22.811 -18.571  0.00  0.00    +0.166 HD
ENDROOT
BRANCH   5  14
ATOM     14  C   UNL     1      33.514 -21.894 -18.966  0.00  0.00    +0.058 C 
ATOM     15  C   UNL     1      33.010 -20.908 -19.818  0.00  0.00    +0.015 C 
ATOM     16  C   UNL     1      34.889 -22.133 -18.921  0.00  0.00    +0.015 C 
ATOM     17  C   UNL     1      35.249 -20.407 -20.574  0.00  0.00    +0.053 C 
ATOM     18  C   UNL     1      33.876 -20.166 -20.621  0.00  0.00    +0.006 C 
ATOM     19  C   UNL     1      35.756 -21.390 -19.724  0.00  0.00    +0.006 C 
BRANCH  17  22
ATOM     20  O   UNL     1      35.830 -19.281 -22.559  0.00  0.00    -0.270 OA
ATOM     21  N   UNL     1      37.388 -19.281 -20.875  0.00  0.00    -0.325 N 
ATOM     22  C   UNL     1      36.152 -19.634 -21.410  0.00  0.00    +0.243 C 
ATOM     23  H   UNL     1      38.026 -18.758 -21.413  0.00  0.00    +0.145 HD
ATOM     24  H   UNL     1      37.625 -19.556 -19.960  0.00  0.00    +0.145 HD
ENDBRANCH  17  22
ENDBRANCH   5  14
BRANCH   6  25
ATOM     25  O   UNL     1      35.333 -23.298 -14.376  0.00  0.00    -0.453 OA
BRANCH  25  26
ATOM     26  C   UNL     1      36.508 -23.636 -15.089  0.00  0.00    +0.208 C 
BRANCH  26  27
ATOM     27  C   UNL     1      37.283 -24.675 -14.281  0.00  0.00    +0.044 C 
ATOM     28  C   UNL     1      37.340 -24.277 -12.800  0.00  0.00    +0.004 C 
ATOM     29  C   UNL     1      36.662 -26.067 -14.450  0.00  0.00    +0.004 C 
ATOM     30  C   UNL     1      38.064 -25.328 -11.961  0.00  0.00    +0.000 C 
ATOM     31  C   UNL     1      37.387 -27.114 -13.608  0.00  0.00    +0.000 C 
ATOM     32  C   UNL     1      37.449 -26.712 -12.139  0.00  0.00    +0.000 C 
ENDBRANCH  26  27
ENDBRANCH  25  26
ENDBRANCH   6  25
TORSDOF 5
ENDMDL
MODEL 4
REMARK VINA RESULT:     -10.8      7.480     10.678
REMARK  Name = 447656
REMARK  5 active torsions:
REMARK  status: ('A' for Active; 'I' for Inactive)
REMARK    1  A    between atoms: N_5  and  C_14
REMARK    2  A    between atoms: C_6  and  O_25
REMARK    3  A    between atoms: C_17  and  C_22
REMARK    4  A    between atoms: O_25  and  C_26
REMARK    5  A    between atoms: C_26  and  C_27
REMARK                            x       y       z     vdW  Elec       q    Type
REMARK                         _______ _______ _______ _____ _____    ______ ____
ROOT
ATOM      1  N   UNL     1      34.500 -16.271 -22.838  0.00  0.00    -0.293 NA
ATOM      2  N   UNL     1      33.378 -13.423 -24.876  0.00  0.00    -0.266 NA
ATOM      3  N   UNL     1      34.455 -16.718 -25.236  0.00  0.00    -0.316 NA
ATOM      4  N   UNL     1      33.711 -14.829 -26.574  0.00  0.00    -0.296 N 
ATOM      5  N   UNL     1      35.129 -18.354 -23.705  0.00  0.00    -0.238 N 
ATOM      6  C   UNL     1      34.061 -15.007 -23.021  0.00  0.00    +0.288 C 
ATOM      7  C   UNL     1      33.815 -14.588 -24.312  0.00  0.00    +0.215 C 
ATOM      8  C   UNL     1      34.015 -15.444 -25.387  0.00  0.00    +0.196 C 
ATOM      9  C   UNL     1      34.668 -17.038 -23.941  0.00  0.00    +0.207 C 
ATOM     10  C   UNL     1      33.332 -13.616 -26.231  0.00  0.00    +0.164 C 
ATOM     11  H   UNL     1      33.139 -12.597 -24.396  0.00  0.00    +0.126 HD
ATOM     12  H   UNL     1      33.765 -15.209 -27.480  0.00  0.00    +0.150 HD
ATOM     13  H   UNL     1      35.242 -18.887 -24.524  0.00  0.00    +0.166 HD
ENDROOT
BRANCH   5  14
ATOM     14  C   UNL     1      35.458 -19.049 -22.528  0.00  0.00    +0.058 C 
ATOM     15  C   UNL     1      34.505 -19.855 -21.900  0.00  0.00    +0.015 C 
ATOM     16  C   UNL     1      36.738 -18.936 -21.981  0.00  0.00    +0.015 C 
ATOM     17  C   UNL     1      36.110 -20.431 -20.189  0.00  0.00    +0.053 C 
ATOM     18  C   UNL     1      34.831 -20.546 -20.732  0.00  0.00    +0.006 C 
ATOM     19  C   UNL     1      37.064 -19.626 -20.813  0.00  0.00    +0.006 C 
BRANCH  17  22
ATOM     20  O   UNL     1      37.242 -20.676 -18.138  0.00  0.00    -0.270 OA
ATOM     21  N   UNL     1      35.844 -22.385 -18.759  0.00  0.00    -0.325 N 
ATOM     22  C   UNL     1      36.450 -21.150 -18.972  0.00  0.00    +0.243 C 
ATOM     23  H   UNL     1      36.050 -22.901 -17.946  0.00  0.00    +0.145 HD
ATOM     24  H   UNL     1      35.209 -22.743 -19.421  0.00  0.00    +0.145 HD
ENDBRANCH  17  22
ENDBRANCH   5  14
BRANCH   6  25
ATOM     25  O   UNL     1      33.879 -14.202 -21.923  0.00  0.00    -0.453 OA
BRANCH  25  26
ATOM     26  C   UNL     1      32.802 -14.523 -21.063  0.00  0.00    +0.208 C 
BRANCH  26  27
ATOM     27  C   UNL     1      31.937 -13.277 -20.885  0.00  0.00    +0.044 C 
ATOM     28  C   UNL     1      31.979 -12.791 -19.430  0.00  0.00    +0.004 C 
ATOM     29  C   UNL     1      32.383 -12.166 -21.844  0.00  0.00    +0.004 C 
ATOM     30  C   UNL     1      31.163 -11.514 -19.238  0.00  0.00    +0.000 C 
ATOM     31  C   UNL     1      31.567 -10.890 -21.648  0.00  0.00    +0.000 C 
ATOM     32  C   UNL     1      31.604 -10.416 -20.199  0.00  0.00    +0.000 C 
ENDBRANCH  26  27
ENDBRANCH  25  26
ENDBRANCH   6  25
TORSDOF 5
ENDMDL
MODEL 5
REMARK VINA RESULT:     -10.5      6.065      8.895
REMARK  Name = 447656
REMARK  5 active torsions:
REMARK  status: ('A' for Active; 'I' for Inactive)
REMARK    1  A    between atoms: N_5  and  C_14
REMARK    2  A    between atoms: C_6  and  O_25
REMARK    3  A    between atoms: C_17  and  C_22
REMARK    4  A    between atoms: O_25  and  C_26
REMARK    5  A    between atoms: C_26  and  C_27
REMARK                            x       y       z     vdW  Elec       q    Type
REMARK                         _______ _______ _______ _____ _____    ______ ____
ROOT
ATOM      1  N   UNL     1      34.711 -18.028 -20.900  0.00  0.00    -0.293 NA
ATOM      2  N   UNL     1      34.766 -15.069 -23.083  0.00  0.00    -0.266 NA
ATOM      3  N   UNL     1      35.249 -18.517 -23.229  0.00  0.00    -0.316 NA
ATOM      4  N   UNL     1      35.283 -16.554 -24.663  0.00  0.00    -0.296 N 
ATOM      5  N   UNL     1      35.146 -20.214 -21.621  0.00  0.00    -0.238 N 
ATOM      6  C   UNL     1      34.590 -16.709 -21.160  0.00  0.00    +0.288 C 
ATOM      7  C   UNL     1      34.798 -16.282 -22.455  0.00  0.00    +0.215 C 
ATOM      8  C   UNL     1      35.121 -17.187 -23.457  0.00  0.00    +0.196 C 
ATOM      9  C   UNL     1      35.029 -18.840 -21.936  0.00  0.00    +0.207 C 
ATOM     10  C   UNL     1      35.062 -15.283 -24.402  0.00  0.00    +0.164 C 
ATOM     11  H   UNL     1      34.565 -14.201 -22.663  0.00  0.00    +0.126 HD
ATOM     12  H   UNL     1      35.513 -16.959 -25.530  0.00  0.00    +0.150 HD
ATOM     13  H   UNL     1      35.378 -20.779 -22.393  0.00  0.00    +0.166 HD
ENDROOT
BRANCH   5  14
ATOM     14  C   UNL     1      34.995 -20.930 -20.420  0.00  0.00    +0.058 C 
ATOM     15  C   UNL     1      36.120 -21.318 -19.689  0.00  0.00    +0.015 C 
ATOM     16  C   UNL     1      33.719 -21.256 -19.953  0.00  0.00    +0.015 C 
ATOM     17  C   UNL     1      34.696 -22.352 -18.034  0.00  0.00    +0.053 C 
ATOM     18  C   UNL     1      35.972 -22.028 -18.498  0.00  0.00    +0.006 C 
ATOM     19  C   UNL     1      33.570 -21.966 -18.761  0.00  0.00    +0.006 C 
BRANCH  17  22
ATOM     20  O   UNL     1      33.416 -23.335 -16.319  0.00  0.00    -0.270 OA
ATOM     21  N   UNL     1      35.695 -23.539 -16.156  0.00  0.00    -0.325 N 
ATOM     22  C   UNL     1      34.541 -23.092 -16.793  0.00  0.00    +0.243 C 
ATOM     23  H   UNL     1      35.628 -24.043 -15.312  0.00  0.00    +0.145 HD
ATOM     24  H   UNL     1      36.578 -23.351 -16.548  0.00  0.00    +0.145 HD
ENDBRANCH  17  22
ENDBRANCH   5  14
BRANCH   6  25
ATOM     25  O   UNL     1      34.268 -15.857 -20.131  0.00  0.00    -0.453 OA
BRANCH  25  26
ATOM     26  C   UNL     1      32.915 -15.452 -20.033  0.00  0.00    +0.208 C 
BRANCH  26  27
ATOM     27  C   UNL     1      32.835 -13.956 -20.332  0.00  0.00    +0.044 C 
ATOM     28  C   UNL     1      32.304 -13.715 -21.752  0.00  0.00    +0.004 C 
ATOM     29  C   UNL     1      31.959 -13.241 -19.294  0.00  0.00    +0.004 C 
ATOM     30  C   UNL     1      32.165 -12.225 -22.056  0.00  0.00    +0.000 C 
ATOM     31  C   UNL     1      31.820 -11.753 -19.603  0.00  0.00    +0.000 C 
ATOM     32  C   UNL     1      31.302 -11.517 -21.018  0.00  0.00    +0.000 C 
ENDBRANCH  26  27
ENDBRANCH  25  26
ENDBRANCH   6  25
TORSDOF 5
ENDMDL
MODEL 6
REMARK VINA RESULT:     -10.4      1.907      6.566
REMARK  Name = 447656
REMARK  5 active torsions:
REMARK  status: ('A' for Active; 'I' for Inactive)
REMARK    1  A    between atoms: N_5  and  C_14
REMARK    2  A    between atoms: C_6  and  O_25
REMARK    3  A    between atoms: C_17  and  C_22
REMARK    4  A    between atoms: O_25  and  C_26
REMARK    5  A    between atoms: C_26  and  C_27
REMARK                            x       y       z     vdW  Elec       q    Type
REMARK                         _______ _______ _______ _____ _____    ______ ____
ROOT
ATOM      1  N   UNL     1      35.264 -24.451 -14.374  0.00  0.00    -0.293 NA
ATOM      2  N   UNL     1      38.842 -25.133 -13.864  0.00  0.00    -0.266 NA
ATOM      3  N   UNL     1      35.764 -25.674 -12.322  0.00  0.00    -0.316 NA
ATOM      4  N   UNL     1      38.131 -26.119 -11.996  0.00  0.00    -0.296 N 
ATOM      5  N   UNL     1      33.568 -25.106 -12.897  0.00  0.00    -0.238 N 
ATOM      6  C   UNL     1      36.570 -24.401 -14.713  0.00  0.00    +0.288 C 
ATOM      7  C   UNL     1      37.484 -24.986 -13.861  0.00  0.00    +0.215 C 
ATOM      8  C   UNL     1      37.066 -25.606 -12.691  0.00  0.00    +0.196 C 
ATOM      9  C   UNL     1      34.945 -25.076 -13.215  0.00  0.00    +0.207 C 
ATOM     10  C   UNL     1      39.182 -25.818 -12.728  0.00  0.00    +0.164 C 
ATOM     11  H   UNL     1      39.461 -24.807 -14.557  0.00  0.00    +0.126 HD
ATOM     12  H   UNL     1      38.114 -26.605 -11.140  0.00  0.00    +0.150 HD
ATOM     13  H   UNL     1      33.366 -25.565 -12.050  0.00  0.00    +0.166 HD
ENDROOT
BRANCH   5  14
ATOM     14  C   UNL     1      32.429 -24.607 -13.555  0.00  0.00    +0.058 C 
ATOM     15  C   UNL     1      31.259 -25.369 -13.606  0.00  0.00    +0.015 C 
ATOM     16  C   UNL     1      32.463 -23.349 -14.160  0.00  0.00    +0.015 C 
ATOM     17  C   UNL     1      30.166 -23.617 -14.861  0.00  0.00    +0.053 C 
ATOM     18  C   UNL     1      30.129 -24.875 -14.258  0.00  0.00    +0.006 C 
ATOM     19  C   UNL     1      31.333 -22.854 -14.812  0.00  0.00    +0.006 C 
BRANCH  17  22
ATOM     20  O   UNL     1      28.202 -22.322 -14.973  0.00  0.00    -0.270 OA
ATOM     21  N   UNL     1      28.778 -23.493 -16.859  0.00  0.00    -0.325 N 
ATOM     22  C   UNL     1      28.989 -23.102 -15.540  0.00  0.00    +0.243 C 
ATOM     23  H   UNL     1      27.990 -23.164 -17.350  0.00  0.00    +0.145 HD
ATOM     24  H   UNL     1      29.415 -24.101 -17.300  0.00  0.00    +0.145 HD
ENDBRANCH  17  22
ENDBRANCH   5  14
BRANCH   6  25
ATOM     25  O   UNL     1      36.928 -23.775 -15.882  0.00  0.00    -0.453 OA
BRANCH  25  26
ATOM     26  C   UNL     1      36.294 -22.542 -16.171  0.00  0.00    +0.208 C 
BRANCH  26  27
ATOM     27  C   UNL     1      35.762 -22.595 -17.602  0.00  0.00    +0.044 C 
ATOM     28  C   UNL     1      34.230 -22.521 -17.614  0.00  0.00    +0.004 C 
ATOM     29  C   UNL     1      36.370 -21.469 -18.449  0.00  0.00    +0.004 C 
ATOM     30  C   UNL     1      33.676 -22.519 -19.037  0.00  0.00    +0.000 C 
ATOM     31  C   UNL     1      35.812 -21.468 -19.870  0.00  0.00    +0.000 C 
ATOM     32  C   UNL     1      34.289 -21.404 -19.877  0.00  0.00    +0.000 C 
ENDBRANCH  26  27
ENDBRANCH  25  26
ENDBRANCH   6  25
TORSDOF 5
ENDMDL
MODEL 7
REMARK VINA RESULT:      -9.0      3.005      6.583
REMARK  Name = 447656
REMARK  5 active torsions:
REMARK  status: ('A' for Active; 'I' for Inactive)
REMARK    1  A    between atoms: N_5  and  C_14
REMARK    2  A    between atoms: C_6  and  O_25
REMARK    3  A    between atoms: C_17  and  C_22
REMARK    4  A    between atoms: O_25  and  C_26
REMARK    5  A    between atoms: C_26  and  C_27
REMARK                            x       y       z     vdW  Elec       q    Type
REMARK                         _______ _______ _______ _____ _____    ______ ____
ROOT
ATOM      1  N   UNL     1      34.476 -22.139 -18.255  0.00  0.00    -0.293 NA
ATOM      2  N   UNL     1      36.323 -20.439 -20.942  0.00  0.00    -0.266 NA
ATOM      3  N   UNL     1      33.051 -21.055 -19.912  0.00  0.00    -0.316 NA
ATOM      4  N   UNL     1      34.282 -19.934 -21.683  0.00  0.00    -0.296 N 
ATOM      5  N   UNL     1      32.141 -22.210 -18.092  0.00  0.00    -0.238 N 
ATOM      6  C   UNL     1      35.596 -21.744 -18.896  0.00  0.00    +0.288 C 
ATOM      7  C   UNL     1      35.455 -21.001 -20.050  0.00  0.00    +0.215 C 
ATOM      8  C   UNL     1      34.195 -20.673 -20.532  0.00  0.00    +0.196 C 
ATOM      9  C   UNL     1      33.288 -21.776 -18.794  0.00  0.00    +0.207 C 
ATOM     10  C   UNL     1      35.574 -19.812 -21.902  0.00  0.00    +0.164 C 
ATOM     11  H   UNL     1      37.306 -20.479 -20.902  0.00  0.00    +0.126 HD
ATOM     12  H   UNL     1      33.543 -19.575 -22.226  0.00  0.00    +0.150 HD
ATOM     13  H   UNL     1      31.293 -21.932 -18.508  0.00  0.00    +0.166 HD
ENDROOT
BRANCH   5  14
ATOM     14  C   UNL     1      31.974 -22.963 -16.916  0.00  0.00    +0.058 C 
ATOM     15  C   UNL     1      30.725 -23.021 -16.291  0.00  0.00    +0.015 C 
ATOM     16  C   UNL     1      33.055 -23.655 -16.367  0.00  0.00    +0.015 C 
ATOM     17  C   UNL     1      31.641 -24.458 -14.579  0.00  0.00    +0.053 C 
ATOM     18  C   UNL     1      30.559 -23.767 -15.125  0.00  0.00    +0.006 C 
ATOM     19  C   UNL     1      32.889 -24.403 -15.201  0.00  0.00    +0.006 C 
BRANCH  17  22
ATOM     20  O   UNL     1      32.441 -25.567 -12.661  0.00  0.00    -0.270 OA
ATOM     21  N   UNL     1      30.172 -25.586 -12.998  0.00  0.00    -0.325 N 
ATOM     22  C   UNL     1      31.469 -25.236 -13.364  0.00  0.00    +0.243 C 
ATOM     23  H   UNL     1      30.017 -26.114 -12.181  0.00  0.00    +0.145 HD
ATOM     24  H   UNL     1      29.410 -25.308 -13.556  0.00  0.00    +0.145 HD
ENDBRANCH  17  22
ENDBRANCH   5  14
BRANCH   6  25
ATOM     25  O   UNL     1      36.818 -22.095 -18.375  0.00  0.00    -0.453 OA
BRANCH  25  26
ATOM     26  C   UNL     1      37.100 -21.668 -17.055  0.00  0.00    +0.208 C 
BRANCH  26  27
ATOM     27  C   UNL     1      36.972 -22.869 -16.120  0.00  0.00    +0.044 C 
ATOM     28  C   UNL     1      38.357 -23.382 -15.702  0.00  0.00    +0.004 C 
ATOM     29  C   UNL     1      36.129 -22.511 -14.889  0.00  0.00    +0.004 C 
ATOM     30  C   UNL     1      38.255 -24.550 -14.724  0.00  0.00    +0.000 C 
ATOM     31  C   UNL     1      36.031 -23.680 -13.912  0.00  0.00    +0.000 C 
ATOM     32  C   UNL     1      37.409 -24.192 -13.507  0.00  0.00    +0.000 C 
ENDBRANCH  26  27
ENDBRANCH  25  26
ENDBRANCH   6  25
TORSDOF 5
ENDMDL
MODEL 8
REMARK VINA RESULT:      -9.0     13.064     17.123
REMARK  Name = 447656
REMARK  5 active torsions:
REMARK  status: ('A' for Active; 'I' for Inactive)
REMARK    1  A    between atoms: N_5  and  C_14
REMARK    2  A    between atoms: C_6  and  O_25
REMARK    3  A    between atoms: C_17  and  C_22
REMARK    4  A    between atoms: O_25  and  C_26
REMARK    5  A    between atoms: C_26  and  C_27
REMARK                            x       y       z     vdW  Elec       q    Type
REMARK                         _______ _______ _______ _____ _____    ______ ____
ROOT
ATOM      1  N   UNL     1      32.353  -9.103 -22.348  0.00  0.00    -0.293 NA
ATOM      2  N   UNL     1      31.702 -12.026 -20.213  0.00  0.00    -0.266 NA
ATOM      3  N   UNL     1      31.932  -8.555 -20.008  0.00  0.00    -0.316 NA
ATOM      4  N   UNL     1      31.502 -10.494 -18.607  0.00  0.00    -0.296 N 
ATOM      5  N   UNL     1      32.376  -6.888 -21.589  0.00  0.00    -0.238 N 
ATOM      6  C   UNL     1      32.203 -10.424 -22.110  0.00  0.00    +0.288 C 
ATOM      7  C   UNL     1      31.917 -10.821 -20.821  0.00  0.00    +0.215 C 
ATOM      8  C   UNL     1      31.788  -9.887 -19.802  0.00  0.00    +0.196 C 
ATOM      9  C   UNL     1      32.211  -8.261 -21.297  0.00  0.00    +0.207 C 
ATOM     10  C   UNL     1      31.458 -11.779 -18.889  0.00  0.00    +0.164 C 
ATOM     11  H   UNL     1      31.719 -12.909 -20.649  0.00  0.00    +0.126 HD
ATOM     12  H   UNL     1      31.363 -10.065 -17.731  0.00  0.00    +0.150 HD
ATOM     13  H   UNL     1      32.267  -6.300 -20.807  0.00  0.00    +0.166 HD
ENDROOT
BRANCH   5  14
ATOM     14  C   UNL     1      32.665  -6.197 -22.779  0.00  0.00    +0.058 C 
ATOM     15  C   UNL     1      33.774  -6.559 -23.549  0.00  0.00    +0.015 C 
ATOM     16  C   UNL     1      31.846  -5.145 -23.197  0.00  0.00    +0.015 C 
ATOM     17  C   UNL     1      33.241  -4.825 -25.144  0.00  0.00    +0.053 C 
ATOM     18  C   UNL     1      34.061  -5.874 -24.730  0.00  0.00    +0.006 C 
ATOM     19  C   UNL     1      32.133  -4.460 -24.378  0.00  0.00    +0.006 C 
BRANCH  17  22
ATOM     20  O   UNL     1      33.829  -4.718 -27.422  0.00  0.00    -0.270 OA
ATOM     21  N   UNL     1      33.472  -2.721 -26.351  0.00  0.00    -0.325 N 
ATOM     22  C   UNL     1      33.539  -4.111 -26.375  0.00  0.00    +0.243 C 
ATOM     23  H   UNL     1      33.669  -2.205 -27.166  0.00  0.00    +0.145 HD
ATOM     24  H   UNL     1      33.230  -2.254 -25.518  0.00  0.00    +0.145 HD
ENDBRANCH  17  22
ENDBRANCH   5  14
BRANCH   6  25
ATOM     25  O   UNL     1      32.341 -11.305 -23.155  0.00  0.00    -0.453 OA
BRANCH  25  26
ATOM     26  C   UNL     1      33.620 -11.881 -23.346  0.00  0.00    +0.208 C 
BRANCH  26  27
ATOM     27  C   UNL     1      33.449 -13.385 -23.548  0.00  0.00    +0.044 C 
ATOM     28  C   UNL     1      33.539 -13.746 -25.037  0.00  0.00    +0.004 C 
ATOM     29  C   UNL     1      34.491 -14.163 -22.735  0.00  0.00    +0.004 C 
ATOM     30  C   UNL     1      33.424 -15.252 -25.261  0.00  0.00    +0.000 C 
ATOM     31  C   UNL     1      34.375 -15.668 -22.963  0.00  0.00    +0.000 C 
ATOM     32  C   UNL     1      34.455 -16.022 -24.444  0.00  0.00    +0.000 C 
ENDBRANCH  26  27
ENDBRANCH  25  26
ENDBRANCH   6  25
TORSDOF 5
ENDMDL
MODEL 9
REMARK VINA RESULT:      -9.0      7.474     10.701
REMARK  Name = 447656
REMARK  5 active torsions:
REMARK  status: ('A' for Active; 'I' for Inactive)
REMARK    1  A    between atoms: N_5  and  C_14
REMARK    2  A    between atoms: C_6  and  O_25
REMARK    3  A    between atoms: C_17  and  C_22
REMARK    4  A    between atoms: O_25  and  C_26
REMARK    5  A    between atoms: C_26  and  C_27
REMARK                            x       y       z     vdW  Elec       q    Type
REMARK                         _______ _______ _______ _____ _____    ______ ____
ROOT
ATOM      1  N   UNL     1      34.380 -16.159 -22.698  0.00  0.00    -0.293 NA
ATOM      2  N   UNL     1      33.514 -13.099 -24.544  0.00  0.00    -0.266 NA
ATOM      3  N   UNL     1      34.437 -16.408 -25.125  0.00  0.00    -0.316 NA
ATOM      4  N   UNL     1      33.863 -14.379 -26.334  0.00  0.00    -0.296 N 
ATOM      5  N   UNL     1      34.945 -18.197 -23.705  0.00  0.00    -0.238 N 
ATOM      6  C   UNL     1      34.017 -14.863 -22.797  0.00  0.00    +0.288 C 
ATOM      7  C   UNL     1      33.861 -14.328 -24.059  0.00  0.00    +0.215 C 
ATOM      8  C   UNL     1      34.072 -15.105 -25.190  0.00  0.00    +0.196 C 
ATOM      9  C   UNL     1      34.566 -16.843 -23.852  0.00  0.00    +0.207 C 
ATOM     10  C   UNL     1      33.529 -13.179 -25.911  0.00  0.00    +0.164 C 
ATOM     11  H   UNL     1      33.294 -12.302 -24.008  0.00  0.00    +0.126 HD
ATOM     12  H   UNL     1      33.944 -14.688 -27.266  0.00  0.00    +0.150 HD
ATOM     13  H   UNL     1      35.073 -18.669 -24.559  0.00  0.00    +0.166 HD
ENDROOT
BRANCH   5  14
ATOM     14  C   UNL     1      35.176 -19.002 -22.575  0.00  0.00    +0.058 C 
ATOM     15  C   UNL     1      36.407 -18.951 -21.917  0.00  0.00    +0.015 C 
ATOM     16  C   UNL     1      34.175 -19.857 -22.106  0.00  0.00    +0.015 C 
ATOM     17  C   UNL     1      35.635 -20.601 -20.330  0.00  0.00    +0.053 C 
ATOM     18  C   UNL     1      36.636 -19.749 -20.796  0.00  0.00    +0.006 C 
ATOM     19  C   UNL     1      34.404 -20.655 -20.985  0.00  0.00    +0.006 C 
BRANCH  17  22
ATOM     20  O   UNL     1      35.005 -21.581 -18.283  0.00  0.00    -0.270 OA
ATOM     21  N   UNL     1      37.103 -22.077 -19.065  0.00  0.00    -0.325 N 
ATOM     22  C   UNL     1      35.873 -21.432 -19.162  0.00  0.00    +0.243 C 
ATOM     23  H   UNL     1      37.300 -22.648 -18.287  0.00  0.00    +0.145 HD
ATOM     24  H   UNL     1      37.777 -21.961 -19.774  0.00  0.00    +0.145 HD
ENDBRANCH  17  22
ENDBRANCH   5  14
BRANCH   6  25
ATOM     25  O   UNL     1      33.820 -14.140 -21.645  0.00  0.00    -0.453 OA
BRANCH  25  26
ATOM     26  C   UNL     1      32.768 -14.558 -20.796  0.00  0.00    +0.208 C 
BRANCH  26  27
ATOM     27  C   UNL     1      31.843 -13.368 -20.548  0.00  0.00    +0.044 C 
ATOM     28  C   UNL     1      32.072 -12.785 -19.147  0.00  0.00    +0.004 C 
ATOM     29  C   UNL     1      32.042 -12.294 -21.626  0.00  0.00    +0.004 C 
ATOM     30  C   UNL     1      31.196 -11.560 -18.896  0.00  0.00    +0.000 C 
ATOM     31  C   UNL     1      31.166 -11.070 -21.370  0.00  0.00    +0.000 C 
ATOM     32  C   UNL     1      31.390 -10.499 -19.973  0.00  0.00    +0.000 C 
ENDBRANCH  26  27
ENDBRANCH  25  26
ENDBRANCH   6  25
TORSDOF 5
ENDMDL
