MODEL 1
REMARK VINA RESULT:     -11.8      0.000      0.000
REMARK  Name = 23729147
REMARK  5 active torsions:
REMARK  status: ('A' for Active; 'I' for Inactive)
REMARK    1  A    between atoms: O_1  and  C_6
REMARK    2  A    between atoms: O_1  and  C_18
REMARK    3  A    between atoms: C_18  and  C_20
REMARK    4  A    between atoms: N_19  and  C_26
REMARK    5  A    between atoms: C_26  and  C_28
REMARK                            x       y       z     vdW  Elec       q    Type
REMARK                         _______ _______ _______ _____ _____    ______ ____
ROOT
ATOM      1  O   UNL     1      34.934 -22.799 -17.170  0.00  0.00    -0.479 OA
ENDROOT
BRANCH   1   6
ATOM      2  N   UNL     1      36.207 -24.695 -12.895  0.00  0.00    -0.332 NA
ATOM      3  N   UNL     1      37.952 -23.969 -14.390  0.00  0.00    -0.317 NA
ATOM      4  N   UNL     1      37.460 -23.041 -16.473  0.00  0.00    -0.335 N 
ATOM      5  N   UNL     1      38.467 -24.898 -12.302  0.00  0.00    -0.283 N 
ATOM      6  C   UNL     1      34.647 -23.358 -15.948  0.00  0.00    +0.130 C 
ATOM      7  C   UNL     1      35.630 -23.749 -15.023  0.00  0.00    +0.177 C 
ATOM      8  C   UNL     1      33.299 -23.532 -15.648  0.00  0.00    +0.033 C 
ATOM      9  C   UNL     1      35.274 -24.318 -13.789  0.00  0.00    +0.137 C 
ATOM     10  C   UNL     1      36.994 -23.602 -15.261  0.00  0.00    +0.181 C 
ATOM     11  C   UNL     1      32.936 -24.094 -14.430  0.00  0.00    +0.005 C 
ATOM     12  C   UNL     1      33.919 -24.480 -13.514  0.00  0.00    +0.030 C 
ATOM     13  C   UNL     1      37.495 -24.500 -13.245  0.00  0.00    +0.197 C 
ATOM     14  H   UNL     1      38.427 -22.942 -16.629  0.00  0.00    +0.144 HD
ATOM     15  H   UNL     1      36.818 -22.748 -17.159  0.00  0.00    +0.144 HD
ATOM     16  H   UNL     1      38.189 -25.294 -11.445  0.00  0.00    +0.156 HD
ATOM     17  H   UNL     1      39.424 -24.779 -12.501  0.00  0.00    +0.156 HD
ENDBRANCH   1   6
BRANCH   1  18
ATOM     18  C   UNL     1      33.898 -22.794 -18.134  0.00  0.00    +0.205 C 
BRANCH  18  20
ATOM     19  N   UNL     1      35.293 -19.618 -20.708  0.00  0.00    +0.390 N 
ATOM     20  C   UNL     1      34.402 -22.077 -19.384  0.00  0.00    +0.040 C 
ATOM     21  C   UNL     1      35.791 -21.475 -19.152  0.00  0.00    -0.019 C 
ATOM     22  C   UNL     1      33.427 -20.978 -19.818  0.00  0.00    -0.019 C 
ATOM     23  C   UNL     1      36.260 -20.669 -20.365  0.00  0.00    -0.077 C 
ATOM     24  C   UNL     1      33.973 -20.188 -21.010  0.00  0.00    -0.077 C 
ATOM     25  H   UNL     1      35.193 -19.006 -19.898  0.00  0.00    -0.079 HD
BRANCH  19  26
ATOM     26  C   UNL     1      35.779 -18.825 -21.837  0.00  0.00    -0.048 C 
BRANCH  26  28
ATOM     27  F   UNL     1      35.359 -17.351 -24.222  0.00  0.00    -0.205 F 
ATOM     28  C   UNL     1      35.172 -17.447 -21.857  0.00  0.00    -0.016 C 
ATOM     29  C   UNL     1      34.994 -16.777 -23.068  0.00  0.00    +0.134 C 
ATOM     30  C   UNL     1      34.789 -16.841 -20.661  0.00  0.00    -0.004 C 
ATOM     31  C   UNL     1      34.432 -15.500 -23.082  0.00  0.00    +0.029 C 
ATOM     32  C   UNL     1      34.227 -15.564 -20.675  0.00  0.00    -0.000 C 
ATOM     33  C   UNL     1      34.049 -14.893 -21.885  0.00  0.00    +0.002 C 
ENDBRANCH  26  28
ENDBRANCH  19  26
ENDBRANCH  18  20
ENDBRANCH   1  18
TORSDOF 5
ENDMDL
MODEL 2
REMARK VINA RESULT:     -11.7      3.652     10.350
REMARK  Name = 23729147
REMARK  5 active torsions:
REMARK  status: ('A' for Active; 'I' for Inactive)
REMARK    1  A    between atoms: O_1  and  C_6
REMARK    2  A    between atoms: O_1  and  C_18
REMARK    3  A    between atoms: C_18  and  C_20
REMARK    4  A    between atoms: N_19  and  C_26
REMARK    5  A    between atoms: C_26  and  C_28
REMARK                            x       y       z     vdW  Elec       q    Type
REMARK                         _______ _______ _______ _____ _____    ______ ____
ROOT
ATOM      1  O   UNL     1      35.033 -17.930 -22.408  0.00  0.00    -0.479 OA
ENDROOT
BRANCH   1   6
ATOM      2  N   UNL     1      33.573 -13.772 -24.425  0.00  0.00    -0.332 NA
ATOM      3  N   UNL     1      33.880 -15.690 -25.852  0.00  0.00    -0.317 NA
ATOM      4  N   UNL     1      34.579 -17.743 -24.993  0.00  0.00    -0.335 N 
ATOM      5  N   UNL     1      33.177 -13.636 -26.732  0.00  0.00    -0.283 N 
ATOM      6  C   UNL     1      34.675 -16.605 -22.350  0.00  0.00    +0.130 C 
ATOM      7  C   UNL     1      34.294 -15.854 -23.475  0.00  0.00    +0.177 C 
ATOM      8  C   UNL     1      34.705 -16.009 -21.093  0.00  0.00    +0.033 C 
ATOM      9  C   UNL     1      33.939 -14.500 -23.355  0.00  0.00    +0.137 C 
ATOM     10  C   UNL     1      34.242 -16.389 -24.760  0.00  0.00    +0.181 C 
ATOM     11  C   UNL     1      34.357 -14.669 -20.962  0.00  0.00    +0.005 C 
ATOM     12  C   UNL     1      33.978 -13.929 -22.085  0.00  0.00    +0.030 C 
ATOM     13  C   UNL     1      33.563 -14.407 -25.615  0.00  0.00    +0.197 C 
ATOM     14  H   UNL     1      34.539 -18.110 -25.906  0.00  0.00    +0.144 HD
ATOM     15  H   UNL     1      34.854 -18.318 -24.243  0.00  0.00    +0.144 HD
ATOM     16  H   UNL     1      32.934 -12.689 -26.618  0.00  0.00    +0.156 HD
ATOM     17  H   UNL     1      33.150 -14.046 -27.627  0.00  0.00    +0.156 HD
ENDBRANCH   1   6
BRANCH   1  18
ATOM     18  C   UNL     1      35.791 -18.438 -21.326  0.00  0.00    +0.205 C 
BRANCH  18  20
ATOM     19  N   UNL     1      34.388 -21.878 -19.122  0.00  0.00    +0.390 N 
ATOM     20  C   UNL     1      35.324 -19.861 -21.033  0.00  0.00    +0.040 C 
ATOM     21  C   UNL     1      33.895 -19.870 -20.481  0.00  0.00    -0.019 C 
ATOM     22  C   UNL     1      36.265 -20.557 -20.045  0.00  0.00    -0.019 C 
ATOM     23  C   UNL     1      33.457 -21.283 -20.091  0.00  0.00    -0.077 C 
ATOM     24  C   UNL     1      35.749 -21.948 -19.669  0.00  0.00    -0.077 C 
ATOM     25  H   UNL     1      34.410 -21.277 -18.298  0.00  0.00    -0.079 HD
BRANCH  19  26
ATOM     26  C   UNL     1      33.928 -23.207 -18.721  0.00  0.00    -0.048 C 
BRANCH  26  28
ATOM     27  F   UNL     1      35.881 -23.224 -16.666  0.00  0.00    -0.205 F 
ATOM     28  C   UNL     1      33.581 -23.262 -17.257  0.00  0.00    -0.016 C 
ATOM     29  C   UNL     1      34.593 -23.268 -16.297  0.00  0.00    +0.134 C 
ATOM     30  C   UNL     1      32.245 -23.308 -16.862  0.00  0.00    -0.004 C 
ATOM     31  C   UNL     1      34.268 -23.320 -14.941  0.00  0.00    +0.029 C 
ATOM     32  C   UNL     1      31.919 -23.360 -15.506  0.00  0.00    -0.000 C 
ATOM     33  C   UNL     1      32.931 -23.366 -14.546  0.00  0.00    +0.002 C 
ENDBRANCH  26  28
ENDBRANCH  19  26
ENDBRANCH  18  20
ENDBRANCH   1  18
TORSDOF 5
ENDMDL
MODEL 3
REMARK VINA RESULT:     -11.6      1.030      1.226
REMARK  Name = 23729147
REMARK  5 active torsions:
REMARK  status: ('A' for Active; 'I' for Inactive)
REMARK    1  A    between atoms: O_1  and  C_6
REMARK    2  A    between atoms: O_1  and  C_18
REMARK    3  A    between atoms: C_18  and  C_20
REMARK    4  A    between atoms: N_19  and  C_26
REMARK    5  A    between atoms: C_26  and  C_28
REMARK                            x       y       z     vdW  Elec       q    Type
REMARK                         _______ _______ _______ _____ _____    ______ ____
ROOT
ATOM      1  O   UNL     1      33.987 -23.211 -17.021  0.00  0.00    -0.479 OA
ENDROOT
BRANCH   1   6
ATOM      2  N   UNL     1      34.308 -24.774 -12.445  0.00  0.00    -0.332 NA
ATOM      3  N   UNL     1      36.331 -24.615 -13.744  0.00  0.00    -0.317 NA
ATOM      4  N   UNL     1      36.299 -23.876 -15.956  0.00  0.00    -0.335 N 
ATOM      5  N   UNL     1      36.383 -25.360 -11.523  0.00  0.00    -0.283 N 
ATOM      6  C   UNL     1      33.444 -23.541 -15.802  0.00  0.00    +0.130 C 
ATOM      7  C   UNL     1      34.203 -24.005 -14.715  0.00  0.00    +0.177 C 
ATOM      8  C   UNL     1      32.066 -23.395 -15.678  0.00  0.00    +0.033 C 
ATOM      9  C   UNL     1      33.591 -24.329 -13.492  0.00  0.00    +0.137 C 
ATOM     10  C   UNL     1      35.584 -24.172 -14.772  0.00  0.00    +0.181 C 
ATOM     11  C   UNL     1      31.449 -23.713 -14.473  0.00  0.00    +0.005 C 
ATOM     12  C   UNL     1      32.211 -24.173 -13.396  0.00  0.00    +0.030 C 
ATOM     13  C   UNL     1      35.639 -24.893 -12.627  0.00  0.00    +0.197 C 
ATOM     14  H   UNL     1      37.276 -23.998 -15.985  0.00  0.00    +0.144 HD
ATOM     15  H   UNL     1      35.821 -23.547 -16.751  0.00  0.00    +0.144 HD
ATOM     16  H   UNL     1      35.928 -25.579 -10.679  0.00  0.00    +0.156 HD
ATOM     17  H   UNL     1      37.360 -25.466 -11.597  0.00  0.00    +0.156 HD
ENDBRANCH   1   6
BRANCH   1  18
ATOM     18  C   UNL     1      33.082 -22.888 -18.060  0.00  0.00    +0.205 C 
BRANCH  18  20
ATOM     19  N   UNL     1      35.252 -19.930 -20.341  0.00  0.00    +0.390 N 
ATOM     20  C   UNL     1      33.866 -22.250 -19.204  0.00  0.00    +0.040 C 
ATOM     21  C   UNL     1      35.261 -21.817 -18.742  0.00  0.00    -0.019 C 
ATOM     22  C   UNL     1      33.116 -21.045 -19.781  0.00  0.00    -0.019 C 
ATOM     23  C   UNL     1      36.016 -21.087 -19.855  0.00  0.00    -0.077 C 
ATOM     24  C   UNL     1      33.941 -20.340 -20.860  0.00  0.00    -0.077 C 
ATOM     25  H   UNL     1      35.096 -19.302 -19.553  0.00  0.00    -0.079 HD
BRANCH  19  26
ATOM     26  C   UNL     1      36.008 -19.213 -21.368  0.00  0.00    -0.048 C 
BRANCH  26  28
ATOM     27  F   UNL     1      35.547 -18.331 -24.023  0.00  0.00    -0.205 F 
ATOM     28  C   UNL     1      35.385 -17.882 -21.696  0.00  0.00    -0.016 C 
ATOM     29  C   UNL     1      35.186 -17.511 -23.027  0.00  0.00    +0.134 C 
ATOM     30  C   UNL     1      35.006 -17.021 -20.668  0.00  0.00    -0.004 C 
ATOM     31  C   UNL     1      34.610 -16.276 -23.327  0.00  0.00    +0.029 C 
ATOM     32  C   UNL     1      34.429 -15.787 -20.968  0.00  0.00    -0.000 C 
ATOM     33  C   UNL     1      34.232 -15.414 -22.298  0.00  0.00    +0.002 C 
ENDBRANCH  26  28
ENDBRANCH  19  26
ENDBRANCH  18  20
ENDBRANCH   1  18
TORSDOF 5
ENDMDL
MODEL 4
REMARK VINA RESULT:     -11.5      2.149      3.101
REMARK  Name = 23729147
REMARK  5 active torsions:
REMARK  status: ('A' for Active; 'I' for Inactive)
REMARK    1  A    between atoms: O_1  and  C_6
REMARK    2  A    between atoms: O_1  and  C_18
REMARK    3  A    between atoms: C_18  and  C_20
REMARK    4  A    between atoms: N_19  and  C_26
REMARK    5  A    between atoms: C_26  and  C_28
REMARK                            x       y       z     vdW  Elec       q    Type
REMARK                         _______ _______ _______ _____ _____    ______ ____
ROOT
ATOM      1  O   UNL     1      35.159 -22.447 -17.887  0.00  0.00    -0.479 OA
ENDROOT
BRANCH   1   6
ATOM      2  N   UNL     1      32.758 -24.351 -14.132  0.00  0.00    -0.332 NA
ATOM      3  N   UNL     1      31.499 -23.687 -16.077  0.00  0.00    -0.317 NA
ATOM      4  N   UNL     1      32.547 -22.759 -17.943  0.00  0.00    -0.335 N 
ATOM      5  N   UNL     1      30.430 -24.616 -14.211  0.00  0.00    -0.283 N 
ATOM      6  C   UNL     1      35.097 -22.992 -16.627  0.00  0.00    +0.130 C 
ATOM      7  C   UNL     1      33.900 -23.404 -16.018  0.00  0.00    +0.177 C 
ATOM      8  C   UNL     1      36.305 -23.125 -15.949  0.00  0.00    +0.033 C 
ATOM      9  C   UNL     1      33.899 -23.953 -14.725  0.00  0.00    +0.137 C 
ATOM     10  C   UNL     1      32.659 -23.299 -16.641  0.00  0.00    +0.181 C 
ATOM     11  C   UNL     1      36.316 -23.667 -14.669  0.00  0.00    +0.005 C 
ATOM     12  C   UNL     1      35.121 -24.075 -14.070  0.00  0.00    +0.030 C 
ATOM     13  C   UNL     1      31.621 -24.196 -14.840  0.00  0.00    +0.197 C 
ATOM     14  H   UNL     1      31.664 -22.690 -18.373  0.00  0.00    +0.144 HD
ATOM     15  H   UNL     1      33.352 -22.454 -18.421  0.00  0.00    +0.144 HD
ATOM     16  H   UNL     1      30.459 -24.998 -13.305  0.00  0.00    +0.156 HD
ATOM     17  H   UNL     1      29.568 -24.529 -14.681  0.00  0.00    +0.156 HD
ENDBRANCH   1   6
BRANCH   1  18
ATOM     18  C   UNL     1      36.431 -22.026 -18.343  0.00  0.00    +0.205 C 
BRANCH  18  20
ATOM     19  N   UNL     1      35.534 -18.984 -21.276  0.00  0.00    +0.390 N 
ATOM     20  C   UNL     1      36.260 -21.347 -19.699  0.00  0.00    +0.040 C 
ATOM     21  C   UNL     1      37.179 -20.128 -19.825  0.00  0.00    -0.019 C 
ATOM     22  C   UNL     1      34.805 -20.923 -19.923  0.00  0.00    -0.019 C 
ATOM     23  C   UNL     1      36.942 -19.384 -21.140  0.00  0.00    -0.077 C 
ATOM     24  C   UNL     1      34.645 -20.152 -21.236  0.00  0.00    -0.077 C 
ATOM     25  H   UNL     1      35.300 -18.384 -20.485  0.00  0.00    -0.079 HD
BRANCH  19  26
ATOM     26  C   UNL     1      35.334 -18.230 -22.513  0.00  0.00    -0.048 C 
BRANCH  26  28
ATOM     27  F   UNL     1      35.227 -16.240 -24.529  0.00  0.00    -0.205 F 
ATOM     28  C   UNL     1      34.930 -16.805 -22.242  0.00  0.00    -0.016 C 
ATOM     29  C   UNL     1      34.900 -15.876 -23.282  0.00  0.00    +0.134 C 
ATOM     30  C   UNL     1      34.588 -16.415 -20.948  0.00  0.00    -0.004 C 
ATOM     31  C   UNL     1      34.527 -14.555 -23.026  0.00  0.00    +0.029 C 
ATOM     32  C   UNL     1      34.215 -15.096 -20.692  0.00  0.00    -0.000 C 
ATOM     33  C   UNL     1      34.185 -14.166 -21.731  0.00  0.00    +0.002 C 
ENDBRANCH  26  28
ENDBRANCH  19  26
ENDBRANCH  18  20
ENDBRANCH   1  18
TORSDOF 5
ENDMDL
MODEL 5
REMARK VINA RESULT:     -11.4      5.571     11.759
REMARK  Name = 23729147
REMARK  5 active torsions:
REMARK  status: ('A' for Active; 'I' for Inactive)
REMARK    1  A    between atoms: O_1  and  C_6
REMARK    2  A    between atoms: O_1  and  C_18
REMARK    3  A    between atoms: C_18  and  C_20
REMARK    4  A    between atoms: N_19  and  C_26
REMARK    5  A    between atoms: C_26  and  C_28
REMARK                            x       y       z     vdW  Elec       q    Type
REMARK                         _______ _______ _______ _____ _____    ______ ____
ROOT
ATOM      1  O   UNL     1      33.909 -13.092 -23.106  0.00  0.00    -0.479 OA
ENDROOT
BRANCH   1   6
ATOM      2  N   UNL     1      31.997  -8.825 -21.833  0.00  0.00    -0.332 NA
ATOM      3  N   UNL     1      33.830  -8.836 -23.397  0.00  0.00    -0.317 NA
ATOM      4  N   UNL     1      34.830 -10.829 -24.082  0.00  0.00    -0.335 N 
ATOM      5  N   UNL     1      32.839  -6.824 -22.720  0.00  0.00    -0.283 N 
ATOM      6  C   UNL     1      33.015 -12.313 -22.410  0.00  0.00    +0.130 C 
ATOM      7  C   UNL     1      32.978 -10.911 -22.495  0.00  0.00    +0.177 C 
ATOM      8  C   UNL     1      32.116 -12.985 -21.588  0.00  0.00    +0.033 C 
ATOM      9  C   UNL     1      32.042 -10.167 -21.758  0.00  0.00    +0.137 C 
ATOM     10  C   UNL     1      33.847 -10.179 -23.299  0.00  0.00    +0.181 C 
ATOM     11  C   UNL     1      31.186 -12.260 -20.853  0.00  0.00    +0.005 C 
ATOM     12  C   UNL     1      31.154 -10.865 -20.944  0.00  0.00    +0.030 C 
ATOM     13  C   UNL     1      32.893  -8.233 -22.648  0.00  0.00    +0.197 C 
ATOM     14  H   UNL     1      35.438 -10.300 -24.647  0.00  0.00    +0.144 HD
ATOM     15  H   UNL     1      34.904 -11.811 -24.064  0.00  0.00    +0.144 HD
ATOM     16  H   UNL     1      32.172  -6.329 -22.192  0.00  0.00    +0.156 HD
ATOM     17  H   UNL     1      33.468  -6.336 -23.300  0.00  0.00    +0.156 HD
ENDBRANCH   1   6
BRANCH   1  18
ATOM     18  C   UNL     1      33.475 -14.386 -23.483  0.00  0.00    +0.205 C 
BRANCH  18  20
ATOM     19  N   UNL     1      35.024 -18.100 -21.913  0.00  0.00    +0.390 N 
ATOM     20  C   UNL     1      34.466 -15.409 -22.934  0.00  0.00    +0.040 C 
ATOM     21  C   UNL     1      34.558 -16.633 -23.850  0.00  0.00    -0.019 C 
ATOM     22  C   UNL     1      34.075 -15.849 -21.520  0.00  0.00    -0.019 C 
ATOM     23  C   UNL     1      35.473 -17.706 -23.256  0.00  0.00    -0.077 C 
ATOM     24  C   UNL     1      35.006 -16.948 -21.002  0.00  0.00    -0.077 C 
ATOM     25  H   UNL     1      34.072 -18.454 -21.991  0.00  0.00    -0.079 HD
BRANCH  19  26
ATOM     26  C   UNL     1      35.878 -19.161 -21.380  0.00  0.00    -0.048 C 
BRANCH  26  28
ATOM     27  F   UNL     1      37.089 -21.157 -19.771  0.00  0.00    -0.205 F 
ATOM     28  C   UNL     1      35.089 -20.169 -20.586  0.00  0.00    -0.016 C 
ATOM     29  C   UNL     1      35.750 -21.125 -19.815  0.00  0.00    +0.134 C 
ATOM     30  C   UNL     1      33.696 -20.145 -20.625  0.00  0.00    -0.004 C 
ATOM     31  C   UNL     1      35.016 -22.058 -19.081  0.00  0.00    +0.029 C 
ATOM     32  C   UNL     1      32.962 -21.077 -19.891  0.00  0.00    -0.000 C 
ATOM     33  C   UNL     1      33.621 -22.034 -19.120  0.00  0.00    +0.002 C 
ENDBRANCH  26  28
ENDBRANCH  19  26
ENDBRANCH  18  20
ENDBRANCH   1  18
TORSDOF 5
ENDMDL
MODEL 6
REMARK VINA RESULT:     -11.3      5.063     10.813
REMARK  Name = 23729147
REMARK  5 active torsions:
REMARK  status: ('A' for Active; 'I' for Inactive)
REMARK    1  A    between atoms: O_1  and  C_6
REMARK    2  A    between atoms: O_1  and  C_18
REMARK    3  A    between atoms: C_18  and  C_20
REMARK    4  A    between atoms: N_19  and  C_26
REMARK    5  A    between atoms: C_26  and  C_28
REMARK                            x       y       z     vdW  Elec       q    Type
REMARK                         _______ _______ _______ _____ _____    ______ ____
ROOT
ATOM      1  O   UNL     1      33.413 -14.761 -23.025  0.00  0.00    -0.479 OA
ENDROOT
BRANCH   1   6
ATOM      2  N   UNL     1      32.033 -10.516 -21.138  0.00  0.00    -0.332 NA
ATOM      3  N   UNL     1      31.522 -12.531 -19.918  0.00  0.00    -0.317 NA
ATOM      4  N   UNL     1      32.137 -14.630 -20.728  0.00  0.00    -0.335 N 
ATOM      5  N   UNL     1      30.897 -10.431 -19.088  0.00  0.00    -0.283 N 
ATOM      6  C   UNL     1      33.315 -13.391 -23.044  0.00  0.00    +0.130 C 
ATOM      7  C   UNL     1      32.695 -12.643 -22.029  0.00  0.00    +0.177 C 
ATOM      8  C   UNL     1      33.871 -12.745 -24.145  0.00  0.00    +0.033 C 
ATOM      9  C   UNL     1      32.624 -11.242 -22.104  0.00  0.00    +0.137 C 
ATOM     10  C   UNL     1      32.121 -13.226 -20.903  0.00  0.00    +0.181 C 
ATOM     11  C   UNL     1      33.806 -11.359 -24.230  0.00  0.00    +0.005 C 
ATOM     12  C   UNL     1      33.188 -10.622 -23.216  0.00  0.00    +0.030 C 
ATOM     13  C   UNL     1      31.515 -11.200 -20.098  0.00  0.00    +0.197 C 
ATOM     14  H   UNL     1      31.728 -15.031 -19.927  0.00  0.00    +0.144 HD
ATOM     15  H   UNL     1      32.558 -15.206 -21.407  0.00  0.00    +0.144 HD
ATOM     16  H   UNL     1      30.862  -9.451 -19.168  0.00  0.00    +0.156 HD
ATOM     17  H   UNL     1      30.501 -10.875 -18.304  0.00  0.00    +0.156 HD
ENDBRANCH   1   6
BRANCH   1  18
ATOM     18  C   UNL     1      34.229 -15.360 -24.015  0.00  0.00    +0.205 C 
BRANCH  18  20
ATOM     19  N   UNL     1      35.265 -18.859 -21.702  0.00  0.00    +0.390 N 
ATOM     20  C   UNL     1      35.077 -16.443 -23.353  0.00  0.00    +0.040 C 
ATOM     21  C   UNL     1      34.709 -17.833 -23.883  0.00  0.00    -0.019 C 
ATOM     22  C   UNL     1      34.919 -16.412 -21.830  0.00  0.00    -0.019 C 
ATOM     23  C   UNL     1      35.484 -18.931 -23.153  0.00  0.00    -0.077 C 
ATOM     24  C   UNL     1      35.688 -17.558 -21.167  0.00  0.00    -0.077 C 
ATOM     25  H   UNL     1      34.266 -18.960 -21.529  0.00  0.00    -0.079 HD
BRANCH  19  26
ATOM     26  C   UNL     1      35.972 -19.945 -21.024  0.00  0.00    -0.048 C 
BRANCH  26  28
ATOM     27  F   UNL     1      36.874 -21.975 -19.263  0.00  0.00    -0.205 F 
ATOM     28  C   UNL     1      35.041 -20.782 -20.187  0.00  0.00    -0.016 C 
ATOM     29  C   UNL     1      35.553 -21.765 -19.340  0.00  0.00    +0.134 C 
ATOM     30  C   UNL     1      33.664 -20.572 -20.260  0.00  0.00    -0.004 C 
ATOM     31  C   UNL     1      34.687 -22.540 -18.566  0.00  0.00    +0.029 C 
ATOM     32  C   UNL     1      32.799 -21.345 -19.486  0.00  0.00    -0.000 C 
ATOM     33  C   UNL     1      33.310 -22.330 -18.640  0.00  0.00    +0.002 C 
ENDBRANCH  26  28
ENDBRANCH  19  26
ENDBRANCH  18  20
ENDBRANCH   1  18
TORSDOF 5
ENDMDL
MODEL 7
REMARK VINA RESULT:     -11.3      1.563      2.265
REMARK  Name = 23729147
REMARK  5 active torsions:
REMARK  status: ('A' for Active; 'I' for Inactive)
REMARK    1  A    between atoms: O_1  and  C_6
REMARK    2  A    between atoms: O_1  and  C_18
REMARK    3  A    between atoms: C_18  and  C_20
REMARK    4  A    between atoms: N_19  and  C_26
REMARK    5  A    between atoms: C_26  and  C_28
REMARK                            x       y       z     vdW  Elec       q    Type
REMARK                         _______ _______ _______ _____ _____    ______ ____
ROOT
ATOM      1  O   UNL     1      34.097 -23.428 -17.364  0.00  0.00    -0.479 OA
ENDROOT
BRANCH   1   6
ATOM      2  N   UNL     1      33.523 -24.495 -12.672  0.00  0.00    -0.332 NA
ATOM      3  N   UNL     1      35.741 -24.606 -13.607  0.00  0.00    -0.317 NA
ATOM      4  N   UNL     1      36.138 -24.115 -15.852  0.00  0.00    -0.335 N 
ATOM      5  N   UNL     1      35.362 -25.104 -11.349  0.00  0.00    -0.283 N 
ATOM      6  C   UNL     1      33.333 -23.587 -16.233  0.00  0.00    +0.130 C 
ATOM      7  C   UNL     1      33.860 -23.976 -14.989  0.00  0.00    +0.177 C 
ATOM      8  C   UNL     1      31.970 -23.344 -16.366  0.00  0.00    +0.033 C 
ATOM      9  C   UNL     1      33.029 -24.124 -13.867  0.00  0.00    +0.137 C 
ATOM     10  C   UNL     1      35.214 -24.233 -14.789  0.00  0.00    +0.181 C 
ATOM     11  C   UNL     1      31.137 -23.488 -15.262  0.00  0.00    +0.005 C 
ATOM     12  C   UNL     1      31.669 -23.874 -14.028  0.00  0.00    +0.030 C 
ATOM     13  C   UNL     1      34.852 -24.715 -12.607  0.00  0.00    +0.197 C 
ATOM     14  H   UNL     1      37.093 -24.299 -15.698  0.00  0.00    +0.144 HD
ATOM     15  H   UNL     1      35.828 -23.845 -16.747  0.00  0.00    +0.144 HD
ATOM     16  H   UNL     1      34.756 -25.200 -10.581  0.00  0.00    +0.156 HD
ATOM     17  H   UNL     1      36.325 -25.278 -11.242  0.00  0.00    +0.156 HD
ENDBRANCH   1   6
BRANCH   1  18
ATOM     18  C   UNL     1      33.450 -22.898 -18.506  0.00  0.00    +0.205 C 
BRANCH  18  20
ATOM     19  N   UNL     1      35.595 -20.152 -21.059  0.00  0.00    +0.390 N 
ATOM     20  C   UNL     1      34.206 -21.651 -18.957  0.00  0.00    +0.040 C 
ATOM     21  C   UNL     1      33.460 -20.931 -20.085  0.00  0.00    -0.019 C 
ATOM     22  C   UNL     1      35.624 -22.004 -19.418  0.00  0.00    -0.019 C 
ATOM     23  C   UNL     1      34.259 -19.737 -20.610  0.00  0.00    -0.077 C 
ATOM     24  C   UNL     1      36.353 -20.775 -19.966  0.00  0.00    -0.077 C 
ATOM     25  H   UNL     1      35.478 -20.848 -21.795  0.00  0.00    -0.079 HD
BRANCH  19  26
ATOM     26  C   UNL     1      36.328 -19.010 -21.605  0.00  0.00    -0.048 C 
BRANCH  26  28
ATOM     27  F   UNL     1      35.112 -20.404 -23.753  0.00  0.00    -0.205 F 
ATOM     28  C   UNL     1      35.558 -18.322 -22.701  0.00  0.00    -0.016 C 
ATOM     29  C   UNL     1      34.985 -19.071 -23.730  0.00  0.00    +0.134 C 
ATOM     30  C   UNL     1      35.421 -16.935 -22.687  0.00  0.00    -0.004 C 
ATOM     31  C   UNL     1      34.273 -18.429 -24.745  0.00  0.00    +0.029 C 
ATOM     32  C   UNL     1      34.709 -16.294 -23.701  0.00  0.00    -0.000 C 
ATOM     33  C   UNL     1      34.136 -17.041 -24.730  0.00  0.00    +0.002 C 
ENDBRANCH  26  28
ENDBRANCH  19  26
ENDBRANCH  18  20
ENDBRANCH   1  18
TORSDOF 5
ENDMDL
MODEL 8
REMARK VINA RESULT:     -11.1      5.539     11.838
REMARK  Name = 23729147
REMARK  5 active torsions:
REMARK  status: ('A' for Active; 'I' for Inactive)
REMARK    1  A    between atoms: O_1  and  C_6
REMARK    2  A    between atoms: O_1  and  C_18
REMARK    3  A    between atoms: C_18  and  C_20
REMARK    4  A    between atoms: N_19  and  C_26
REMARK    5  A    between atoms: C_26  and  C_28
REMARK                            x       y       z     vdW  Elec       q    Type
REMARK                         _______ _______ _______ _____ _____    ______ ____
ROOT
ATOM      1  O   UNL     1      33.023 -13.499 -23.143  0.00  0.00    -0.479 OA
ENDROOT
BRANCH   1   6
ATOM      2  N   UNL     1      32.986  -8.734 -22.258  0.00  0.00    -0.332 NA
ATOM      3  N   UNL     1      31.546 -10.152 -20.947  0.00  0.00    -0.317 NA
ATOM      4  N   UNL     1      31.478 -12.459 -21.283  0.00  0.00    -0.335 N 
ATOM      5  N   UNL     1      31.599  -7.836 -20.594  0.00  0.00    -0.283 N 
ATOM      6  C   UNL     1      33.445 -12.211 -23.371  0.00  0.00    +0.130 C 
ATOM      7  C   UNL     1      32.967 -11.099 -22.657  0.00  0.00    +0.177 C 
ATOM      8  C   UNL     1      34.397 -12.039 -24.372  0.00  0.00    +0.033 C 
ATOM      9  C   UNL     1      33.436  -9.805 -22.936  0.00  0.00    +0.137 C 
ATOM     10  C   UNL     1      32.017 -11.202 -21.644  0.00  0.00    +0.181 C 
ATOM     11  C   UNL     1      34.868 -10.763 -24.658  0.00  0.00    +0.005 C 
ATOM     12  C   UNL     1      34.388  -9.662 -23.942  0.00  0.00    +0.030 C 
ATOM     13  C   UNL     1      32.066  -8.966 -21.301  0.00  0.00    +0.197 C 
ATOM     14  H   UNL     1      30.807 -12.519 -20.565  0.00  0.00    +0.144 HD
ATOM     15  H   UNL     1      31.775 -13.274 -21.748  0.00  0.00    +0.144 HD
ATOM     16  H   UNL     1      31.945  -6.941 -20.811  0.00  0.00    +0.156 HD
ATOM     17  H   UNL     1      30.927  -7.944 -19.882  0.00  0.00    +0.156 HD
ENDBRANCH   1   6
BRANCH   1  18
ATOM     18  C   UNL     1      33.385 -14.473 -24.103  0.00  0.00    +0.205 C 
BRANCH  18  20
ATOM     19  N   UNL     1      34.962 -17.978 -22.131  0.00  0.00    +0.390 N 
ATOM     20  C   UNL     1      34.387 -15.432 -23.467  0.00  0.00    +0.040 C 
ATOM     21  C   UNL     1      34.430 -16.765 -24.220  0.00  0.00    -0.019 C 
ATOM     22  C   UNL     1      34.051 -15.681 -21.993  0.00  0.00    -0.019 C 
ATOM     23  C   UNL     1      35.358 -17.767 -23.530  0.00  0.00    -0.077 C 
ATOM     24  C   UNL     1      34.992 -16.719 -21.376  0.00  0.00    -0.077 C 
ATOM     25  H   UNL     1      34.003 -18.325 -22.125  0.00  0.00    -0.079 HD
BRANCH  19  26
ATOM     26  C   UNL     1      35.826 -18.975 -21.500  0.00  0.00    -0.048 C 
BRANCH  26  28
ATOM     27  F   UNL     1      37.031 -20.964 -19.879  0.00  0.00    -0.205 F 
ATOM     28  C   UNL     1      35.034 -19.986 -20.714  0.00  0.00    -0.016 C 
ATOM     29  C   UNL     1      35.692 -20.939 -19.936  0.00  0.00    +0.134 C 
ATOM     30  C   UNL     1      33.642 -19.970 -20.767  0.00  0.00    -0.004 C 
ATOM     31  C   UNL     1      34.955 -21.876 -19.210  0.00  0.00    +0.029 C 
ATOM     32  C   UNL     1      32.904 -20.905 -20.041  0.00  0.00    -0.000 C 
ATOM     33  C   UNL     1      33.561 -21.859 -19.263  0.00  0.00    +0.002 C 
ENDBRANCH  26  28
ENDBRANCH  19  26
ENDBRANCH  18  20
ENDBRANCH   1  18
TORSDOF 5
ENDMDL
MODEL 9
REMARK VINA RESULT:     -11.1      2.577      3.696
REMARK  Name = 23729147
REMARK  5 active torsions:
REMARK  status: ('A' for Active; 'I' for Inactive)
REMARK    1  A    between atoms: O_1  and  C_6
REMARK    2  A    between atoms: O_1  and  C_18
REMARK    3  A    between atoms: C_18  and  C_20
REMARK    4  A    between atoms: N_19  and  C_26
REMARK    5  A    between atoms: C_26  and  C_28
REMARK                            x       y       z     vdW  Elec       q    Type
REMARK                         _______ _______ _______ _____ _____    ______ ____
ROOT
ATOM      1  O   UNL     1      32.725 -22.810 -17.626  0.00  0.00    -0.479 OA
ENDROOT
BRANCH   1   6
ATOM      2  N   UNL     1      32.239 -24.797 -13.233  0.00  0.00    -0.332 NA
ATOM      3  N   UNL     1      30.247 -24.127 -14.412  0.00  0.00    -0.317 NA
ATOM      4  N   UNL     1      30.357 -23.161 -16.532  0.00  0.00    -0.335 N 
ATOM      5  N   UNL     1      30.115 -25.097 -12.283  0.00  0.00    -0.283 N 
ATOM      6  C   UNL     1      33.228 -23.371 -16.478  0.00  0.00    +0.130 C 
ATOM      7  C   UNL     1      32.425 -23.808 -15.411  0.00  0.00    +0.177 C 
ATOM      8  C   UNL     1      34.612 -23.495 -16.404  0.00  0.00    +0.033 C 
ATOM      9  C   UNL     1      32.998 -24.374 -14.260  0.00  0.00    +0.137 C 
ATOM     10  C   UNL     1      31.036 -23.715 -15.422  0.00  0.00    +0.181 C 
ATOM     11  C   UNL     1      35.191 -24.052 -15.269  0.00  0.00    +0.005 C 
ATOM     12  C   UNL     1      34.385 -24.486 -14.212  0.00  0.00    +0.030 C 
ATOM     13  C   UNL     1      30.905 -24.650 -13.365  0.00  0.00    +0.197 C 
ATOM     14  H   UNL     1      29.375 -23.100 -16.528  0.00  0.00    +0.144 HD
ATOM     15  H   UNL     1      30.867 -22.837 -17.310  0.00  0.00    +0.144 HD
ATOM     16  H   UNL     1      30.544 -25.488 -11.489  0.00  0.00    +0.156 HD
ATOM     17  H   UNL     1      29.134 -25.016 -12.324  0.00  0.00    +0.156 HD
ENDBRANCH   1   6
BRANCH   1  18
ATOM     18  C   UNL     1      33.473 -22.995 -18.813  0.00  0.00    +0.205 C 
BRANCH  18  20
ATOM     19  N   UNL     1      35.533 -19.962 -21.098  0.00  0.00    +0.390 N 
ATOM     20  C   UNL     1      34.184 -21.687 -19.147  0.00  0.00    +0.040 C 
ATOM     21  C   UNL     1      33.420 -20.901 -20.218  0.00  0.00    -0.019 C 
ATOM     22  C   UNL     1      35.618 -21.946 -19.621  0.00  0.00    -0.019 C 
ATOM     23  C   UNL     1      34.178 -19.638 -20.630  0.00  0.00    -0.077 C 
ATOM     24  C   UNL     1      36.305 -20.647 -20.053  0.00  0.00    -0.077 C 
ATOM     25  H   UNL     1      35.448 -20.596 -21.892  0.00  0.00    -0.079 HD
BRANCH  19  26
ATOM     26  C   UNL     1      36.226 -18.751 -21.536  0.00  0.00    -0.048 C 
BRANCH  26  28
ATOM     27  F   UNL     1      35.153 -20.146 -23.758  0.00  0.00    -0.205 F 
ATOM     28  C   UNL     1      35.500 -18.067 -22.664  0.00  0.00    -0.016 C 
ATOM     29  C   UNL     1      34.997 -18.816 -23.729  0.00  0.00    +0.134 C 
ATOM     30  C   UNL     1      35.333 -16.684 -22.644  0.00  0.00    -0.004 C 
ATOM     31  C   UNL     1      34.327 -18.178 -24.774  0.00  0.00    +0.029 C 
ATOM     32  C   UNL     1      34.662 -16.046 -23.688  0.00  0.00    -0.000 C 
ATOM     33  C   UNL     1      34.160 -16.794 -24.753  0.00  0.00    +0.002 C 
ENDBRANCH  26  28
ENDBRANCH  19  26
ENDBRANCH  18  20
ENDBRANCH   1  18
TORSDOF 5
ENDMDL
