MODEL 1
REMARK VINA RESULT:     -11.7      0.000      0.000
REMARK  Name = 51039095
REMARK  7 active torsions:
REMARK  status: ('A' for Active; 'I' for Inactive)
REMARK    1  A    between atoms: C_5  and  C_16
REMARK    2  A    between atoms: C_6  and  C_27
REMARK    3  A    between atoms: C_11  and  N_17
REMARK    4  A    between atoms: C_27  and  C_28
REMARK    5  A    between atoms: C_28  and  C_29
REMARK    6  A    between atoms: C_32  and  O_35
REMARK    7  A    between atoms: C_33  and  O_37
REMARK                            x       y       z     vdW  Elec       q    Type
REMARK                         _______ _______ _______ _____ _____    ______ ____
ROOT
ATOM      1  O   UNL     1      33.420 -14.160 -20.777  0.00  0.00    -0.270 OA
ATOM      2  N   UNL     1      34.136 -14.354 -23.003  0.00  0.00    -0.265 N 
ATOM      3  N   UNL     1      35.427 -17.478 -23.795  0.00  0.00    -0.239 N 
ATOM      4  N   UNL     1      35.115 -16.228 -24.178  0.00  0.00    -0.166 NA
ATOM      5  C   UNL     1      33.586 -13.674 -21.907  0.00  0.00    +0.251 C 
ATOM      6  C   UNL     1      35.135 -17.744 -22.489  0.00  0.00    +0.046 C 
ATOM      7  C   UNL     1      34.607 -15.689 -23.067  0.00  0.00    +0.153 C 
ATOM      8  C   UNL     1      34.595 -16.587 -21.983  0.00  0.00    +0.048 C 
ATOM      9  H   UNL     1      34.205 -13.836 -23.837  0.00  0.00    +0.157 HD
ATOM     10  H   UNL     1      35.828 -18.141 -24.402  0.00  0.00    +0.174 HD
ENDROOT
BRANCH   5  16
ATOM     11  C   UNL     1      32.510  -9.626 -22.591  0.00  0.00    +0.048 C 
ATOM     12  C   UNL     1      33.497 -10.227 -23.373  0.00  0.00    +0.015 C 
ATOM     13  C   UNL     1      31.875 -10.355 -21.586  0.00  0.00    +0.015 C 
ATOM     14  C   UNL     1      33.850 -11.557 -23.148  0.00  0.00    +0.006 C 
ATOM     15  C   UNL     1      32.229 -11.686 -21.362  0.00  0.00    +0.006 C 
ATOM     16  C   UNL     1      33.216 -12.287 -22.142  0.00  0.00    +0.054 C 
BRANCH  11  17
ATOM     17  N   UNL     1      32.155  -8.291 -22.816  0.00  0.00    -0.312 N 
ATOM     18  N   UNL     1      31.626  -5.512 -23.162  0.00  0.00    +0.389 N 
ATOM     19  C   UNL     1      30.682  -6.354 -22.419  0.00  0.00    -0.042 C 
ATOM     20  C   UNL     1      32.265  -6.278 -24.237  0.00  0.00    -0.042 C 
ATOM     21  C   UNL     1      31.401  -7.558 -21.793  0.00  0.00    +0.069 C 
ATOM     22  C   UNL     1      33.034  -7.477 -23.666  0.00  0.00    +0.069 C 
ATOM     23  C   UNL     1      33.204  -5.358 -25.015  0.00  0.00    -0.022 C 
ATOM     24  C   UNL     1      30.005  -5.512 -21.338  0.00  0.00    -0.022 C 
ATOM     25  H   UNL     1      32.343  -5.169 -22.523  0.00  0.00    -0.084 HD
ATOM     26  H   UNL     1      31.116  -4.730 -23.573  0.00  0.00    -0.084 HD
ENDBRANCH  11  17
ENDBRANCH   5  16
BRANCH   6  27
ATOM     27  C   UNL     1      35.400 -19.055 -21.877  0.00  0.00    +0.047 C 
BRANCH  27  28
ATOM     28  C   UNL     1      34.133 -19.881 -21.538  0.00  0.00    +0.033 C 
BRANCH  28  29
ATOM     29  C   UNL     1      34.322 -20.782 -20.341  0.00  0.00    -0.016 C 
ATOM     30  C   UNL     1      33.212 -21.338 -19.704  0.00  0.00    +0.033 C 
ATOM     31  C   UNL     1      35.606 -21.061 -19.874  0.00  0.00    +0.033 C 
ATOM     32  C   UNL     1      35.782 -21.894 -18.769  0.00  0.00    +0.141 C 
ATOM     33  C   UNL     1      33.388 -22.172 -18.600  0.00  0.00    +0.141 C 
ATOM     34  C   UNL     1      34.672 -22.450 -18.132  0.00  0.00    +0.074 C 
BRANCH  32  35
ATOM     35  O   UNL     1      37.035 -22.166 -18.313  0.00  0.00    -0.471 OA
ATOM     36  C   UNL     1      37.199 -22.280 -16.900  0.00  0.00    +0.252 C 
ENDBRANCH  32  35
BRANCH  33  37
ATOM     37  O   UNL     1      32.305 -22.715 -17.978  0.00  0.00    -0.471 OA
ATOM     38  C   UNL     1      32.534 -23.366 -16.729  0.00  0.00    +0.252 C 
ENDBRANCH  33  37
ENDBRANCH  28  29
ENDBRANCH  27  28
ENDBRANCH   6  27
TORSDOF 7
ENDMDL
MODEL 2
REMARK VINA RESULT:     -11.7      4.211     13.392
REMARK  Name = 51039095
REMARK  7 active torsions:
REMARK  status: ('A' for Active; 'I' for Inactive)
REMARK    1  A    between atoms: C_5  and  C_16
REMARK    2  A    between atoms: C_6  and  C_27
REMARK    3  A    between atoms: C_11  and  N_17
REMARK    4  A    between atoms: C_27  and  C_28
REMARK    5  A    between atoms: C_28  and  C_29
REMARK    6  A    between atoms: C_32  and  O_35
REMARK    7  A    between atoms: C_33  and  O_37
REMARK                            x       y       z     vdW  Elec       q    Type
REMARK                         _______ _______ _______ _____ _____    ______ ____
ROOT
ATOM      1  O   UNL     1      33.969 -21.574 -19.730  0.00  0.00    -0.270 OA
ATOM      2  N   UNL     1      36.088 -20.578 -19.872  0.00  0.00    -0.265 N 
ATOM      3  N   UNL     1      36.471 -18.476 -22.609  0.00  0.00    -0.239 N 
ATOM      4  N   UNL     1      36.991 -19.039 -21.505  0.00  0.00    -0.166 NA
ATOM      5  C   UNL     1      35.116 -21.402 -19.289  0.00  0.00    +0.251 C 
ATOM      6  C   UNL     1      35.180 -18.843 -22.858  0.00  0.00    +0.046 C 
ATOM      7  C   UNL     1      35.987 -19.789 -21.045  0.00  0.00    +0.153 C 
ATOM      8  C   UNL     1      34.834 -19.706 -21.848  0.00  0.00    +0.048 C 
ATOM      9  H   UNL     1      36.955 -20.543 -19.408  0.00  0.00    +0.157 HD
ATOM     10  H   UNL     1      36.974 -17.855 -23.184  0.00  0.00    +0.174 HD
ENDROOT
BRANCH   5  16
ATOM     11  C   UNL     1      36.313 -23.484 -15.788  0.00  0.00    +0.048 C 
ATOM     12  C   UNL     1      34.997 -23.579 -16.241  0.00  0.00    +0.015 C 
ATOM     13  C   UNL     1      37.236 -22.705 -16.486  0.00  0.00    +0.015 C 
ATOM     14  C   UNL     1      34.604 -22.896 -17.391  0.00  0.00    +0.006 C 
ATOM     15  C   UNL     1      36.843 -22.021 -17.637  0.00  0.00    +0.006 C 
ATOM     16  C   UNL     1      35.527 -22.117 -18.090  0.00  0.00    +0.054 C 
BRANCH  11  17
ATOM     17  N   UNL     1      36.709 -24.169 -14.635  0.00  0.00    -0.312 N 
ATOM     18  N   UNL     1      37.586 -25.362 -12.199  0.00  0.00    +0.389 N 
ATOM     19  C   UNL     1      38.175 -25.779 -13.476  0.00  0.00    -0.042 C 
ATOM     20  C   UNL     1      36.175 -25.000 -12.374  0.00  0.00    -0.042 C 
ATOM     21  C   UNL     1      38.091 -24.646 -14.511  0.00  0.00    +0.069 C 
ATOM     22  C   UNL     1      36.032 -23.843 -13.372  0.00  0.00    +0.069 C 
ATOM     23  C   UNL     1      35.586 -24.617 -11.018  0.00  0.00    -0.022 C 
ATOM     24  C   UNL     1      39.629 -26.188 -13.247  0.00  0.00    -0.022 C 
ATOM     25  H   UNL     1      38.097 -24.553 -11.843  0.00  0.00    -0.084 HD
ATOM     26  H   UNL     1      37.648 -26.137 -11.540  0.00  0.00    -0.084 HD
ENDBRANCH  11  17
ENDBRANCH   5  16
BRANCH   6  27
ATOM     27  C   UNL     1      34.431 -18.335 -24.019  0.00  0.00    +0.047 C 
BRANCH  27  28
ATOM     28  C   UNL     1      34.975 -17.012 -24.613  0.00  0.00    +0.033 C 
BRANCH  28  29
ATOM     29  C   UNL     1      34.520 -15.792 -23.848  0.00  0.00    -0.016 C 
ATOM     30  C   UNL     1      34.348 -15.859 -22.465  0.00  0.00    +0.033 C 
ATOM     31  C   UNL     1      34.274 -14.598 -24.523  0.00  0.00    +0.033 C 
ATOM     32  C   UNL     1      33.855 -13.470 -23.818  0.00  0.00    +0.141 C 
ATOM     33  C   UNL     1      33.930 -14.732 -21.759  0.00  0.00    +0.141 C 
ATOM     34  C   UNL     1      33.682 -13.537 -22.435  0.00  0.00    +0.074 C 
BRANCH  32  35
ATOM     35  O   UNL     1      33.615 -12.303 -24.477  0.00  0.00    -0.471 OA
ATOM     36  C   UNL     1      33.971 -11.095 -23.806  0.00  0.00    +0.252 C 
ENDBRANCH  32  35
BRANCH  33  37
ATOM     37  O   UNL     1      33.762 -14.797 -20.409  0.00  0.00    -0.471 OA
ATOM     38  C   UNL     1      32.459 -15.128 -19.932  0.00  0.00    +0.252 C 
ENDBRANCH  33  37
ENDBRANCH  28  29
ENDBRANCH  27  28
ENDBRANCH   6  27
TORSDOF 7
ENDMDL
MODEL 3
REMARK VINA RESULT:     -11.7      0.039      1.840
REMARK  Name = 51039095
REMARK  7 active torsions:
REMARK  status: ('A' for Active; 'I' for Inactive)
REMARK    1  A    between atoms: C_5  and  C_16
REMARK    2  A    between atoms: C_6  and  C_27
REMARK    3  A    between atoms: C_11  and  N_17
REMARK    4  A    between atoms: C_27  and  C_28
REMARK    5  A    between atoms: C_28  and  C_29
REMARK    6  A    between atoms: C_32  and  O_35
REMARK    7  A    between atoms: C_33  and  O_37
REMARK                            x       y       z     vdW  Elec       q    Type
REMARK                         _______ _______ _______ _____ _____    ______ ____
ROOT
ATOM      1  O   UNL     1      33.449 -14.145 -20.795  0.00  0.00    -0.270 OA
ATOM      2  N   UNL     1      34.141 -14.341 -23.028  0.00  0.00    -0.265 N 
ATOM      3  N   UNL     1      35.423 -17.466 -23.831  0.00  0.00    -0.239 N 
ATOM      4  N   UNL     1      35.107 -16.217 -24.211  0.00  0.00    -0.166 NA
ATOM      5  C   UNL     1      33.602 -13.660 -21.927  0.00  0.00    +0.251 C 
ATOM      6  C   UNL     1      35.145 -17.731 -22.521  0.00  0.00    +0.046 C 
ATOM      7  C   UNL     1      34.611 -15.676 -23.096  0.00  0.00    +0.153 C 
ATOM      8  C   UNL     1      34.610 -16.573 -22.011  0.00  0.00    +0.048 C 
ATOM      9  H   UNL     1      34.201 -13.824 -23.863  0.00  0.00    +0.157 HD
ATOM     10  H   UNL     1      35.818 -18.130 -24.441  0.00  0.00    +0.174 HD
ENDROOT
BRANCH   5  16
ATOM     11  C   UNL     1      32.520  -9.613 -22.604  0.00  0.00    +0.048 C 
ATOM     12  C   UNL     1      33.502 -10.213 -23.392  0.00  0.00    +0.015 C 
ATOM     13  C   UNL     1      31.892 -10.342 -21.595  0.00  0.00    +0.015 C 
ATOM     14  C   UNL     1      33.858 -11.543 -23.169  0.00  0.00    +0.006 C 
ATOM     15  C   UNL     1      32.248 -11.673 -21.373  0.00  0.00    +0.006 C 
ATOM     16  C   UNL     1      33.230 -12.274 -22.160  0.00  0.00    +0.054 C 
BRANCH  11  17
ATOM     17  N   UNL     1      32.162  -8.278 -22.826  0.00  0.00    -0.312 N 
ATOM     18  N   UNL     1      31.627  -5.499 -23.165  0.00  0.00    +0.389 N 
ATOM     19  C   UNL     1      30.679  -6.347 -22.436  0.00  0.00    -0.042 C 
ATOM     20  C   UNL     1      32.280  -6.258 -24.237  0.00  0.00    -0.042 C 
ATOM     21  C   UNL     1      31.396  -7.552 -21.807  0.00  0.00    +0.069 C 
ATOM     22  C   UNL     1      33.048  -7.457 -23.663  0.00  0.00    +0.069 C 
ATOM     23  C   UNL     1      33.223  -5.332 -25.002  0.00  0.00    -0.022 C 
ATOM     24  C   UNL     1      29.988  -5.513 -21.358  0.00  0.00    -0.022 C 
ATOM     25  H   UNL     1      32.337  -5.157 -22.517  0.00  0.00    -0.084 HD
ATOM     26  H   UNL     1      31.119  -4.717 -23.578  0.00  0.00    -0.084 HD
ENDBRANCH  11  17
ENDBRANCH   5  16
BRANCH   6  27
ATOM     27  C   UNL     1      35.416 -19.042 -21.911  0.00  0.00    +0.047 C 
BRANCH  27  28
ATOM     28  C   UNL     1      34.153 -19.871 -21.567  0.00  0.00    +0.033 C 
BRANCH  28  29
ATOM     29  C   UNL     1      34.348 -20.770 -20.370  0.00  0.00    -0.016 C 
ATOM     30  C   UNL     1      35.634 -21.040 -19.901  0.00  0.00    +0.033 C 
ATOM     31  C   UNL     1      33.242 -21.329 -19.731  0.00  0.00    +0.033 C 
ATOM     32  C   UNL     1      33.419 -22.159 -18.624  0.00  0.00    +0.141 C 
ATOM     33  C   UNL     1      35.812 -21.869 -18.794  0.00  0.00    +0.141 C 
ATOM     34  C   UNL     1      34.706 -22.430 -18.156  0.00  0.00    +0.074 C 
BRANCH  32  35
ATOM     35  O   UNL     1      32.340 -22.704 -18.000  0.00  0.00    -0.471 OA
ATOM     36  C   UNL     1      32.584 -23.416 -16.788  0.00  0.00    +0.252 C 
ENDBRANCH  32  35
BRANCH  33  37
ATOM     37  O   UNL     1      37.067 -22.133 -18.336  0.00  0.00    -0.471 OA
ATOM     38  C   UNL     1      37.238 -22.211 -16.921  0.00  0.00    +0.252 C 
ENDBRANCH  33  37
ENDBRANCH  28  29
ENDBRANCH  27  28
ENDBRANCH   6  27
TORSDOF 7
ENDMDL
MODEL 4
REMARK VINA RESULT:     -11.7      4.207     13.397
REMARK  Name = 51039095
REMARK  7 active torsions:
REMARK  status: ('A' for Active; 'I' for Inactive)
REMARK    1  A    between atoms: C_5  and  C_16
REMARK    2  A    between atoms: C_6  and  C_27
REMARK    3  A    between atoms: C_11  and  N_17
REMARK    4  A    between atoms: C_27  and  C_28
REMARK    5  A    between atoms: C_28  and  C_29
REMARK    6  A    between atoms: C_32  and  O_35
REMARK    7  A    between atoms: C_33  and  O_37
REMARK                            x       y       z     vdW  Elec       q    Type
REMARK                         _______ _______ _______ _____ _____    ______ ____
ROOT
ATOM      1  O   UNL     1      33.939 -21.485 -19.705  0.00  0.00    -0.270 OA
ATOM      2  N   UNL     1      36.091 -20.572 -19.904  0.00  0.00    -0.265 N 
ATOM      3  N   UNL     1      36.489 -18.501 -22.662  0.00  0.00    -0.239 N 
ATOM      4  N   UNL     1      37.013 -19.078 -21.568  0.00  0.00    -0.166 NA
ATOM      5  C   UNL     1      35.102 -21.355 -19.292  0.00  0.00    +0.251 C 
ATOM      6  C   UNL     1      35.179 -18.819 -22.879  0.00  0.00    +0.046 C 
ATOM      7  C   UNL     1      35.992 -19.786 -21.079  0.00  0.00    +0.153 C 
ATOM      8  C   UNL     1      34.824 -19.663 -21.855  0.00  0.00    +0.048 C 
ATOM      9  H   UNL     1      36.969 -20.568 -19.460  0.00  0.00    +0.157 HD
ATOM     10  H   UNL     1      37.001 -17.903 -23.252  0.00  0.00    +0.174 HD
ENDROOT
BRANCH   5  16
ATOM     11  C   UNL     1      36.306 -23.467 -15.813  0.00  0.00    +0.048 C 
ATOM     12  C   UNL     1      37.232 -22.697 -16.517  0.00  0.00    +0.015 C 
ATOM     13  C   UNL     1      34.984 -23.543 -16.251  0.00  0.00    +0.015 C 
ATOM     14  C   UNL     1      36.836 -22.003 -17.660  0.00  0.00    +0.006 C 
ATOM     15  C   UNL     1      34.589 -22.848 -17.395  0.00  0.00    +0.006 C 
ATOM     16  C   UNL     1      35.514 -22.078 -18.099  0.00  0.00    +0.054 C 
BRANCH  11  17
ATOM     17  N   UNL     1      36.701 -24.163 -14.666  0.00  0.00    -0.312 N 
ATOM     18  N   UNL     1      37.574 -25.377 -12.239  0.00  0.00    +0.389 N 
ATOM     19  C   UNL     1      38.184 -25.764 -13.516  0.00  0.00    -0.042 C 
ATOM     20  C   UNL     1      36.159 -25.039 -12.424  0.00  0.00    -0.042 C 
ATOM     21  C   UNL     1      38.090 -24.618 -14.534  0.00  0.00    +0.069 C 
ATOM     22  C   UNL     1      36.005 -23.869 -13.406  0.00  0.00    +0.069 C 
ATOM     23  C   UNL     1      35.548 -24.687 -11.069  0.00  0.00    -0.022 C 
ATOM     24  C   UNL     1      39.642 -26.151 -13.277  0.00  0.00    -0.022 C 
ATOM     25  H   UNL     1      38.066 -24.566 -11.865  0.00  0.00    -0.084 HD
ATOM     26  H   UNL     1      37.643 -26.162 -11.591  0.00  0.00    -0.084 HD
ENDBRANCH  11  17
ENDBRANCH   5  16
BRANCH   6  27
ATOM     27  C   UNL     1      34.423 -18.290 -24.024  0.00  0.00    +0.047 C 
BRANCH  27  28
ATOM     28  C   UNL     1      34.976 -16.966 -24.611  0.00  0.00    +0.033 C 
BRANCH  28  29
ATOM     29  C   UNL     1      34.525 -15.748 -23.840  0.00  0.00    -0.016 C 
ATOM     30  C   UNL     1      34.279 -14.550 -24.511  0.00  0.00    +0.033 C 
ATOM     31  C   UNL     1      34.353 -15.822 -22.459  0.00  0.00    +0.033 C 
ATOM     32  C   UNL     1      33.937 -14.698 -21.746  0.00  0.00    +0.141 C 
ATOM     33  C   UNL     1      33.862 -13.426 -23.799  0.00  0.00    +0.141 C 
ATOM     34  C   UNL     1      33.691 -13.499 -22.416  0.00  0.00    +0.074 C 
BRANCH  32  35
ATOM     35  O   UNL     1      33.768 -14.769 -20.397  0.00  0.00    -0.471 OA
ATOM     36  C   UNL     1      32.482 -15.166 -19.925  0.00  0.00    +0.252 C 
ENDBRANCH  32  35
BRANCH  33  37
ATOM     37  O   UNL     1      33.620 -12.257 -24.452  0.00  0.00    -0.471 OA
ATOM     38  C   UNL     1      33.990 -11.051 -23.783  0.00  0.00    +0.252 C 
ENDBRANCH  33  37
ENDBRANCH  28  29
ENDBRANCH  27  28
ENDBRANCH   6  27
TORSDOF 7
ENDMDL
MODEL 5
REMARK VINA RESULT:     -11.3      1.214      2.106
REMARK  Name = 51039095
REMARK  7 active torsions:
REMARK  status: ('A' for Active; 'I' for Inactive)
REMARK    1  A    between atoms: C_5  and  C_16
REMARK    2  A    between atoms: C_6  and  C_27
REMARK    3  A    between atoms: C_11  and  N_17
REMARK    4  A    between atoms: C_27  and  C_28
REMARK    5  A    between atoms: C_28  and  C_29
REMARK    6  A    between atoms: C_32  and  O_35
REMARK    7  A    between atoms: C_33  and  O_37
REMARK                            x       y       z     vdW  Elec       q    Type
REMARK                         _______ _______ _______ _____ _____    ______ ____
ROOT
ATOM      1  O   UNL     1      33.981 -13.925 -24.006  0.00  0.00    -0.270 OA
ATOM      2  N   UNL     1      34.075 -13.895 -21.662  0.00  0.00    -0.265 N 
ATOM      3  N   UNL     1      34.906 -16.956 -20.251  0.00  0.00    -0.239 N 
ATOM      4  N   UNL     1      34.587 -15.661 -20.090  0.00  0.00    -0.166 NA
ATOM      5  C   UNL     1      33.877 -13.322 -22.926  0.00  0.00    +0.251 C 
ATOM      6  C   UNL     1      34.951 -17.355 -21.555  0.00  0.00    +0.046 C 
ATOM      7  C   UNL     1      34.425 -15.230 -21.344  0.00  0.00    +0.153 C 
ATOM      8  C   UNL     1      34.638 -16.243 -22.298  0.00  0.00    +0.048 C 
ATOM      9  H   UNL     1      33.955 -13.290 -20.894  0.00  0.00    +0.157 HD
ATOM     10  H   UNL     1      35.091 -17.561 -19.497  0.00  0.00    +0.174 HD
ENDROOT
BRANCH   5  16
ATOM     11  C   UNL     1      32.755  -9.229 -22.950  0.00  0.00    +0.048 C 
ATOM     12  C   UNL     1      32.016 -10.150 -22.208  0.00  0.00    +0.015 C 
ATOM     13  C   UNL     1      33.865  -9.651 -23.682  0.00  0.00    +0.015 C 
ATOM     14  C   UNL     1      32.384 -11.495 -22.201  0.00  0.00    +0.006 C 
ATOM     15  C   UNL     1      34.233 -10.997 -23.674  0.00  0.00    +0.006 C 
ATOM     16  C   UNL     1      33.494 -11.919 -22.933  0.00  0.00    +0.054 C 
BRANCH  11  17
ATOM     17  N   UNL     1      32.387  -7.879 -22.958  0.00  0.00    -0.312 N 
ATOM     18  N   UNL     1      31.436  -5.194 -23.074  0.00  0.00    +0.389 N 
ATOM     19  C   UNL     1      32.667  -5.570 -23.778  0.00  0.00    -0.042 C 
ATOM     20  C   UNL     1      31.288  -5.974 -21.841  0.00  0.00    -0.042 C 
ATOM     21  C   UNL     1      32.651  -7.061 -24.147  0.00  0.00    +0.069 C 
ATOM     22  C   UNL     1      31.226  -7.476 -22.152  0.00  0.00    +0.069 C 
ATOM     23  C   UNL     1      30.021  -5.523 -21.115  0.00  0.00    -0.022 C 
ATOM     24  C   UNL     1      32.809  -4.709 -25.032  0.00  0.00    -0.022 C 
ATOM     25  H   UNL     1      30.635  -5.373 -23.682  0.00  0.00    -0.084 HD
ATOM     26  H   UNL     1      31.483  -4.205 -22.835  0.00  0.00    -0.084 HD
ENDBRANCH  11  17
ENDBRANCH   5  16
BRANCH   6  27
ATOM     27  C   UNL     1      35.281 -18.736 -21.942  0.00  0.00    +0.047 C 
BRANCH  27  28
ATOM     28  C   UNL     1      34.135 -19.758 -21.740  0.00  0.00    +0.033 C 
BRANCH  28  29
ATOM     29  C   UNL     1      34.352 -20.658 -20.547  0.00  0.00    -0.016 C 
ATOM     30  C   UNL     1      33.262 -21.258 -19.917  0.00  0.00    +0.033 C 
ATOM     31  C   UNL     1      35.644 -20.892 -20.077  0.00  0.00    +0.033 C 
ATOM     32  C   UNL     1      35.847 -21.723 -18.976  0.00  0.00    +0.141 C 
ATOM     33  C   UNL     1      33.464 -22.090 -18.816  0.00  0.00    +0.141 C 
ATOM     34  C   UNL     1      34.756 -22.323 -18.345  0.00  0.00    +0.074 C 
BRANCH  32  35
ATOM     35  O   UNL     1      37.107 -21.952 -18.516  0.00  0.00    -0.471 OA
ATOM     36  C   UNL     1      37.373 -21.608 -17.157  0.00  0.00    +0.252 C 
ENDBRANCH  32  35
BRANCH  33  37
ATOM     37  O   UNL     1      32.400 -22.676 -18.201  0.00  0.00    -0.471 OA
ATOM     38  C   UNL     1      32.609 -23.178 -16.881  0.00  0.00    +0.252 C 
ENDBRANCH  33  37
ENDBRANCH  28  29
ENDBRANCH  27  28
ENDBRANCH   6  27
TORSDOF 7
ENDMDL
MODEL 6
REMARK VINA RESULT:     -10.9      0.742      2.434
REMARK  Name = 51039095
REMARK  7 active torsions:
REMARK  status: ('A' for Active; 'I' for Inactive)
REMARK    1  A    between atoms: C_5  and  C_16
REMARK    2  A    between atoms: C_6  and  C_27
REMARK    3  A    between atoms: C_11  and  N_17
REMARK    4  A    between atoms: C_27  and  C_28
REMARK    5  A    between atoms: C_28  and  C_29
REMARK    6  A    between atoms: C_32  and  O_35
REMARK    7  A    between atoms: C_33  and  O_37
REMARK                            x       y       z     vdW  Elec       q    Type
REMARK                         _______ _______ _______ _____ _____    ______ ____
ROOT
ATOM      1  O   UNL     1      32.305 -14.502 -21.181  0.00  0.00    -0.270 OA
ATOM      2  N   UNL     1      34.195 -14.433 -22.570  0.00  0.00    -0.265 N 
ATOM      3  N   UNL     1      35.788 -17.498 -22.927  0.00  0.00    -0.239 N 
ATOM      4  N   UNL     1      35.726 -16.188 -23.224  0.00  0.00    -0.166 NA
ATOM      5  C   UNL     1      33.089 -13.876 -21.913  0.00  0.00    +0.251 C 
ATOM      6  C   UNL     1      34.792 -17.922 -22.095  0.00  0.00    +0.046 C 
ATOM      7  C   UNL     1      34.649 -15.775 -22.550  0.00  0.00    +0.153 C 
ATOM      8  C   UNL     1      34.028 -16.812 -21.829  0.00  0.00    +0.048 C 
ATOM      9  H   UNL     1      34.726 -13.810 -23.117  0.00  0.00    +0.157 HD
ATOM     10  H   UNL     1      36.486 -18.096 -23.279  0.00  0.00    +0.174 HD
ENDROOT
BRANCH   5  16
ATOM     11  C   UNL     1      32.513  -9.709 -22.471  0.00  0.00    +0.048 C 
ATOM     12  C   UNL     1      33.387 -10.410 -23.302  0.00  0.00    +0.015 C 
ATOM     13  C   UNL     1      31.828 -10.377 -21.456  0.00  0.00    +0.015 C 
ATOM     14  C   UNL     1      33.576 -11.779 -23.119  0.00  0.00    +0.006 C 
ATOM     15  C   UNL     1      32.017 -11.747 -21.274  0.00  0.00    +0.006 C 
ATOM     16  C   UNL     1      32.890 -12.448 -22.105  0.00  0.00    +0.054 C 
BRANCH  11  17
ATOM     17  N   UNL     1      32.322  -8.335 -22.654  0.00  0.00    -0.312 N 
ATOM     18  N   UNL     1      31.740  -5.588 -23.146  0.00  0.00    +0.389 N 
ATOM     19  C   UNL     1      32.992  -6.174 -23.637  0.00  0.00    -0.042 C 
ATOM     20  C   UNL     1      31.342  -6.208 -21.877  0.00  0.00    -0.042 C 
ATOM     21  C   UNL     1      32.834  -7.685 -23.866  0.00  0.00    +0.069 C 
ATOM     22  C   UNL     1      31.131  -7.718 -22.055  0.00  0.00    +0.069 C 
ATOM     23  C   UNL     1      30.063  -5.541 -21.376  0.00  0.00    -0.022 C 
ATOM     24  C   UNL     1      33.397  -5.475 -24.934  0.00  0.00    -0.022 C 
ATOM     25  H   UNL     1      31.006  -5.739 -23.838  0.00  0.00    -0.084 HD
ATOM     26  H   UNL     1      31.882  -4.590 -22.994  0.00  0.00    -0.084 HD
ENDBRANCH  11  17
ENDBRANCH   5  16
BRANCH   6  27
ATOM     27  C   UNL     1      34.684 -19.321 -21.653  0.00  0.00    +0.047 C 
BRANCH  27  28
ATOM     28  C   UNL     1      35.971 -19.901 -21.014  0.00  0.00    +0.033 C 
BRANCH  28  29
ATOM     29  C   UNL     1      35.687 -20.853 -19.877  0.00  0.00    -0.016 C 
ATOM     30  C   UNL     1      36.704 -21.205 -18.991  0.00  0.00    +0.033 C 
ATOM     31  C   UNL     1      34.406 -21.377 -19.712  0.00  0.00    +0.033 C 
ATOM     32  C   UNL     1      34.141 -22.256 -18.662  0.00  0.00    +0.141 C 
ATOM     33  C   UNL     1      36.440 -22.083 -17.940  0.00  0.00    +0.141 C 
ATOM     34  C   UNL     1      35.159 -22.610 -17.775  0.00  0.00    +0.074 C 
BRANCH  32  35
ATOM     35  O   UNL     1      32.890 -22.769 -18.500  0.00  0.00    -0.471 OA
ATOM     36  C   UNL     1      32.550 -23.248 -17.200  0.00  0.00    +0.252 C 
ENDBRANCH  32  35
BRANCH  33  37
ATOM     37  O   UNL     1      37.433 -22.427 -17.074  0.00  0.00    -0.471 OA
ATOM     38  C   UNL     1      37.043 -23.073 -15.863  0.00  0.00    +0.252 C 
ENDBRANCH  33  37
ENDBRANCH  28  29
ENDBRANCH  27  28
ENDBRANCH   6  27
TORSDOF 7
ENDMDL
MODEL 7
REMARK VINA RESULT:     -10.7      3.646     12.909
REMARK  Name = 51039095
REMARK  7 active torsions:
REMARK  status: ('A' for Active; 'I' for Inactive)
REMARK    1  A    between atoms: C_5  and  C_16
REMARK    2  A    between atoms: C_6  and  C_27
REMARK    3  A    between atoms: C_11  and  N_17
REMARK    4  A    between atoms: C_27  and  C_28
REMARK    5  A    between atoms: C_28  and  C_29
REMARK    6  A    between atoms: C_32  and  O_35
REMARK    7  A    between atoms: C_33  and  O_37
REMARK                            x       y       z     vdW  Elec       q    Type
REMARK                         _______ _______ _______ _____ _____    ______ ____
ROOT
ATOM      1  O   UNL     1      34.957 -20.916 -21.942  0.00  0.00    -0.270 OA
ATOM      2  N   UNL     1      35.153 -18.963 -20.657  0.00  0.00    -0.265 N 
ATOM      3  N   UNL     1      35.073 -16.039 -22.528  0.00  0.00    -0.239 N 
ATOM      4  N   UNL     1      35.170 -16.639 -21.329  0.00  0.00    -0.166 NA
ATOM      5  C   UNL     1      35.085 -20.350 -20.844  0.00  0.00    +0.251 C 
ATOM      6  C   UNL     1      34.938 -16.908 -23.571  0.00  0.00    +0.046 C 
ATOM      7  C   UNL     1      35.094 -17.937 -21.633  0.00  0.00    +0.153 C 
ATOM      8  C   UNL     1      34.949 -18.165 -23.015  0.00  0.00    +0.048 C 
ATOM      9  H   UNL     1      35.257 -18.661 -19.726  0.00  0.00    +0.157 HD
ATOM     10  H   UNL     1      35.096 -15.061 -22.642  0.00  0.00    +0.174 HD
ENDROOT
BRANCH   5  16
ATOM     11  C   UNL     1      35.435 -22.713 -17.336  0.00  0.00    +0.048 C 
ATOM     12  C   UNL     1      36.555 -22.058 -17.851  0.00  0.00    +0.015 C 
ATOM     13  C   UNL     1      34.200 -22.591 -17.973  0.00  0.00    +0.015 C 
ATOM     14  C   UNL     1      36.439 -21.282 -19.003  0.00  0.00    +0.006 C 
ATOM     15  C   UNL     1      34.086 -21.813 -19.126  0.00  0.00    +0.006 C 
ATOM     16  C   UNL     1      35.204 -21.159 -19.641  0.00  0.00    +0.054 C 
BRANCH  11  17
ATOM     17  N   UNL     1      35.549 -23.492 -16.179  0.00  0.00    -0.312 N 
ATOM     18  N   UNL     1      35.752 -24.883 -13.700  0.00  0.00    +0.389 N 
ATOM     19  C   UNL     1      36.873 -24.898 -14.646  0.00  0.00    -0.042 C 
ATOM     20  C   UNL     1      34.472 -24.840 -14.416  0.00  0.00    -0.042 C 
ATOM     21  C   UNL     1      36.857 -23.643 -15.530  0.00  0.00    +0.069 C 
ATOM     22  C   UNL     1      34.383 -23.582 -15.291  0.00  0.00    +0.069 C 
ATOM     23  C   UNL     1      33.331 -24.872 -13.401  0.00  0.00    -0.022 C 
ATOM     24  C   UNL     1      38.184 -24.988 -13.866  0.00  0.00    -0.022 C 
ATOM     25  H   UNL     1      35.829 -24.060 -13.102  0.00  0.00    -0.084 HD
ATOM     26  H   UNL     1      35.785 -25.733 -13.137  0.00  0.00    -0.084 HD
ENDBRANCH  11  17
ENDBRANCH   5  16
BRANCH   6  27
ATOM     27  C   UNL     1      34.816 -16.450 -24.963  0.00  0.00    +0.047 C 
BRANCH  27  28
ATOM     28  C   UNL     1      33.532 -15.638 -25.269  0.00  0.00    +0.033 C 
BRANCH  28  29
ATOM     29  C   UNL     1      33.472 -14.328 -24.521  0.00  0.00    -0.016 C 
ATOM     30  C   UNL     1      34.122 -13.203 -25.031  0.00  0.00    +0.033 C 
ATOM     31  C   UNL     1      32.766 -14.241 -23.322  0.00  0.00    +0.033 C 
ATOM     32  C   UNL     1      32.709 -13.031 -22.631  0.00  0.00    +0.141 C 
ATOM     33  C   UNL     1      34.065 -11.993 -24.341  0.00  0.00    +0.141 C 
ATOM     34  C   UNL     1      33.359 -11.906 -23.141  0.00  0.00    +0.074 C 
BRANCH  32  35
ATOM     35  O   UNL     1      32.020 -12.946 -21.460  0.00  0.00    -0.471 OA
ATOM     36  C   UNL     1      32.226 -13.990 -20.510  0.00  0.00    +0.252 C 
ENDBRANCH  32  35
BRANCH  33  37
ATOM     37  O   UNL     1      34.697 -10.895 -24.838  0.00  0.00    -0.471 OA
ATOM     38  C   UNL     1      34.982  -9.839 -23.921  0.00  0.00    +0.252 C 
ENDBRANCH  33  37
ENDBRANCH  28  29
ENDBRANCH  27  28
ENDBRANCH   6  27
TORSDOF 7
ENDMDL
MODEL 8
REMARK VINA RESULT:     -10.7      3.536     12.850
REMARK  Name = 51039095
REMARK  7 active torsions:
REMARK  status: ('A' for Active; 'I' for Inactive)
REMARK    1  A    between atoms: C_5  and  C_16
REMARK    2  A    between atoms: C_6  and  C_27
REMARK    3  A    between atoms: C_11  and  N_17
REMARK    4  A    between atoms: C_27  and  C_28
REMARK    5  A    between atoms: C_28  and  C_29
REMARK    6  A    between atoms: C_32  and  O_35
REMARK    7  A    between atoms: C_33  and  O_37
REMARK                            x       y       z     vdW  Elec       q    Type
REMARK                         _______ _______ _______ _____ _____    ______ ____
ROOT
ATOM      1  O   UNL     1      34.821 -20.911 -21.944  0.00  0.00    -0.270 OA
ATOM      2  N   UNL     1      35.171 -18.964 -20.681  0.00  0.00    -0.265 N 
ATOM      3  N   UNL     1      35.156 -16.047 -22.564  0.00  0.00    -0.239 N 
ATOM      4  N   UNL     1      35.275 -16.647 -21.367  0.00  0.00    -0.166 NA
ATOM      5  C   UNL     1      35.026 -20.347 -20.856  0.00  0.00    +0.251 C 
ATOM      6  C   UNL     1      34.932 -16.914 -23.595  0.00  0.00    +0.046 C 
ATOM      7  C   UNL     1      35.120 -17.941 -21.659  0.00  0.00    +0.153 C 
ATOM      8  C   UNL     1      34.904 -18.166 -23.032  0.00  0.00    +0.048 C 
ATOM      9  H   UNL     1      35.330 -18.664 -19.757  0.00  0.00    +0.157 HD
ATOM     10  H   UNL     1      35.222 -15.073 -22.686  0.00  0.00    +0.174 HD
ENDROOT
BRANCH   5  16
ATOM     11  C   UNL     1      35.404 -22.704 -17.347  0.00  0.00    +0.048 C 
ATOM     12  C   UNL     1      34.166 -22.590 -17.980  0.00  0.00    +0.015 C 
ATOM     13  C   UNL     1      36.518 -22.046 -17.867  0.00  0.00    +0.015 C 
ATOM     14  C   UNL     1      34.042 -21.815 -19.133  0.00  0.00    +0.006 C 
ATOM     15  C   UNL     1      36.393 -21.271 -19.021  0.00  0.00    +0.006 C 
ATOM     16  C   UNL     1      35.156 -21.156 -19.654  0.00  0.00    +0.054 C 
BRANCH  11  17
ATOM     17  N   UNL     1      35.531 -23.481 -16.190  0.00  0.00    -0.312 N 
ATOM     18  N   UNL     1      35.758 -24.868 -13.711  0.00  0.00    +0.389 N 
ATOM     19  C   UNL     1      36.871 -24.882 -14.666  0.00  0.00    -0.042 C 
ATOM     20  C   UNL     1      34.473 -24.829 -14.415  0.00  0.00    -0.042 C 
ATOM     21  C   UNL     1      36.844 -23.628 -15.553  0.00  0.00    +0.069 C 
ATOM     22  C   UNL     1      34.372 -23.572 -15.291  0.00  0.00    +0.069 C 
ATOM     23  C   UNL     1      33.341 -24.862 -13.390  0.00  0.00    -0.022 C 
ATOM     24  C   UNL     1      38.189 -24.967 -13.898  0.00  0.00    -0.022 C 
ATOM     25  H   UNL     1      35.839 -24.044 -13.115  0.00  0.00    -0.084 HD
ATOM     26  H   UNL     1      35.799 -25.717 -13.147  0.00  0.00    -0.084 HD
ENDBRANCH  11  17
ENDBRANCH   5  16
BRANCH   6  27
ATOM     27  C   UNL     1      34.773 -16.455 -24.984  0.00  0.00    +0.047 C 
BRANCH  27  28
ATOM     28  C   UNL     1      33.480 -15.645 -25.255  0.00  0.00    +0.033 C 
BRANCH  28  29
ATOM     29  C   UNL     1      33.402 -14.373 -24.445  0.00  0.00    -0.016 C 
ATOM     30  C   UNL     1      32.660 -14.342 -23.264  0.00  0.00    +0.033 C 
ATOM     31  C   UNL     1      34.073 -13.230 -24.876  0.00  0.00    +0.033 C 
ATOM     32  C   UNL     1      34.003 -12.054 -24.129  0.00  0.00    +0.141 C 
ATOM     33  C   UNL     1      32.590 -13.167 -22.515  0.00  0.00    +0.141 C 
ATOM     34  C   UNL     1      33.260 -12.023 -22.948  0.00  0.00    +0.074 C 
BRANCH  32  35
ATOM     35  O   UNL     1      34.658 -10.938 -24.550  0.00  0.00    -0.471 OA
ATOM     36  C   UNL     1      34.628  -9.805 -23.683  0.00  0.00    +0.252 C 
ENDBRANCH  32  35
BRANCH  33  37
ATOM     37  O   UNL     1      31.867 -13.136 -21.363  0.00  0.00    -0.471 OA
ATOM     38  C   UNL     1      31.561 -11.851 -20.823  0.00  0.00    +0.252 C 
ENDBRANCH  33  37
ENDBRANCH  28  29
ENDBRANCH  27  28
ENDBRANCH   6  27
TORSDOF 7
ENDMDL
MODEL 9
REMARK VINA RESULT:     -10.3      3.007      5.530
REMARK  Name = 51039095
REMARK  7 active torsions:
REMARK  status: ('A' for Active; 'I' for Inactive)
REMARK    1  A    between atoms: C_5  and  C_16
REMARK    2  A    between atoms: C_6  and  C_27
REMARK    3  A    between atoms: C_11  and  N_17
REMARK    4  A    between atoms: C_27  and  C_28
REMARK    5  A    between atoms: C_28  and  C_29
REMARK    6  A    between atoms: C_32  and  O_35
REMARK    7  A    between atoms: C_33  and  O_37
REMARK                            x       y       z     vdW  Elec       q    Type
REMARK                         _______ _______ _______ _____ _____    ______ ____
ROOT
ATOM      1  O   UNL     1      33.460 -10.846 -23.266  0.00  0.00    -0.270 OA
ATOM      2  N   UNL     1      32.069 -10.497 -21.409  0.00  0.00    -0.265 N 
ATOM      3  N   UNL     1      31.610 -13.325 -19.448  0.00  0.00    -0.239 N 
ATOM      4  N   UNL     1      31.356 -12.025 -19.675  0.00  0.00    -0.166 NA
ATOM      5  C   UNL     1      32.747 -10.104 -22.572  0.00  0.00    +0.251 C 
ATOM      6  C   UNL     1      32.432 -13.896 -20.376  0.00  0.00    +0.046 C 
ATOM      7  C   UNL     1      32.045 -11.771 -20.790  0.00  0.00    +0.153 C 
ATOM      8  C   UNL     1      32.735 -12.900 -21.272  0.00  0.00    +0.048 C 
ATOM      9  H   UNL     1      31.539  -9.796 -20.965  0.00  0.00    +0.157 HD
ATOM     10  H   UNL     1      31.239 -13.819 -18.682  0.00  0.00    +0.174 HD
ENDROOT
BRANCH   5  16
ATOM     11  C   UNL     1      32.186  -6.071 -23.769  0.00  0.00    +0.048 C 
ATOM     12  C   UNL     1      31.081  -6.876 -23.490  0.00  0.00    +0.015 C 
ATOM     13  C   UNL     1      33.475  -6.591 -23.655  0.00  0.00    +0.015 C 
ATOM     14  C   UNL     1      31.266  -8.201 -23.096  0.00  0.00    +0.006 C 
ATOM     15  C   UNL     1      33.659  -7.917 -23.261  0.00  0.00    +0.006 C 
ATOM     16  C   UNL     1      32.555  -8.721 -22.981  0.00  0.00    +0.054 C 
BRANCH  11  17
ATOM     17  N   UNL     1      32.002  -4.741 -24.164  0.00  0.00    -0.312 N 
ATOM     18  N   UNL     1      31.438  -2.103 -25.082  0.00  0.00    +0.389 N 
ATOM     19  C   UNL     1      32.698  -2.756 -25.451  0.00  0.00    -0.042 C 
ATOM     20  C   UNL     1      31.011  -2.522 -23.743  0.00  0.00    -0.042 C 
ATOM     21  C   UNL     1      32.541  -4.284 -25.450  0.00  0.00    +0.069 C 
ATOM     22  C   UNL     1      30.800  -4.042 -23.692  0.00  0.00    +0.069 C 
ATOM     23  C   UNL     1      29.722  -1.788 -23.377  0.00  0.00    -0.022 C 
ATOM     24  C   UNL     1      33.133  -2.262 -26.830  0.00  0.00    -0.022 C 
ATOM     25  H   UNL     1      30.718  -2.359 -25.759  0.00  0.00    -0.084 HD
ATOM     26  H   UNL     1      31.579  -1.093 -25.082  0.00  0.00    -0.084 HD
ENDBRANCH  11  17
ENDBRANCH   5  16
BRANCH   6  27
ATOM     27  C   UNL     1      32.832 -15.310 -20.305  0.00  0.00    +0.047 C 
BRANCH  27  28
ATOM     28  C   UNL     1      34.347 -15.566 -20.499  0.00  0.00    +0.033 C 
BRANCH  28  29
ATOM     29  C   UNL     1      34.640 -16.566 -21.593  0.00  0.00    -0.016 C 
ATOM     30  C   UNL     1      34.981 -17.878 -21.266  0.00  0.00    +0.033 C 
ATOM     31  C   UNL     1      34.566 -16.177 -22.929  0.00  0.00    +0.033 C 
ATOM     32  C   UNL     1      34.835 -17.100 -23.941  0.00  0.00    +0.141 C 
ATOM     33  C   UNL     1      35.249 -18.801 -22.276  0.00  0.00    +0.141 C 
ATOM     34  C   UNL     1      35.177 -18.412 -23.614  0.00  0.00    +0.074 C 
BRANCH  32  35
ATOM     35  O   UNL     1      34.763 -16.721 -25.246  0.00  0.00    -0.471 OA
ATOM     36  C   UNL     1      33.867 -15.656 -25.563  0.00  0.00    +0.252 C 
ENDBRANCH  32  35
BRANCH  33  37
ATOM     37  O   UNL     1      35.582 -20.082 -21.958  0.00  0.00    -0.471 OA
ATOM     38  C   UNL     1      35.260 -20.529 -20.641  0.00  0.00    +0.252 C 
ENDBRANCH  33  37
ENDBRANCH  28  29
ENDBRANCH  27  28
ENDBRANCH   6  27
TORSDOF 7
ENDMDL
