MODEL 1
REMARK VINA RESULT:     -11.6      0.000      0.000
REMARK  Name = 9801640
REMARK  6 active torsions:
REMARK  status: ('A' for Active; 'I' for Inactive)
REMARK    1  A    between atoms: C_1  and  C_2
REMARK    2  A    between atoms: C_1  and  C_16
REMARK    3  A    between atoms: C_2  and  N_3
REMARK    4  A    between atoms: C_7  and  C_11
REMARK    5  A    between atoms: C_16  and  C_17
REMARK    6  A    between atoms: C_17  and  N_21
REMARK                            x       y       z     vdW  Elec       q    Type
REMARK                         _______ _______ _______ _____ _____    ______ ____
ROOT
ATOM      1  C   UNL     1      33.651 -15.863 -24.961  0.00  0.00    -0.021 C 
ENDROOT
BRANCH   1   2
ATOM      2  C   UNL     1      35.136 -16.021 -24.637  0.00  0.00    -0.077 C 
BRANCH   2   3
ATOM      3  N   UNL     1      35.330 -17.083 -23.653  0.00  0.00    +0.390 N 
ATOM      4  C   UNL     1      34.864 -16.667 -22.326  0.00  0.00    -0.072 C 
ATOM      5  C   UNL     1      34.652 -18.318 -24.077  0.00  0.00    -0.051 C 
ATOM      6  C   UNL     1      35.232 -17.734 -21.285  0.00  0.00    +0.005 C 
ATOM      7  C   UNL     1      34.865 -19.135 -21.720  0.00  0.00    -0.013 C 
ATOM      8  C   UNL     1      34.597 -19.384 -23.016  0.00  0.00    -0.052 C 
ATOM      9  H   UNL     1      36.330 -17.272 -23.588  0.00  0.00    -0.079 HD
BRANCH   7  11
ATOM     10  N   UNL     1      36.010 -20.624 -20.216  0.00  0.00    -0.244 NA
ATOM     11  C   UNL     1      34.817 -20.201 -20.691  0.00  0.00    +0.077 C 
ATOM     12  C   UNL     1      33.595 -20.707 -20.271  0.00  0.00    +0.019 C 
ATOM     13  C   UNL     1      33.600 -21.707 -19.304  0.00  0.00    +0.003 C 
ATOM     14  C   UNL     1      35.975 -21.598 -19.278  0.00  0.00    +0.099 C 
ATOM     15  C   UNL     1      34.809 -22.166 -18.793  0.00  0.00    +0.021 C 
ENDBRANCH   7  11
ENDBRANCH   2   3
ENDBRANCH   1   2
BRANCH   1  16
ATOM     16  C   UNL     1      33.221 -14.395 -24.877  0.00  0.00    +0.020 C 
BRANCH  16  17
ATOM     17  C   UNL     1      34.171 -13.553 -24.032  0.00  0.00    +0.099 C 
BRANCH  17  21
ATOM     18 CL   UNL     1      35.076 -10.785 -24.415  0.00  0.00    -0.062 Cl
ATOM     19  O   UNL     1      31.643 -10.289 -22.511  0.00  0.00    -0.448 OA
ATOM     20  O   UNL     1      32.293 -14.264 -22.130  0.00  0.00    -0.269 OA
ATOM     21  N   UNL     1      33.462 -12.558 -23.214  0.00  0.00    -0.244 N 
ATOM     22  C   UNL     1      32.611 -13.074 -22.212  0.00  0.00    +0.256 C 
ATOM     23  C   UNL     1      33.668 -11.206 -23.482  0.00  0.00    +0.151 C 
ATOM     24  C   UNL     1      32.126 -12.207 -21.111  0.00  0.00    +0.088 C 
ATOM     25  C   UNL     1      31.665 -10.907 -21.294  0.00  0.00    +0.150 C 
ATOM     26  C   UNL     1      32.849 -10.201 -23.148  0.00  0.00    +0.206 C 
ATOM     27  C   UNL     1      32.078 -12.768 -19.824  0.00  0.00    +0.008 C 
ATOM     28  C   UNL     1      31.140 -10.180 -20.219  0.00  0.00    +0.038 C 
ATOM     29  C   UNL     1      31.575 -12.037 -18.746  0.00  0.00    +0.000 C 
ATOM     30  C   UNL     1      31.102 -10.743 -18.945  0.00  0.00    +0.003 C 
ENDBRANCH  17  21
ENDBRANCH  16  17
ENDBRANCH   1  16
TORSDOF 6
ENDMDL
MODEL 2
REMARK VINA RESULT:     -11.0      2.481      3.522
REMARK  Name = 9801640
REMARK  6 active torsions:
REMARK  status: ('A' for Active; 'I' for Inactive)
REMARK    1  A    between atoms: C_1  and  C_2
REMARK    2  A    between atoms: C_1  and  C_16
REMARK    3  A    between atoms: C_2  and  N_3
REMARK    4  A    between atoms: C_7  and  C_11
REMARK    5  A    between atoms: C_16  and  C_17
REMARK    6  A    between atoms: C_17  and  N_21
REMARK                            x       y       z     vdW  Elec       q    Type
REMARK                         _______ _______ _______ _____ _____    ______ ____
ROOT
ATOM      1  C   UNL     1      33.031 -13.869 -23.130  0.00  0.00    -0.021 C 
ENDROOT
BRANCH   1   2
ATOM      2  C   UNL     1      34.383 -14.326 -23.675  0.00  0.00    -0.077 C 
BRANCH   2   3
ATOM      3  N   UNL     1      34.872 -15.476 -22.918  0.00  0.00    +0.390 N 
ATOM      4  C   UNL     1      34.093 -15.673 -21.692  0.00  0.00    -0.072 C 
ATOM      5  C   UNL     1      34.854 -16.692 -23.747  0.00  0.00    -0.051 C 
ATOM      6  C   UNL     1      34.732 -16.780 -20.840  0.00  0.00    +0.005 C 
ATOM      7  C   UNL     1      35.063 -18.022 -21.637  0.00  0.00    -0.013 C 
ATOM      8  C   UNL     1      35.112 -17.961 -22.980  0.00  0.00    -0.052 C 
ATOM      9  H   UNL     1      35.838 -15.287 -22.649  0.00  0.00    -0.079 HD
BRANCH   7  11
ATOM     10  N   UNL     1      36.617 -19.496 -20.537  0.00  0.00    -0.244 NA
ATOM     11  C   UNL     1      35.331 -19.280 -20.899  0.00  0.00    +0.077 C 
ATOM     12  C   UNL     1      34.293 -20.156 -20.618  0.00  0.00    +0.019 C 
ATOM     13  C   UNL     1      34.593 -21.324 -19.925  0.00  0.00    +0.003 C 
ATOM     14  C   UNL     1      36.871 -20.642 -19.865  0.00  0.00    +0.099 C 
ATOM     15  C   UNL     1      35.904 -21.578 -19.538  0.00  0.00    +0.021 C 
ENDBRANCH   7  11
ENDBRANCH   2   3
ENDBRANCH   1   2
BRANCH   1  16
ATOM     16  C   UNL     1      33.168 -12.564 -22.338  0.00  0.00    +0.020 C 
BRANCH  16  17
ATOM     17  C   UNL     1      31.846 -12.102 -21.735  0.00  0.00    +0.099 C 
BRANCH  17  21
ATOM     18 CL   UNL     1      31.047 -11.679 -18.940  0.00  0.00    -0.062 Cl
ATOM     19  O   UNL     1      32.800  -8.247 -19.841  0.00  0.00    -0.448 OA
ATOM     20  O   UNL     1      32.422 -10.018 -23.459  0.00  0.00    -0.269 OA
ATOM     21  N   UNL     1      31.890 -10.702 -21.291  0.00  0.00    -0.244 N 
ATOM     22  C   UNL     1      32.093  -9.738 -22.304  0.00  0.00    +0.256 C 
ATOM     23  C   UNL     1      31.740 -10.428 -19.933  0.00  0.00    +0.151 C 
ATOM     24  C   UNL     1      31.807  -8.305 -22.052  0.00  0.00    +0.088 C 
ATOM     25  C   UNL     1      32.169  -7.636 -20.887  0.00  0.00    +0.150 C 
ATOM     26  C   UNL     1      32.142  -9.317 -19.302  0.00  0.00    +0.206 C 
ATOM     27  C   UNL     1      31.191  -7.581 -23.085  0.00  0.00    +0.008 C 
ATOM     28  C   UNL     1      31.944  -6.260 -20.757  0.00  0.00    +0.038 C 
ATOM     29  C   UNL     1      30.946  -6.212 -22.949  0.00  0.00    +0.000 C 
ATOM     30  C   UNL     1      31.327  -5.552 -21.785  0.00  0.00    +0.003 C 
ENDBRANCH  17  21
ENDBRANCH  16  17
ENDBRANCH   1  16
TORSDOF 6
ENDMDL
MODEL 3
REMARK VINA RESULT:     -10.6      5.838     11.169
REMARK  Name = 9801640
REMARK  6 active torsions:
REMARK  status: ('A' for Active; 'I' for Inactive)
REMARK    1  A    between atoms: C_1  and  C_2
REMARK    2  A    between atoms: C_1  and  C_16
REMARK    3  A    between atoms: C_2  and  N_3
REMARK    4  A    between atoms: C_7  and  C_11
REMARK    5  A    between atoms: C_16  and  C_17
REMARK    6  A    between atoms: C_17  and  N_21
REMARK                            x       y       z     vdW  Elec       q    Type
REMARK                         _______ _______ _______ _____ _____    ______ ____
ROOT
ATOM      1  C   UNL     1      36.759 -21.998 -17.531  0.00  0.00    -0.021 C 
ENDROOT
BRANCH   1   2
ATOM      2  C   UNL     1      36.061 -22.161 -18.880  0.00  0.00    -0.077 C 
BRANCH   2   3
ATOM      3  N   UNL     1      35.796 -20.853 -19.475  0.00  0.00    +0.390 N 
ATOM      4  C   UNL     1      36.908 -20.424 -20.328  0.00  0.00    -0.072 C 
ATOM      5  C   UNL     1      34.535 -20.870 -20.233  0.00  0.00    -0.051 C 
ATOM      6  C   UNL     1      36.676 -18.981 -20.803  0.00  0.00    +0.005 C 
ATOM      7  C   UNL     1      35.282 -18.755 -21.345  0.00  0.00    -0.013 C 
ATOM      8  C   UNL     1      34.307 -19.642 -21.072  0.00  0.00    -0.052 C 
ATOM      9  H   UNL     1      35.704 -20.176 -18.717  0.00  0.00    -0.079 HD
BRANCH   7  11
ATOM     10  N   UNL     1      34.803 -16.400 -21.482  0.00  0.00    -0.244 NA
ATOM     11  C   UNL     1      35.035 -17.544 -22.165  0.00  0.00    +0.077 C 
ATOM     12  C   UNL     1      35.049 -17.628 -23.550  0.00  0.00    +0.019 C 
ATOM     13  C   UNL     1      34.811 -16.467 -24.276  0.00  0.00    +0.003 C 
ATOM     14  C   UNL     1      34.574 -15.291 -22.222  0.00  0.00    +0.099 C 
ATOM     15  C   UNL     1      34.568 -15.272 -23.607  0.00  0.00    +0.021 C 
ENDBRANCH   7  11
ENDBRANCH   2   3
ENDBRANCH   1   2
BRANCH   1  16
ATOM     16  C   UNL     1      35.896 -22.552 -16.393  0.00  0.00    +0.020 C 
BRANCH  16  17
ATOM     17  C   UNL     1      34.818 -23.511 -16.887  0.00  0.00    +0.099 C 
BRANCH  17  21
ATOM     18 CL   UNL     1      35.953 -25.259 -14.817  0.00  0.00    -0.062 Cl
ATOM     19  O   UNL     1      32.599 -24.018 -13.122  0.00  0.00    -0.448 OA
ATOM     20  O   UNL     1      32.142 -22.818 -16.959  0.00  0.00    -0.269 OA
ATOM     21  N   UNL     1      33.876 -23.893 -15.825  0.00  0.00    -0.244 N 
ATOM     22  C   UNL     1      32.522 -23.560 -16.050  0.00  0.00    +0.256 C 
ATOM     23  C   UNL     1      34.374 -24.536 -14.693  0.00  0.00    +0.151 C 
ATOM     24  C   UNL     1      31.446 -24.190 -15.247  0.00  0.00    +0.088 C 
ATOM     25  C   UNL     1      31.513 -24.374 -13.870  0.00  0.00    +0.150 C 
ATOM     26  C   UNL     1      33.781 -24.594 -13.494  0.00  0.00    +0.206 C 
ATOM     27  C   UNL     1      30.271 -24.558 -15.924  0.00  0.00    +0.008 C 
ATOM     28  C   UNL     1      30.420 -24.896 -13.167  0.00  0.00    +0.038 C 
ATOM     29  C   UNL     1      29.188 -25.099 -15.227  0.00  0.00    +0.000 C 
ATOM     30  C   UNL     1      29.262 -25.263 -13.848  0.00  0.00    +0.003 C 
ENDBRANCH  17  21
ENDBRANCH  16  17
ENDBRANCH   1  16
TORSDOF 6
ENDMDL
MODEL 4
REMARK VINA RESULT:     -10.5      7.740     11.538
REMARK  Name = 9801640
REMARK  6 active torsions:
REMARK  status: ('A' for Active; 'I' for Inactive)
REMARK    1  A    between atoms: C_1  and  C_2
REMARK    2  A    between atoms: C_1  and  C_16
REMARK    3  A    between atoms: C_2  and  N_3
REMARK    4  A    between atoms: C_7  and  C_11
REMARK    5  A    between atoms: C_16  and  C_17
REMARK    6  A    between atoms: C_17  and  N_21
REMARK                            x       y       z     vdW  Elec       q    Type
REMARK                         _______ _______ _______ _____ _____    ______ ____
ROOT
ATOM      1  C   UNL     1      33.576 -24.431 -13.362  0.00  0.00    -0.021 C 
ENDROOT
BRANCH   1   2
ATOM      2  C   UNL     1      32.351 -25.335 -13.496  0.00  0.00    -0.077 C 
BRANCH   2   3
ATOM      3  N   UNL     1      31.364 -24.724 -14.384  0.00  0.00    +0.390 N 
ATOM      4  C   UNL     1      30.213 -25.609 -14.585  0.00  0.00    -0.072 C 
ATOM      5  C   UNL     1      30.931 -23.419 -13.862  0.00  0.00    -0.051 C 
ATOM      6  C   UNL     1      29.277 -25.015 -15.648  0.00  0.00    +0.005 C 
ATOM      7  C   UNL     1      28.971 -23.553 -15.414  0.00  0.00    -0.013 C 
ATOM      8  C   UNL     1      29.747 -22.833 -14.582  0.00  0.00    -0.052 C 
ATOM      9  H   UNL     1      31.807 -24.576 -15.290  0.00  0.00    -0.079 HD
BRANCH   7  11
ATOM     10  N   UNL     1      27.844 -23.022 -17.474  0.00  0.00    -0.244 NA
ATOM     11  C   UNL     1      27.815 -22.954 -16.123  0.00  0.00    +0.077 C 
ATOM     12  C   UNL     1      26.785 -22.367 -15.401  0.00  0.00    +0.019 C 
ATOM     13  C   UNL     1      25.722 -21.818 -16.110  0.00  0.00    +0.003 C 
ATOM     14  C   UNL     1      26.794 -22.477 -18.129  0.00  0.00    +0.099 C 
ATOM     15  C   UNL     1      25.719 -21.870 -17.500  0.00  0.00    +0.021 C 
ENDBRANCH   7  11
ENDBRANCH   2   3
ENDBRANCH   1   2
BRANCH   1  16
ATOM     16  C   UNL     1      33.777 -23.584 -14.624  0.00  0.00    +0.020 C 
BRANCH  16  17
ATOM     17  C   UNL     1      34.818 -24.176 -15.567  0.00  0.00    +0.099 C 
BRANCH  17  21
ATOM     18 CL   UNL     1      37.068 -22.357 -15.058  0.00  0.00    -0.062 Cl
ATOM     19  O   UNL     1      36.640 -22.084 -18.983  0.00  0.00    -0.448 OA
ATOM     20  O   UNL     1      33.288 -24.056 -17.868  0.00  0.00    -0.269 OA
ATOM     21  N   UNL     1      35.141 -23.274 -16.683  0.00  0.00    -0.244 N 
ATOM     22  C   UNL     1      34.210 -23.246 -17.745  0.00  0.00    +0.256 C 
ATOM     23  C   UNL     1      36.319 -22.532 -16.620  0.00  0.00    +0.151 C 
ATOM     24  C   UNL     1      34.230 -22.145 -18.738  0.00  0.00    +0.088 C 
ATOM     25  C   UNL     1      35.392 -21.636 -19.308  0.00  0.00    +0.150 C 
ATOM     26  C   UNL     1      36.970 -21.994 -17.660  0.00  0.00    +0.206 C 
ATOM     27  C   UNL     1      32.989 -21.640 -19.163  0.00  0.00    +0.008 C 
ATOM     28  C   UNL     1      35.325 -20.655 -20.305  0.00  0.00    +0.038 C 
ATOM     29  C   UNL     1      32.922 -20.647 -20.142  0.00  0.00    +0.000 C 
ATOM     30  C   UNL     1      34.091 -20.157 -20.716  0.00  0.00    +0.003 C 
ENDBRANCH  17  21
ENDBRANCH  16  17
ENDBRANCH   1  16
TORSDOF 6
ENDMDL
MODEL 5
REMARK VINA RESULT:     -10.5      3.706      9.329
REMARK  Name = 9801640
REMARK  6 active torsions:
REMARK  status: ('A' for Active; 'I' for Inactive)
REMARK    1  A    between atoms: C_1  and  C_2
REMARK    2  A    between atoms: C_1  and  C_16
REMARK    3  A    between atoms: C_2  and  N_3
REMARK    4  A    between atoms: C_7  and  C_11
REMARK    5  A    between atoms: C_16  and  C_17
REMARK    6  A    between atoms: C_17  and  N_21
REMARK                            x       y       z     vdW  Elec       q    Type
REMARK                         _______ _______ _______ _____ _____    ______ ____
ROOT
ATOM      1  C   UNL     1      34.941 -18.973 -23.284  0.00  0.00    -0.021 C 
ENDROOT
BRANCH   1   2
ATOM      2  C   UNL     1      35.609 -17.793 -22.579  0.00  0.00    -0.077 C 
BRANCH   2   3
ATOM      3  N   UNL     1      34.624 -16.757 -22.279  0.00  0.00    +0.390 N 
ATOM      4  C   UNL     1      34.681 -16.363 -20.868  0.00  0.00    -0.072 C 
ATOM      5  C   UNL     1      34.814 -15.588 -23.153  0.00  0.00    -0.051 C 
ATOM      6  C   UNL     1      33.529 -15.400 -20.547  0.00  0.00    +0.005 C 
ATOM      7  C   UNL     1      33.398 -14.280 -21.556  0.00  0.00    -0.013 C 
ATOM      8  C   UNL     1      34.002 -14.386 -22.754  0.00  0.00    -0.052 C 
ATOM      9  H   UNL     1      33.697 -17.144 -22.459  0.00  0.00    -0.079 HD
BRANCH   7  11
ATOM     10  N   UNL     1      32.477 -12.132 -22.133  0.00  0.00    -0.244 NA
ATOM     11  C   UNL     1      32.593 -13.091 -21.186  0.00  0.00    +0.077 C 
ATOM     12  C   UNL     1      32.011 -13.010 -19.929  0.00  0.00    +0.019 C 
ATOM     13  C   UNL     1      31.265 -11.876 -19.627  0.00  0.00    +0.003 C 
ATOM     14  C   UNL     1      31.745 -11.043 -21.802  0.00  0.00    +0.099 C 
ATOM     15  C   UNL     1      31.125 -10.869 -20.576  0.00  0.00    +0.021 C 
ENDBRANCH   7  11
ENDBRANCH   2   3
ENDBRANCH   1   2
BRANCH   1  16
ATOM     16  C   UNL     1      34.991 -20.234 -22.415  0.00  0.00    +0.020 C 
BRANCH  16  17
ATOM     17  C   UNL     1      35.491 -19.955 -21.002  0.00  0.00    +0.099 C 
BRANCH  17  21
ATOM     18 CL   UNL     1      32.638 -19.503 -20.470  0.00  0.00    -0.062 Cl
ATOM     19  O   UNL     1      33.236 -23.072 -18.868  0.00  0.00    -0.448 OA
ATOM     20  O   UNL     1      37.005 -21.791 -19.593  0.00  0.00    -0.269 OA
ATOM     21  N   UNL     1      34.903 -20.864 -20.008  0.00  0.00    -0.244 N 
ATOM     22  C   UNL     1      35.814 -21.672 -19.293  0.00  0.00    +0.256 C 
ATOM     23  C   UNL     1      33.518 -20.871 -19.849  0.00  0.00    +0.151 C 
ATOM     24  C   UNL     1      35.400 -22.355 -18.044  0.00  0.00    +0.088 C 
ATOM     25  C   UNL     1      34.185 -23.015 -17.887  0.00  0.00    +0.150 C 
ATOM     26  C   UNL     1      32.789 -21.864 -19.324  0.00  0.00    +0.206 C 
ATOM     27  C   UNL     1      36.325 -22.380 -16.987  0.00  0.00    +0.008 C 
ATOM     28  C   UNL     1      33.900 -23.713 -16.707  0.00  0.00    +0.038 C 
ATOM     29  C   UNL     1      36.034 -23.058 -15.801  0.00  0.00    +0.000 C 
ATOM     30  C   UNL     1      34.822 -23.728 -15.664  0.00  0.00    +0.003 C 
ENDBRANCH  17  21
ENDBRANCH  16  17
ENDBRANCH   1  16
TORSDOF 6
ENDMDL
MODEL 6
REMARK VINA RESULT:     -10.5      6.243     11.640
REMARK  Name = 9801640
REMARK  6 active torsions:
REMARK  status: ('A' for Active; 'I' for Inactive)
REMARK    1  A    between atoms: C_1  and  C_2
REMARK    2  A    between atoms: C_1  and  C_16
REMARK    3  A    between atoms: C_2  and  N_3
REMARK    4  A    between atoms: C_7  and  C_11
REMARK    5  A    between atoms: C_16  and  C_17
REMARK    6  A    between atoms: C_17  and  N_21
REMARK                            x       y       z     vdW  Elec       q    Type
REMARK                         _______ _______ _______ _____ _____    ______ ____
ROOT
ATOM      1  C   UNL     1      34.842 -22.702 -18.702  0.00  0.00    -0.021 C 
ENDROOT
BRANCH   1   2
ATOM      2  C   UNL     1      36.134 -22.032 -19.165  0.00  0.00    -0.077 C 
BRANCH   2   3
ATOM      3  N   UNL     1      35.856 -20.691 -19.674  0.00  0.00    +0.390 N 
ATOM      4  C   UNL     1      36.923 -20.231 -20.568  0.00  0.00    -0.072 C 
ATOM      5  C   UNL     1      34.553 -20.652 -20.357  0.00  0.00    -0.051 C 
ATOM      6  C   UNL     1      36.686 -18.762 -20.951  0.00  0.00    +0.005 C 
ATOM      7  C   UNL     1      35.267 -18.490 -21.398  0.00  0.00    -0.013 C 
ATOM      8  C   UNL     1      34.296 -19.378 -21.115  0.00  0.00    -0.052 C 
ATOM      9  H   UNL     1      35.819 -20.055 -18.877  0.00  0.00    -0.079 HD
BRANCH   7  11
ATOM     10  N   UNL     1      34.718 -16.146 -21.381  0.00  0.00    -0.244 NA
ATOM     11  C   UNL     1      34.991 -17.235 -22.137  0.00  0.00    +0.077 C 
ATOM     12  C   UNL     1      35.021 -17.224 -23.524  0.00  0.00    +0.019 C 
ATOM     13  C   UNL     1      34.755 -16.024 -24.174  0.00  0.00    +0.003 C 
ATOM     14  C   UNL     1      34.464 -14.997 -22.048  0.00  0.00    +0.099 C 
ATOM     15  C   UNL     1      34.470 -14.885 -23.429  0.00  0.00    +0.021 C 
ENDBRANCH   7  11
ENDBRANCH   2   3
ENDBRANCH   1   2
BRANCH   1  16
ATOM     16  C   UNL     1      34.734 -22.695 -17.174  0.00  0.00    +0.020 C 
BRANCH  16  17
ATOM     17  C   UNL     1      34.167 -23.998 -16.619  0.00  0.00    +0.099 C 
BRANCH  17  21
ATOM     18 CL   UNL     1      31.762 -23.189 -15.139  0.00  0.00    -0.062 Cl
ATOM     19  O   UNL     1      33.866 -25.065 -12.362  0.00  0.00    -0.448 OA
ATOM     20  O   UNL     1      36.543 -24.659 -15.368  0.00  0.00    -0.269 OA
ATOM     21  N   UNL     1      34.289 -24.086 -15.157  0.00  0.00    -0.244 N 
ATOM     22  C   UNL     1      35.589 -24.329 -14.659  0.00  0.00    +0.256 C 
ATOM     23  C   UNL     1      33.142 -23.933 -14.382  0.00  0.00    +0.151 C 
ATOM     24  C   UNL     1      35.907 -24.090 -13.231  0.00  0.00    +0.088 C 
ATOM     25  C   UNL     1      35.078 -24.464 -12.178  0.00  0.00    +0.150 C 
ATOM     26  C   UNL     1      32.974 -24.366 -13.126  0.00  0.00    +0.206 C 
ATOM     27  C   UNL     1      37.152 -23.507 -12.939  0.00  0.00    +0.008 C 
ATOM     28  C   UNL     1      35.487 -24.285 -10.851  0.00  0.00    +0.038 C 
ATOM     29  C   UNL     1      37.552 -23.308 -11.616  0.00  0.00    +0.000 C 
ATOM     30  C   UNL     1      36.720 -23.701 -10.572  0.00  0.00    +0.003 C 
ENDBRANCH  17  21
ENDBRANCH  16  17
ENDBRANCH   1  16
TORSDOF 6
ENDMDL
MODEL 7
REMARK VINA RESULT:     -10.1      2.755      5.294
REMARK  Name = 9801640
REMARK  6 active torsions:
REMARK  status: ('A' for Active; 'I' for Inactive)
REMARK    1  A    between atoms: C_1  and  C_2
REMARK    2  A    between atoms: C_1  and  C_16
REMARK    3  A    between atoms: C_2  and  N_3
REMARK    4  A    between atoms: C_7  and  C_11
REMARK    5  A    between atoms: C_16  and  C_17
REMARK    6  A    between atoms: C_17  and  N_21
REMARK                            x       y       z     vdW  Elec       q    Type
REMARK                         _______ _______ _______ _____ _____    ______ ____
ROOT
ATOM      1  C   UNL     1      36.294 -19.205 -21.326  0.00  0.00    -0.021 C 
ENDROOT
BRANCH   1   2
ATOM      2  C   UNL     1      35.120 -19.991 -21.909  0.00  0.00    -0.077 C 
BRANCH   2   3
ATOM      3  N   UNL     1      34.604 -20.937 -20.923  0.00  0.00    +0.390 N 
ATOM      4  C   UNL     1      35.546 -21.113 -19.813  0.00  0.00    -0.072 C 
ATOM      5  C   UNL     1      33.289 -20.504 -20.424  0.00  0.00    -0.051 C 
ATOM      6  C   UNL     1      35.054 -22.231 -18.882  0.00  0.00    +0.005 C 
ATOM      7  C   UNL     1      33.594 -22.092 -18.513  0.00  0.00    -0.013 C 
ATOM      8  C   UNL     1      32.795 -21.287 -19.237  0.00  0.00    -0.052 C 
ATOM      9  H   UNL     1      34.490 -21.840 -21.383  0.00  0.00    -0.079 HD
BRANCH   7  11
ATOM     10  N   UNL     1      31.741 -22.926 -17.222  0.00  0.00    -0.244 NA
ATOM     11  C   UNL     1      33.086 -22.864 -17.353  0.00  0.00    +0.077 C 
ATOM     12  C   UNL     1      33.976 -23.469 -16.477  0.00  0.00    +0.019 C 
ATOM     13  C   UNL     1      33.453 -24.181 -15.403  0.00  0.00    +0.003 C 
ATOM     14  C   UNL     1      31.269 -23.627 -16.166  0.00  0.00    +0.099 C 
ATOM     15  C   UNL     1      32.075 -24.266 -15.238  0.00  0.00    +0.021 C 
ENDBRANCH   7  11
ENDBRANCH   2   3
ENDBRANCH   1   2
BRANCH   1  16
ATOM     16  C   UNL     1      35.913 -17.739 -21.091  0.00  0.00    +0.020 C 
BRANCH  16  17
ATOM     17  C   UNL     1      34.439 -17.464 -21.368  0.00  0.00    +0.099 C 
BRANCH  17  21
ATOM     18 CL   UNL     1      32.983 -15.419 -19.844  0.00  0.00    -0.062 Cl
ATOM     19  O   UNL     1      34.514 -13.313 -22.824  0.00  0.00    -0.448 OA
ATOM     20  O   UNL     1      35.165 -17.125 -24.015  0.00  0.00    -0.269 OA
ATOM     21  N   UNL     1      34.230 -16.199 -22.087  0.00  0.00    -0.244 N 
ATOM     22  C   UNL     1      34.552 -16.208 -23.462  0.00  0.00    +0.256 C 
ATOM     23  C   UNL     1      33.745 -15.102 -21.377  0.00  0.00    +0.151 C 
ATOM     24  C   UNL     1      34.064 -15.134 -24.359  0.00  0.00    +0.088 C 
ATOM     25  C   UNL     1      34.075 -13.782 -24.030  0.00  0.00    +0.150 C 
ATOM     26  C   UNL     1      33.870 -13.816 -21.729  0.00  0.00    +0.206 C 
ATOM     27  C   UNL     1      33.624 -15.515 -25.638  0.00  0.00    +0.008 C 
ATOM     28  C   UNL     1      33.680 -12.818 -24.964  0.00  0.00    +0.038 C 
ATOM     29  C   UNL     1      33.209 -14.555 -26.564  0.00  0.00    +0.000 C 
ATOM     30  C   UNL     1      33.241 -13.206 -26.227  0.00  0.00    +0.003 C 
ENDBRANCH  17  21
ENDBRANCH  16  17
ENDBRANCH   1  16
TORSDOF 6
ENDMDL
MODEL 8
REMARK VINA RESULT:     -10.0      4.754     10.397
REMARK  Name = 9801640
REMARK  6 active torsions:
REMARK  status: ('A' for Active; 'I' for Inactive)
REMARK    1  A    between atoms: C_1  and  C_2
REMARK    2  A    between atoms: C_1  and  C_16
REMARK    3  A    between atoms: C_2  and  N_3
REMARK    4  A    between atoms: C_7  and  C_11
REMARK    5  A    between atoms: C_16  and  C_17
REMARK    6  A    between atoms: C_17  and  N_21
REMARK                            x       y       z     vdW  Elec       q    Type
REMARK                         _______ _______ _______ _____ _____    ______ ____
ROOT
ATOM      1  C   UNL     1      34.121 -20.567 -20.919  0.00  0.00    -0.021 C 
ENDROOT
BRANCH   1   2
ATOM      2  C   UNL     1      35.122 -19.413 -20.880  0.00  0.00    -0.077 C 
BRANCH   2   3
ATOM      3  N   UNL     1      34.603 -18.266 -21.620  0.00  0.00    +0.390 N 
ATOM      4  C   UNL     1      34.941 -17.006 -20.951  0.00  0.00    -0.072 C 
ATOM      5  C   UNL     1      35.103 -18.269 -23.005  0.00  0.00    -0.051 C 
ATOM      6  C   UNL     1      34.243 -15.835 -21.659  0.00  0.00    +0.005 C 
ATOM      7  C   UNL     1      34.413 -15.868 -23.161  0.00  0.00    -0.013 C 
ATOM      8  C   UNL     1      34.814 -17.002 -23.764  0.00  0.00    -0.052 C 
ATOM      9  H   UNL     1      33.586 -18.343 -21.647  0.00  0.00    -0.079 HD
BRANCH   7  11
ATOM     10  N   UNL     1      33.736 -14.807 -25.214  0.00  0.00    -0.244 NA
ATOM     11  C   UNL     1      34.122 -14.633 -23.929  0.00  0.00    +0.077 C 
ATOM     12  C   UNL     1      34.253 -13.391 -23.323  0.00  0.00    +0.019 C 
ATOM     13  C   UNL     1      33.970 -12.261 -24.083  0.00  0.00    +0.003 C 
ATOM     14  C   UNL     1      33.470 -13.685 -25.921  0.00  0.00    +0.099 C 
ATOM     15  C   UNL     1      33.570 -12.403 -25.408  0.00  0.00    +0.021 C 
ENDBRANCH   7  11
ENDBRANCH   2   3
ENDBRANCH   1   2
BRANCH   1  16
ATOM     16  C   UNL     1      33.755 -21.027 -19.504  0.00  0.00    +0.020 C 
BRANCH  16  17
ATOM     17  C   UNL     1      34.189 -22.461 -19.223  0.00  0.00    +0.099 C 
BRANCH  17  21
ATOM     18 CL   UNL     1      37.046 -21.953 -19.677  0.00  0.00    -0.062 Cl
ATOM     19  O   UNL     1      36.771 -21.738 -15.735  0.00  0.00    -0.448 OA
ATOM     20  O   UNL     1      33.185 -23.291 -16.783  0.00  0.00    -0.269 OA
ATOM     21  N   UNL     1      35.028 -22.568 -18.021  0.00  0.00    -0.244 N 
ATOM     22  C   UNL     1      34.401 -23.106 -16.875  0.00  0.00    +0.256 C 
ATOM     23  C   UNL     1      36.351 -22.136 -18.091  0.00  0.00    +0.151 C 
ATOM     24  C   UNL     1      35.209 -23.591 -15.729  0.00  0.00    +0.088 C 
ATOM     25  C   UNL     1      36.307 -22.911 -15.212  0.00  0.00    +0.150 C 
ATOM     26  C   UNL     1      37.121 -21.780 -17.055  0.00  0.00    +0.206 C 
ATOM     27  C   UNL     1      34.788 -24.775 -15.101  0.00  0.00    +0.008 C 
ATOM     28  C   UNL     1      36.967 -23.386 -14.073  0.00  0.00    +0.038 C 
ATOM     29  C   UNL     1      35.458 -25.262 -13.977  0.00  0.00    +0.000 C 
ATOM     30  C   UNL     1      36.546 -24.564 -13.461  0.00  0.00    +0.003 C 
ENDBRANCH  17  21
ENDBRANCH  16  17
ENDBRANCH   1  16
TORSDOF 6
ENDMDL
MODEL 9
REMARK VINA RESULT:      -9.9      3.186     10.066
REMARK  Name = 9801640
REMARK  6 active torsions:
REMARK  status: ('A' for Active; 'I' for Inactive)
REMARK    1  A    between atoms: C_1  and  C_2
REMARK    2  A    between atoms: C_1  and  C_16
REMARK    3  A    between atoms: C_2  and  N_3
REMARK    4  A    between atoms: C_7  and  C_11
REMARK    5  A    between atoms: C_16  and  C_17
REMARK    6  A    between atoms: C_17  and  N_21
REMARK                            x       y       z     vdW  Elec       q    Type
REMARK                         _______ _______ _______ _____ _____    ______ ____
ROOT
ATOM      1  C   UNL     1      31.347 -12.631 -20.695  0.00  0.00    -0.021 C 
ENDROOT
BRANCH   1   2
ATOM      2  C   UNL     1      31.825 -11.461 -19.836  0.00  0.00    -0.077 C 
BRANCH   2   3
ATOM      3  N   UNL     1      31.601 -10.196 -20.532  0.00  0.00    +0.390 N 
ATOM      4  C   UNL     1      32.358  -9.106 -19.908  0.00  0.00    -0.072 C 
ATOM      5  C   UNL     1      31.945 -10.317 -21.958  0.00  0.00    -0.051 C 
ATOM      6  C   UNL     1      31.974  -7.767 -20.554  0.00  0.00    +0.005 C 
ATOM      7  C   UNL     1      31.984  -7.816 -22.065  0.00  0.00    -0.013 C 
ATOM      8  C   UNL     1      31.973  -9.006 -22.695  0.00  0.00    -0.052 C 
ATOM      9  H   UNL     1      30.609  -9.970 -20.460  0.00  0.00    -0.079 HD
BRANCH   7  11
ATOM     10  N   UNL     1      31.111  -5.599 -22.406  0.00  0.00    -0.244 NA
ATOM     11  C   UNL     1      32.001  -6.534 -22.811  0.00  0.00    +0.077 C 
ATOM     12  C   UNL     1      32.895  -6.350 -23.856  0.00  0.00    +0.019 C 
ATOM     13  C   UNL     1      32.873  -5.132 -24.526  0.00  0.00    +0.003 C 
ATOM     14  C   UNL     1      31.119  -4.427 -23.082  0.00  0.00    +0.099 C 
ATOM     15  C   UNL     1      31.970  -4.147 -24.138  0.00  0.00    +0.021 C 
ENDBRANCH   7  11
ENDBRANCH   2   3
ENDBRANCH   1   2
BRANCH   1  16
ATOM     16  C   UNL     1      32.277 -13.839 -20.547  0.00  0.00    +0.020 C 
BRANCH  16  17
ATOM     17  C   UNL     1      33.594 -13.662 -21.294  0.00  0.00    +0.099 C 
BRANCH  17  21
ATOM     18 CL   UNL     1      32.715 -13.805 -24.093  0.00  0.00    -0.062 Cl
ATOM     19  O   UNL     1      35.461 -16.650 -23.929  0.00  0.00    -0.448 OA
ATOM     20  O   UNL     1      34.898 -15.746 -20.026  0.00  0.00    -0.269 OA
ATOM     21  N   UNL     1      34.006 -14.882 -22.003  0.00  0.00    -0.244 N 
ATOM     22  C   UNL     1      34.566 -15.903 -21.204  0.00  0.00    +0.256 C 
ATOM     23  C   UNL     1      33.825 -14.943 -23.384  0.00  0.00    +0.151 C 
ATOM     24  C   UNL     1      34.689 -17.287 -21.722  0.00  0.00    +0.088 C 
ATOM     25  C   UNL     1      35.128 -17.599 -23.005  0.00  0.00    +0.150 C 
ATOM     26  C   UNL     1      34.477 -15.751 -24.230  0.00  0.00    +0.206 C 
ATOM     27  C   UNL     1      34.401 -18.335 -20.832  0.00  0.00    +0.008 C 
ATOM     28  C   UNL     1      35.303 -18.932 -23.394  0.00  0.00    +0.038 C 
ATOM     29  C   UNL     1      34.554 -19.666 -21.225  0.00  0.00    +0.000 C 
ATOM     30  C   UNL     1      35.009 -19.964 -22.506  0.00  0.00    +0.003 C 
ENDBRANCH  17  21
ENDBRANCH  16  17
ENDBRANCH   1  16
TORSDOF 6
ENDMDL
