MODEL 1
REMARK VINA RESULT:     -11.1      0.000      0.000
REMARK  Name = 24958200
REMARK  3 active torsions:
REMARK  status: ('A' for Active; 'I' for Inactive)
REMARK    1  A    between atoms: N_1  and  C_13
REMARK    2  A    between atoms: C_6  and  C_26
REMARK    3  A    between atoms: C_10  and  C_17
REMARK                            x       y       z     vdW  Elec       q    Type
REMARK                         _______ _______ _______ _____ _____    ______ ____
ROOT
ATOM      1  N   UNL     1      32.581 -23.172 -16.841  0.00  0.00    -0.189 N 
ATOM      2  N   UNL     1      31.238 -23.258 -16.903  0.00  0.00    -0.174 NA
ATOM      3  C   UNL     1      32.079 -24.244 -15.037  0.00  0.00    +0.036 C 
ATOM      4  C   UNL     1      33.142 -23.748 -15.739  0.00  0.00    +0.091 C 
ATOM      5  C   UNL     1      30.889 -23.924 -15.787  0.00  0.00    +0.105 C 
ATOM      6  C   UNL     1      29.620 -24.307 -15.315  0.00  0.00    +0.072 C 
ATOM      7  C   UNL     1      32.154 -24.923 -13.828  0.00  0.00    +0.003 C 
ATOM      8  C   UNL     1      29.662 -25.003 -14.086  0.00  0.00    +0.006 C 
ATOM      9  C   UNL     1      30.871 -25.295 -13.379  0.00  0.00    +0.000 C 
ENDROOT
BRANCH   1  13
ATOM     10  C   UNL     1      34.693 -21.252 -19.886  0.00  0.00    -0.024 C 
ATOM     11  C   UNL     1      33.308 -21.109 -19.800  0.00  0.00    -0.003 C 
ATOM     12  C   UNL     1      35.372 -22.037 -18.953  0.00  0.00    -0.003 C 
ATOM     13  C   UNL     1      33.281 -22.536 -17.851  0.00  0.00    +0.074 C 
ATOM     14  C   UNL     1      32.602 -21.751 -18.783  0.00  0.00    +0.016 C 
ATOM     15  C   UNL     1      34.667 -22.678 -17.936  0.00  0.00    +0.016 C 
BRANCH  10  17
ATOM     16  N   UNL     1      35.286 -19.137 -23.023  0.00  0.00    +0.384 N 
ATOM     17  C   UNL     1      35.461 -20.555 -20.994  0.00  0.00    +0.001 C 
ATOM     18  C   UNL     1      36.557 -19.632 -20.436  0.00  0.00    +0.000 C 
ATOM     19  C   UNL     1      34.530 -19.779 -21.944  0.00  0.00    -0.077 C 
ATOM     20  C   UNL     1      37.275 -18.911 -21.574  0.00  0.00    -0.023 C 
ATOM     21  C   UNL     1      36.284 -18.206 -22.497  0.00  0.00    -0.082 C 
ATOM     22  H   UNL     1      34.638 -18.626 -23.622  0.00  0.00    -0.085 HD
ATOM     23  H   UNL     1      35.771 -19.864 -23.550  0.00  0.00    -0.085 HD
ENDBRANCH  10  17
ENDBRANCH   1  13
BRANCH   6  26
ATOM     24  O   UNL     1      27.975 -24.745 -16.942  0.00  0.00    -0.270 OA
ATOM     25  N   UNL     1      27.649 -22.907 -15.611  0.00  0.00    -0.325 N 
ATOM     26  C   UNL     1      28.387 -24.020 -16.014  0.00  0.00    +0.244 C 
ATOM     27  H   UNL     1      26.805 -22.684 -16.066  0.00  0.00    +0.145 HD
ATOM     28  H   UNL     1      27.971 -22.345 -14.870  0.00  0.00    +0.145 HD
ENDBRANCH   6  26
TORSDOF 3
ENDMDL
MODEL 2
REMARK VINA RESULT:     -10.9      1.140      1.491
REMARK  Name = 24958200
REMARK  3 active torsions:
REMARK  status: ('A' for Active; 'I' for Inactive)
REMARK    1  A    between atoms: N_1  and  C_13
REMARK    2  A    between atoms: C_6  and  C_26
REMARK    3  A    between atoms: C_10  and  C_17
REMARK                            x       y       z     vdW  Elec       q    Type
REMARK                         _______ _______ _______ _____ _____    ______ ____
ROOT
ATOM      1  N   UNL     1      33.401 -22.731 -17.430  0.00  0.00    -0.189 N 
ATOM      2  N   UNL     1      32.088 -22.969 -17.245  0.00  0.00    -0.174 NA
ATOM      3  C   UNL     1      33.368 -23.907 -15.620  0.00  0.00    +0.036 C 
ATOM      4  C   UNL     1      34.219 -23.273 -16.481  0.00  0.00    +0.091 C 
ATOM      5  C   UNL     1      32.030 -23.703 -16.120  0.00  0.00    +0.105 C 
ATOM      6  C   UNL     1      30.922 -24.243 -15.441  0.00  0.00    +0.072 C 
ATOM      7  C   UNL     1      33.743 -24.610 -14.483  0.00  0.00    +0.003 C 
ATOM      8  C   UNL     1      31.271 -24.966 -14.278  0.00  0.00    +0.006 C 
ATOM      9  C   UNL     1      32.616 -25.139 -13.823  0.00  0.00    +0.000 C 
ENDROOT
BRANCH   1  13
ATOM     10  C   UNL     1      34.679 -20.492 -20.711  0.00  0.00    -0.024 C 
ATOM     11  C   UNL     1      33.327 -20.523 -20.371  0.00  0.00    -0.003 C 
ATOM     12  C   UNL     1      35.605 -21.210 -19.953  0.00  0.00    -0.003 C 
ATOM     13  C   UNL     1      33.824 -21.990 -18.517  0.00  0.00    +0.074 C 
ATOM     14  C   UNL     1      32.899 -21.271 -19.275  0.00  0.00    +0.016 C 
ATOM     15  C   UNL     1      35.178 -21.959 -18.856  0.00  0.00    +0.016 C 
BRANCH  10  17
ATOM     16  N   UNL     1      34.706 -19.099 -24.278  0.00  0.00    +0.384 N 
ATOM     17  C   UNL     1      35.144 -19.679 -21.905  0.00  0.00    +0.001 C 
ATOM     18  C   UNL     1      35.287 -18.188 -21.560  0.00  0.00    +0.000 C 
ATOM     19  C   UNL     1      34.225 -19.868 -23.127  0.00  0.00    -0.077 C 
ATOM     20  C   UNL     1      35.707 -17.395 -22.795  0.00  0.00    -0.023 C 
ATOM     21  C   UNL     1      34.778 -17.670 -23.975  0.00  0.00    -0.082 C 
ATOM     22  H   UNL     1      34.067 -19.241 -25.061  0.00  0.00    -0.085 HD
ATOM     23  H   UNL     1      35.644 -19.425 -24.512  0.00  0.00    -0.085 HD
ENDBRANCH  10  17
ENDBRANCH   1  13
BRANCH   6  26
ATOM     24  O   UNL     1      28.679 -24.932 -15.640  0.00  0.00    -0.270 OA
ATOM     25  N   UNL     1      29.230 -22.917 -16.585  0.00  0.00    -0.325 N 
ATOM     26  C   UNL     1      29.555 -24.078 -15.884  0.00  0.00    +0.244 C 
ATOM     27  H   UNL     1      28.308 -22.773 -16.901  0.00  0.00    +0.145 HD
ATOM     28  H   UNL     1      29.922 -22.240 -16.764  0.00  0.00    +0.145 HD
ENDBRANCH   6  26
TORSDOF 3
ENDMDL
MODEL 3
REMARK VINA RESULT:     -10.5      2.587      3.585
REMARK  Name = 24958200
REMARK  3 active torsions:
REMARK  status: ('A' for Active; 'I' for Inactive)
REMARK    1  A    between atoms: N_1  and  C_13
REMARK    2  A    between atoms: C_6  and  C_26
REMARK    3  A    between atoms: C_10  and  C_17
REMARK                            x       y       z     vdW  Elec       q    Type
REMARK                         _______ _______ _______ _____ _____    ______ ____
ROOT
ATOM      1  N   UNL     1      33.548 -22.767 -17.378  0.00  0.00    -0.189 N 
ATOM      2  N   UNL     1      34.475 -23.326 -16.576  0.00  0.00    -0.174 NA
ATOM      3  C   UNL     1      32.358 -23.764 -15.879  0.00  0.00    +0.036 C 
ATOM      4  C   UNL     1      32.255 -22.998 -17.006  0.00  0.00    +0.091 C 
ATOM      5  C   UNL     1      33.765 -23.960 -15.625  0.00  0.00    +0.105 C 
ATOM      6  C   UNL     1      34.194 -24.716 -14.519  0.00  0.00    +0.072 C 
ATOM      7  C   UNL     1      31.293 -24.253 -15.133  0.00  0.00    +0.003 C 
ATOM      8  C   UNL     1      33.134 -25.227 -13.739  0.00  0.00    +0.006 C 
ATOM      9  C   UNL     1      31.751 -25.005 -14.034  0.00  0.00    +0.000 C 
ENDROOT
BRANCH   1  13
ATOM     10  C   UNL     1      34.732 -20.530 -20.695  0.00  0.00    -0.024 C 
ATOM     11  C   UNL     1      33.384 -20.598 -20.345  0.00  0.00    -0.003 C 
ATOM     12  C   UNL     1      35.685 -21.210 -19.936  0.00  0.00    -0.003 C 
ATOM     13  C   UNL     1      33.940 -22.027 -18.478  0.00  0.00    +0.074 C 
ATOM     14  C   UNL     1      32.988 -21.346 -19.236  0.00  0.00    +0.016 C 
ATOM     15  C   UNL     1      35.289 -21.958 -18.828  0.00  0.00    +0.016 C 
BRANCH  10  17
ATOM     16  N   UNL     1      34.626 -19.094 -24.243  0.00  0.00    +0.384 N 
ATOM     17  C   UNL     1      35.163 -19.718 -21.903  0.00  0.00    +0.001 C 
ATOM     18  C   UNL     1      35.372 -18.236 -21.549  0.00  0.00    +0.000 C 
ATOM     19  C   UNL     1      34.179 -19.862 -23.078  0.00  0.00    -0.077 C 
ATOM     20  C   UNL     1      35.755 -17.442 -22.795  0.00  0.00    -0.023 C 
ATOM     21  C   UNL     1      34.760 -17.672 -23.929  0.00  0.00    -0.082 C 
ATOM     22  H   UNL     1      33.945 -19.205 -24.995  0.00  0.00    -0.085 HD
ATOM     23  H   UNL     1      35.540 -19.447 -24.528  0.00  0.00    -0.085 HD
ENDBRANCH  10  17
ENDBRANCH   1  13
BRANCH   6  26
ATOM     24  O   UNL     1      36.022 -24.852 -13.041  0.00  0.00    -0.270 OA
ATOM     25  N   UNL     1      36.440 -25.317 -15.247  0.00  0.00    -0.325 N 
ATOM     26  C   UNL     1      35.587 -24.952 -14.205  0.00  0.00    +0.244 C 
ATOM     27  H   UNL     1      37.394 -25.485 -15.067  0.00  0.00    +0.145 HD
ATOM     28  H   UNL     1      36.089 -25.407 -16.162  0.00  0.00    +0.145 HD
ENDBRANCH   6  26
TORSDOF 3
ENDMDL
MODEL 4
REMARK VINA RESULT:     -10.5      2.134      3.191
REMARK  Name = 24958200
REMARK  3 active torsions:
REMARK  status: ('A' for Active; 'I' for Inactive)
REMARK    1  A    between atoms: N_1  and  C_13
REMARK    2  A    between atoms: C_6  and  C_26
REMARK    3  A    between atoms: C_10  and  C_17
REMARK                            x       y       z     vdW  Elec       q    Type
REMARK                         _______ _______ _______ _____ _____    ______ ____
ROOT
ATOM      1  N   UNL     1      32.912 -23.157 -16.799  0.00  0.00    -0.189 N 
ATOM      2  N   UNL     1      33.653 -23.627 -15.777  0.00  0.00    -0.174 NA
ATOM      3  C   UNL     1      31.438 -24.045 -15.496  0.00  0.00    +0.036 C 
ATOM      4  C   UNL     1      31.571 -23.381 -16.682  0.00  0.00    +0.091 C 
ATOM      5  C   UNL     1      32.762 -24.191 -14.941  0.00  0.00    +0.105 C 
ATOM      6  C   UNL     1      32.955 -24.842 -13.708  0.00  0.00    +0.072 C 
ATOM      7  C   UNL     1      30.243 -24.489 -14.946  0.00  0.00    +0.003 C 
ATOM      8  C   UNL     1      31.756 -25.305 -13.122  0.00  0.00    +0.006 C 
ATOM      9  C   UNL     1      30.464 -25.136 -13.714  0.00  0.00    +0.000 C 
ENDROOT
BRANCH   1  13
ATOM     10  C   UNL     1      34.753 -21.192 -19.986  0.00  0.00    -0.024 C 
ATOM     11  C   UNL     1      35.519 -21.938 -19.090  0.00  0.00    -0.003 C 
ATOM     12  C   UNL     1      33.371 -21.104 -19.817  0.00  0.00    -0.003 C 
ATOM     13  C   UNL     1      33.522 -22.506 -17.855  0.00  0.00    +0.074 C 
ATOM     14  C   UNL     1      34.904 -22.594 -18.025  0.00  0.00    +0.016 C 
ATOM     15  C   UNL     1      32.755 -21.760 -18.752  0.00  0.00    +0.016 C 
BRANCH  10  17
ATOM     16  N   UNL     1      35.061 -19.139 -23.204  0.00  0.00    +0.384 N 
ATOM     17  C   UNL     1      35.423 -20.476 -21.145  0.00  0.00    +0.001 C 
ATOM     18  C   UNL     1      36.468 -19.459 -20.660  0.00  0.00    +0.000 C 
ATOM     19  C   UNL     1      34.399 -19.801 -22.077  0.00  0.00    -0.077 C 
ATOM     20  C   UNL     1      37.084 -18.723 -21.847  0.00  0.00    -0.023 C 
ATOM     21  C   UNL     1      36.007 -18.122 -22.747  0.00  0.00    -0.082 C 
ATOM     22  H   UNL     1      34.353 -18.696 -23.790  0.00  0.00    -0.085 HD
ATOM     23  H   UNL     1      35.578 -19.845 -23.730  0.00  0.00    -0.085 HD
ENDBRANCH  10  17
ENDBRANCH   1  13
BRANCH   6  26
ATOM     24  O   UNL     1      34.478 -24.667 -11.921  0.00  0.00    -0.270 OA
ATOM     25  N   UNL     1      35.255 -25.630 -13.851  0.00  0.00    -0.325 N 
ATOM     26  C   UNL     1      34.252 -25.023 -13.095  0.00  0.00    +0.244 C 
ATOM     27  H   UNL     1      36.150 -25.769 -13.463  0.00  0.00    +0.145 HD
ATOM     28  H   UNL     1      35.069 -25.921 -14.773  0.00  0.00    +0.145 HD
ENDBRANCH   6  26
TORSDOF 3
ENDMDL
MODEL 5
REMARK VINA RESULT:     -10.5      4.187      5.473
REMARK  Name = 24958200
REMARK  3 active torsions:
REMARK  status: ('A' for Active; 'I' for Inactive)
REMARK    1  A    between atoms: N_1  and  C_13
REMARK    2  A    between atoms: C_6  and  C_26
REMARK    3  A    between atoms: C_10  and  C_17
REMARK                            x       y       z     vdW  Elec       q    Type
REMARK                         _______ _______ _______ _____ _____    ______ ____
ROOT
ATOM      1  N   UNL     1      35.957 -23.452 -15.510  0.00  0.00    -0.189 N 
ATOM      2  N   UNL     1      36.928 -24.351 -15.258  0.00  0.00    -0.174 NA
ATOM      3  C   UNL     1      35.501 -24.112 -13.506  0.00  0.00    +0.036 C 
ATOM      4  C   UNL     1      35.069 -23.267 -14.490  0.00  0.00    +0.091 C 
ATOM      5  C   UNL     1      36.674 -24.786 -14.010  0.00  0.00    +0.105 C 
ATOM      6  C   UNL     1      37.354 -25.729 -13.218  0.00  0.00    +0.072 C 
ATOM      7  C   UNL     1      34.907 -24.276 -12.261  0.00  0.00    +0.003 C 
ATOM      8  C   UNL     1      36.774 -25.918 -11.944  0.00  0.00    +0.006 C 
ATOM      9  C   UNL     1      35.608 -25.224 -11.490  0.00  0.00    +0.000 C 
ENDROOT
BRANCH   1  13
ATOM     10  C   UNL     1      35.839 -21.481 -19.186  0.00  0.00    -0.024 C 
ATOM     11  C   UNL     1      36.982 -21.404 -18.389  0.00  0.00    -0.003 C 
ATOM     12  C   UNL     1      34.736 -22.218 -18.754  0.00  0.00    -0.003 C 
ATOM     13  C   UNL     1      35.918 -22.798 -16.728  0.00  0.00    +0.074 C 
ATOM     14  C   UNL     1      37.021 -22.063 -17.160  0.00  0.00    +0.016 C 
ATOM     15  C   UNL     1      34.775 -22.876 -17.525  0.00  0.00    +0.016 C 
BRANCH  10  17
ATOM     16  N   UNL     1      34.365 -19.539 -22.138  0.00  0.00    +0.384 N 
ATOM     17  C   UNL     1      35.796 -20.763 -20.523  0.00  0.00    +0.001 C 
ATOM     18  C   UNL     1      36.855 -19.653 -20.609  0.00  0.00    +0.000 C 
ATOM     19  C   UNL     1      34.395 -20.203 -20.833  0.00  0.00    -0.077 C 
ATOM     20  C   UNL     1      36.749 -18.920 -21.944  0.00  0.00    -0.023 C 
ATOM     21  C   UNL     1      35.324 -18.437 -22.201  0.00  0.00    -0.082 C 
ATOM     22  H   UNL     1      33.427 -19.173 -22.302  0.00  0.00    -0.085 HD
ATOM     23  H   UNL     1      34.616 -20.224 -22.852  0.00  0.00    -0.085 HD
ENDBRANCH  10  17
ENDBRANCH   1  13
BRANCH   6  26
ATOM     24  O   UNL     1      38.454 -27.530 -14.262  0.00  0.00    -0.270 OA
ATOM     25  N   UNL     1      39.778 -25.865 -13.407  0.00  0.00    -0.325 N 
ATOM     26  C   UNL     1      38.533 -26.441 -13.659  0.00  0.00    +0.244 C 
ATOM     27  H   UNL     1      40.601 -26.324 -13.695  0.00  0.00    +0.145 HD
ATOM     28  H   UNL     1      39.836 -24.999 -12.942  0.00  0.00    +0.145 HD
ENDBRANCH   6  26
TORSDOF 3
ENDMDL
MODEL 6
REMARK VINA RESULT:     -10.4      8.380     12.526
REMARK  Name = 24958200
REMARK  3 active torsions:
REMARK  status: ('A' for Active; 'I' for Inactive)
REMARK    1  A    between atoms: N_1  and  C_13
REMARK    2  A    between atoms: C_6  and  C_26
REMARK    3  A    between atoms: C_10  and  C_17
REMARK                            x       y       z     vdW  Elec       q    Type
REMARK                         _______ _______ _______ _____ _____    ______ ____
ROOT
ATOM      1  N   UNL     1      33.425 -13.372 -23.168  0.00  0.00    -0.189 N 
ATOM      2  N   UNL     1      33.837 -14.222 -22.208  0.00  0.00    -0.174 NA
ATOM      3  C   UNL     1      33.946 -15.147 -24.280  0.00  0.00    +0.036 C 
ATOM      4  C   UNL     1      33.469 -13.875 -24.435  0.00  0.00    +0.091 C 
ATOM      5  C   UNL     1      34.172 -15.345 -22.869  0.00  0.00    +0.105 C 
ATOM      6  C   UNL     1      34.667 -16.572 -22.389  0.00  0.00    +0.072 C 
ATOM      7  C   UNL     1      34.166 -16.059 -25.303  0.00  0.00    +0.003 C 
ATOM      8  C   UNL     1      34.900 -17.523 -23.407  0.00  0.00    +0.006 C 
ATOM      9  C   UNL     1      34.661 -17.276 -24.796  0.00  0.00    +0.000 C 
ENDROOT
BRANCH   1  13
ATOM     10  C   UNL     1      32.144  -9.534 -22.147  0.00  0.00    -0.024 C 
ATOM     11  C   UNL     1      31.611 -10.644 -21.494  0.00  0.00    -0.003 C 
ATOM     12  C   UNL     1      33.108  -9.706 -23.142  0.00  0.00    -0.003 C 
ATOM     13  C   UNL     1      33.000 -12.100 -22.830  0.00  0.00    +0.074 C 
ATOM     14  C   UNL     1      32.038 -11.927 -21.835  0.00  0.00    +0.016 C 
ATOM     15  C   UNL     1      33.535 -10.989 -23.484  0.00  0.00    +0.016 C 
BRANCH  10  17
ATOM     16  N   UNL     1      32.362  -5.922 -20.894  0.00  0.00    +0.384 N 
ATOM     17  C   UNL     1      31.678  -8.138 -21.777  0.00  0.00    +0.001 C 
ATOM     18  C   UNL     1      30.944  -7.454 -22.942  0.00  0.00    +0.000 C 
ATOM     19  C   UNL     1      32.836  -7.256 -21.273  0.00  0.00    -0.077 C 
ATOM     20  C   UNL     1      30.534  -6.036 -22.552  0.00  0.00    -0.023 C 
ATOM     21  C   UNL     1      31.723  -5.241 -22.019  0.00  0.00    -0.082 C 
ATOM     22  H   UNL     1      33.156  -5.366 -20.577  0.00  0.00    -0.085 HD
ATOM     23  H   UNL     1      31.672  -6.027 -20.149  0.00  0.00    -0.085 HD
ENDBRANCH  10  17
ENDBRANCH   1  13
BRANCH   6  26
ATOM     24  O   UNL     1      35.591 -17.822 -20.620  0.00  0.00    -0.270 OA
ATOM     25  N   UNL     1      34.393 -15.952 -20.049  0.00  0.00    -0.325 N 
ATOM     26  C   UNL     1      34.916 -16.840 -20.989  0.00  0.00    +0.244 C 
ATOM     27  H   UNL     1      34.545 -16.106 -19.088  0.00  0.00    +0.145 HD
ATOM     28  H   UNL     1      33.872 -15.171 -20.346  0.00  0.00    +0.145 HD
ENDBRANCH   6  26
TORSDOF 3
ENDMDL
MODEL 7
REMARK VINA RESULT:      -9.9      2.896      3.801
REMARK  Name = 24958200
REMARK  3 active torsions:
REMARK  status: ('A' for Active; 'I' for Inactive)
REMARK    1  A    between atoms: N_1  and  C_13
REMARK    2  A    between atoms: C_6  and  C_26
REMARK    3  A    between atoms: C_10  and  C_17
REMARK                            x       y       z     vdW  Elec       q    Type
REMARK                         _______ _______ _______ _____ _____    ______ ____
ROOT
ATOM      1  N   UNL     1      35.909 -23.164 -15.743  0.00  0.00    -0.189 N 
ATOM      2  N   UNL     1      34.750 -23.475 -15.131  0.00  0.00    -0.174 NA
ATOM      3  C   UNL     1      36.560 -24.083 -13.901  0.00  0.00    +0.036 C 
ATOM      4  C   UNL     1      37.032 -23.507 -15.047  0.00  0.00    +0.091 C 
ATOM      5  C   UNL     1      35.119 -24.053 -13.974  0.00  0.00    +0.105 C 
ATOM      6  C   UNL     1      34.339 -24.580 -12.929  0.00  0.00    +0.072 C 
ATOM      7  C   UNL     1      37.340 -24.593 -12.872  0.00  0.00    +0.003 C 
ATOM      8  C   UNL     1      35.103 -25.109 -11.865  0.00  0.00    +0.006 C 
ATOM      9  C   UNL     1      36.534 -25.114 -11.840  0.00  0.00    +0.000 C 
ENDROOT
BRANCH   1  13
ATOM     10  C   UNL     1      35.868 -21.298 -19.475  0.00  0.00    -0.024 C 
ATOM     11  C   UNL     1      34.760 -22.030 -19.048  0.00  0.00    -0.003 C 
ATOM     12  C   UNL     1      36.990 -21.189 -18.653  0.00  0.00    -0.003 C 
ATOM     13  C   UNL     1      35.895 -22.546 -16.979  0.00  0.00    +0.074 C 
ATOM     14  C   UNL     1      34.774 -22.654 -17.801  0.00  0.00    +0.016 C 
ATOM     15  C   UNL     1      37.004 -21.813 -17.405  0.00  0.00    +0.016 C 
BRANCH  10  17
ATOM     16  N   UNL     1      34.441 -19.533 -22.559  0.00  0.00    +0.384 N 
ATOM     17  C   UNL     1      35.854 -20.620 -20.833  0.00  0.00    +0.001 C 
ATOM     18  C   UNL     1      36.845 -19.448 -20.896  0.00  0.00    +0.000 C 
ATOM     19  C   UNL     1      34.440 -20.158 -21.234  0.00  0.00    -0.077 C 
ATOM     20  C   UNL     1      36.769 -18.759 -22.256  0.00  0.00    -0.023 C 
ATOM     21  C   UNL     1      35.333 -18.374 -22.604  0.00  0.00    -0.082 C 
ATOM     22  H   UNL     1      33.493 -19.231 -22.784  0.00  0.00    -0.085 HD
ATOM     23  H   UNL     1      34.774 -20.219 -23.237  0.00  0.00    -0.085 HD
ENDBRANCH  10  17
ENDBRANCH   1  13
BRANCH   6  26
ATOM     24  O   UNL     1      32.233 -23.572 -12.620  0.00  0.00    -0.270 OA
ATOM     25  N   UNL     1      32.241 -25.753 -13.324  0.00  0.00    -0.325 N 
ATOM     26  C   UNL     1      32.892 -24.583 -12.935  0.00  0.00    +0.244 C 
ATOM     27  H   UNL     1      31.257 -25.788 -13.340  0.00  0.00    +0.145 HD
ATOM     28  H   UNL     1      32.765 -26.545 -13.585  0.00  0.00    +0.145 HD
ENDBRANCH   6  26
TORSDOF 3
ENDMDL
MODEL 8
REMARK VINA RESULT:      -9.8      8.835     12.692
REMARK  Name = 24958200
REMARK  3 active torsions:
REMARK  status: ('A' for Active; 'I' for Inactive)
REMARK    1  A    between atoms: N_1  and  C_13
REMARK    2  A    between atoms: C_6  and  C_26
REMARK    3  A    between atoms: C_10  and  C_17
REMARK                            x       y       z     vdW  Elec       q    Type
REMARK                         _______ _______ _______ _____ _____    ______ ____
ROOT
ATOM      1  N   UNL     1      33.290 -13.108 -22.161  0.00  0.00    -0.189 N 
ATOM      2  N   UNL     1      33.458 -13.809 -23.299  0.00  0.00    -0.174 NA
ATOM      3  C   UNL     1      34.068 -14.995 -21.460  0.00  0.00    +0.036 C 
ATOM      4  C   UNL     1      33.642 -13.773 -21.022  0.00  0.00    +0.091 C 
ATOM      5  C   UNL     1      33.944 -14.998 -22.897  0.00  0.00    +0.105 C 
ATOM      6  C   UNL     1      34.310 -16.132 -23.645  0.00  0.00    +0.072 C 
ATOM      7  C   UNL     1      34.529 -16.028 -20.654  0.00  0.00    +0.003 C 
ATOM      8  C   UNL     1      34.785 -17.201 -22.854  0.00  0.00    +0.006 C 
ATOM      9  C   UNL     1      34.889 -17.149 -21.427  0.00  0.00    +0.000 C 
ENDROOT
BRANCH   1  13
ATOM     10  C   UNL     1      31.804  -9.212 -22.307  0.00  0.00    -0.024 C 
ATOM     11  C   UNL     1      31.331 -10.103 -21.344  0.00  0.00    -0.003 C 
ATOM     12  C   UNL     1      32.774  -9.623 -23.222  0.00  0.00    -0.003 C 
ATOM     13  C   UNL     1      32.797 -11.817 -22.209  0.00  0.00    +0.074 C 
ATOM     14  C   UNL     1      31.828 -11.405 -21.295  0.00  0.00    +0.016 C 
ATOM     15  C   UNL     1      33.271 -10.925 -23.173  0.00  0.00    +0.016 C 
BRANCH  10  17
ATOM     16  N   UNL     1      31.016  -5.653 -21.133  0.00  0.00    +0.384 N 
ATOM     17  C   UNL     1      31.263  -7.795 -22.362  0.00  0.00    +0.001 C 
ATOM     18  C   UNL     1      31.775  -7.035 -23.596  0.00  0.00    +0.000 C 
ATOM     19  C   UNL     1      31.570  -7.008 -21.074  0.00  0.00    -0.077 C 
ATOM     20  C   UNL     1      31.252  -5.601 -23.592  0.00  0.00    -0.023 C 
ATOM     21  C   UNL     1      31.553  -4.903 -22.268  0.00  0.00    -0.082 C 
ATOM     22  H   UNL     1      31.249  -5.162 -20.270  0.00  0.00    -0.085 HD
ATOM     23  H   UNL     1      30.004  -5.726 -21.247  0.00  0.00    -0.085 HD
ENDBRANCH  10  17
ENDBRANCH   1  13
BRANCH   6  26
ATOM     24  O   UNL     1      35.062 -16.805 -25.773  0.00  0.00    -0.270 OA
ATOM     25  N   UNL     1      33.118 -15.592 -25.700  0.00  0.00    -0.325 N 
ATOM     26  C   UNL     1      34.211 -16.204 -25.087  0.00  0.00    +0.244 C 
ATOM     27  H   UNL     1      33.021 -15.622 -26.680  0.00  0.00    +0.145 HD
ATOM     28  H   UNL     1      32.442 -15.129 -25.154  0.00  0.00    +0.145 HD
ENDBRANCH   6  26
TORSDOF 3
ENDMDL
MODEL 9
REMARK VINA RESULT:      -9.7     11.294     14.715
REMARK  Name = 24958200
REMARK  3 active torsions:
REMARK  status: ('A' for Active; 'I' for Inactive)
REMARK    1  A    between atoms: N_1  and  C_13
REMARK    2  A    between atoms: C_6  and  C_26
REMARK    3  A    between atoms: C_10  and  C_17
REMARK                            x       y       z     vdW  Elec       q    Type
REMARK                         _______ _______ _______ _____ _____    ______ ____
ROOT
ATOM      1  N   UNL     1      31.836 -10.366 -21.680  0.00  0.00    -0.189 N 
ATOM      2  N   UNL     1      32.414 -11.188 -22.578  0.00  0.00    -0.174 NA
ATOM      3  C   UNL     1      31.969 -12.238 -20.613  0.00  0.00    +0.036 C 
ATOM      4  C   UNL     1      31.546 -10.945 -20.479  0.00  0.00    +0.091 C 
ATOM      5  C   UNL     1      32.512 -12.370 -21.943  0.00  0.00    +0.105 C 
ATOM      6  C   UNL     1      33.034 -13.601 -22.383  0.00  0.00    +0.072 C 
ATOM      7  C   UNL     1      31.880 -13.223 -19.638  0.00  0.00    +0.003 C 
ATOM      8  C   UNL     1      32.960 -14.624 -21.413  0.00  0.00    +0.006 C 
ATOM      9  C   UNL     1      32.409 -14.442 -20.105  0.00  0.00    +0.000 C 
ENDROOT
BRANCH   1  13
ATOM     10  C   UNL     1      31.074  -6.387 -22.677  0.00  0.00    -0.024 C 
ATOM     11  C   UNL     1      30.962  -7.383 -23.647  0.00  0.00    -0.003 C 
ATOM     12  C   UNL     1      31.441  -6.721 -21.373  0.00  0.00    -0.003 C 
ATOM     13  C   UNL     1      31.584  -9.048 -22.011  0.00  0.00    +0.074 C 
ATOM     14  C   UNL     1      31.217  -8.713 -23.314  0.00  0.00    +0.016 C 
ATOM     15  C   UNL     1      31.696  -8.051 -21.040  0.00  0.00    +0.016 C 
BRANCH  10  17
ATOM     16  N   UNL     1      30.099  -2.717 -22.186  0.00  0.00    +0.384 N 
ATOM     17  C   UNL     1      30.799  -4.939 -23.040  0.00  0.00    +0.001 C 
ATOM     18  C   UNL     1      31.993  -4.294 -23.760  0.00  0.00    +0.000 C 
ATOM     19  C   UNL     1      30.388  -4.103 -21.813  0.00  0.00    -0.077 C 
ATOM     20  C   UNL     1      31.701  -2.826 -24.065  0.00  0.00    -0.023 C 
ATOM     21  C   UNL     1      31.256  -2.077 -22.811  0.00  0.00    -0.082 C 
ATOM     22  H   UNL     1      29.843  -2.195 -21.349  0.00  0.00    -0.085 HD
ATOM     23  H   UNL     1      29.332  -2.720 -22.860  0.00  0.00    -0.085 HD
ENDBRANCH  10  17
ENDBRANCH   1  13
BRANCH   6  26
ATOM     24  O   UNL     1      33.444 -14.878 -24.318  0.00  0.00    -0.270 OA
ATOM     25  N   UNL     1      34.300 -12.752 -24.284  0.00  0.00    -0.325 N 
ATOM     26  C   UNL     1      33.594 -13.804 -23.702  0.00  0.00    +0.244 C 
ATOM     27  H   UNL     1      34.694 -12.858 -25.180  0.00  0.00    +0.145 HD
ATOM     28  H   UNL     1      34.405 -11.901 -23.799  0.00  0.00    +0.145 HD
ENDBRANCH   6  26
TORSDOF 3
ENDMDL
