MODEL 1
REMARK VINA RESULT:     -12.6      0.000      0.000
REMARK  Name = 11167602
REMARK  6 active torsions:
REMARK  status: ('A' for Active; 'I' for Inactive)
REMARK    1  A    between atoms: C_2  and  N_10
REMARK    2  A    between atoms: C_3  and  O_25
REMARK    3  A    between atoms: N_9  and  C_15
REMARK    4  A    between atoms: C_16  and  C_24
REMARK    5  A    between atoms: O_25  and  C_27
REMARK    6  A    between atoms: C_29  and  C_34
REMARK                            x       y       z     vdW  Elec       q    Type
REMARK                         _______ _______ _______ _____ _____    ______ ____
ROOT
ATOM      1  F   UNL     1      37.122 -21.727 -17.254  0.00  0.00    -0.203 F 
ATOM      2  C   UNL     1      35.093 -22.143 -18.415  0.00  0.00    +0.079 C 
ATOM      3  C   UNL     1      34.249 -23.752 -16.324  0.00  0.00    +0.148 C 
ATOM      4  C   UNL     1      35.922 -22.320 -17.320  0.00  0.00    +0.157 C 
ATOM      5  C   UNL     1      33.851 -22.753 -18.487  0.00  0.00    +0.020 C 
ATOM      6  C   UNL     1      35.497 -23.130 -16.267  0.00  0.00    +0.068 C 
ATOM      7  C   UNL     1      33.427 -23.564 -17.434  0.00  0.00    +0.039 C 
ENDROOT
BRANCH   2  10
ATOM      8  O   UNL     1      33.535 -20.290 -20.165  0.00  0.00    -0.252 OA
ATOM      9  N   UNL     1      35.562 -19.823 -21.242  0.00  0.00    -0.268 N 
ATOM     10  N   UNL     1      35.520 -21.321 -19.485  0.00  0.00    -0.266 N 
ATOM     11  C   UNL     1      34.744 -20.464 -20.280  0.00  0.00    +0.308 C 
ATOM     12  H   UNL     1      36.517 -20.060 -21.216  0.00  0.00    +0.156 HD
ATOM     13  H   UNL     1      36.481 -21.355 -19.697  0.00  0.00    +0.156 HD
BRANCH   9  15
ATOM     14 CL   UNL     1      34.009 -15.941 -25.420  0.00  0.00    -0.082 Cl
ATOM     15  C   UNL     1      35.195 -18.900 -22.221  0.00  0.00    +0.052 C 
ATOM     16  C   UNL     1      34.619 -16.641 -22.858  0.00  0.00    +0.083 C 
ATOM     17  C   UNL     1      34.986 -17.564 -21.878  0.00  0.00    +0.019 C 
ATOM     18  C   UNL     1      35.035 -19.313 -23.544  0.00  0.00    +0.016 C 
ATOM     19  C   UNL     1      34.461 -17.055 -24.180  0.00  0.00    +0.062 C 
ATOM     20  C   UNL     1      34.668 -18.390 -24.524  0.00  0.00    +0.013 C 
BRANCH  16  24
ATOM     21  F   UNL     1      35.020 -14.320 -23.272  0.00  0.00    -0.166 F 
ATOM     22  F   UNL     1      33.094 -14.849 -22.425  0.00  0.00    -0.166 F 
ATOM     23  F   UNL     1      34.887 -14.960 -21.199  0.00  0.00    -0.166 F 
ATOM     24  C   UNL     1      34.408 -15.219 -22.450  0.00  0.00    +0.419 C 
ENDBRANCH  16  24
ENDBRANCH   9  15
ENDBRANCH   2  10
BRANCH   3  25
ATOM     25  O   UNL     1      33.834 -24.542 -15.296  0.00  0.00    -0.453 OA
BRANCH  25  27
ATOM     26  N   UNL     1      36.616 -25.515 -12.366  0.00  0.00    -0.239 NA
ATOM     27  C   UNL     1      34.761 -24.868 -14.320  0.00  0.00    +0.149 C 
ATOM     28  C   UNL     1      35.920 -25.520 -14.681  0.00  0.00    +0.061 C 
ATOM     29  C   UNL     1      36.816 -25.822 -13.668  0.00  0.00    +0.137 C 
ATOM     30  C   UNL     1      34.504 -24.530 -13.009  0.00  0.00    +0.058 C 
ATOM     31  C   UNL     1      35.462 -24.876 -12.070  0.00  0.00    +0.102 C 
BRANCH  29  34
ATOM     32  O   UNL     1      38.047 -27.654 -14.458  0.00  0.00    -0.268 OA
ATOM     33  N   UNL     1      39.249 -25.817 -13.709  0.00  0.00    -0.298 N 
ATOM     34  C   UNL     1      38.060 -26.509 -13.970  0.00  0.00    +0.264 C 
ATOM     35  C   UNL     1      40.563 -26.356 -13.976  0.00  0.00    +0.111 C 
ATOM     36  H   UNL     1      39.187 -24.915 -13.321  0.00  0.00    +0.150 HD
ENDBRANCH  29  34
ENDBRANCH  25  27
ENDBRANCH   3  25
TORSDOF 6
ENDMDL
MODEL 2
REMARK VINA RESULT:     -12.3      4.526     11.691
REMARK  Name = 11167602
REMARK  6 active torsions:
REMARK  status: ('A' for Active; 'I' for Inactive)
REMARK    1  A    between atoms: C_2  and  N_10
REMARK    2  A    between atoms: C_3  and  O_25
REMARK    3  A    between atoms: N_9  and  C_15
REMARK    4  A    between atoms: C_16  and  C_24
REMARK    5  A    between atoms: O_25  and  C_27
REMARK    6  A    between atoms: C_29  and  C_34
REMARK                            x       y       z     vdW  Elec       q    Type
REMARK                         _______ _______ _______ _____ _____    ______ ____
ROOT
ATOM      1  F   UNL     1      33.026 -21.394 -19.885  0.00  0.00    -0.203 F 
ATOM      2  C   UNL     1      35.369 -21.431 -19.499  0.00  0.00    +0.079 C 
ATOM      3  C   UNL     1      35.690 -19.423 -21.380  0.00  0.00    +0.148 C 
ATOM      4  C   UNL     1      34.254 -20.927 -20.150  0.00  0.00    +0.157 C 
ATOM      5  C   UNL     1      36.640 -20.950 -19.768  0.00  0.00    +0.020 C 
ATOM      6  C   UNL     1      34.416 -19.917 -21.097  0.00  0.00    +0.068 C 
ATOM      7  C   UNL     1      36.802 -19.940 -20.716  0.00  0.00    +0.039 C 
ENDROOT
BRANCH   2  10
ATOM      8  O   UNL     1      36.233 -21.545 -16.642  0.00  0.00    -0.252 OA
ATOM      9  N   UNL     1      35.275 -23.682 -16.580  0.00  0.00    -0.268 N 
ATOM     10  N   UNL     1      35.208 -22.455 -18.536  0.00  0.00    -0.266 N 
ATOM     11  C   UNL     1      35.636 -22.460 -17.199  0.00  0.00    +0.308 C 
ATOM     12  H   UNL     1      34.796 -24.325 -17.152  0.00  0.00    +0.156 HD
ATOM     13  H   UNL     1      34.739 -23.265 -18.842  0.00  0.00    +0.156 HD
BRANCH   9  15
ATOM     14 CL   UNL     1      36.220 -25.422 -11.010  0.00  0.00    -0.082 Cl
ATOM     15  C   UNL     1      35.507 -24.095 -15.268  0.00  0.00    +0.052 C 
ATOM     16  C   UNL     1      37.015 -24.913 -13.567  0.00  0.00    +0.083 C 
ATOM     17  C   UNL     1      36.784 -24.501 -14.880  0.00  0.00    +0.019 C 
ATOM     18  C   UNL     1      34.462 -24.102 -14.344  0.00  0.00    +0.016 C 
ATOM     19  C   UNL     1      35.970 -24.919 -12.644  0.00  0.00    +0.062 C 
ATOM     20  C   UNL     1      34.694 -24.515 -13.032  0.00  0.00    +0.013 C 
BRANCH  16  24
ATOM     21  F   UNL     1      39.287 -25.272 -14.223  0.00  0.00    -0.166 F 
ATOM     22  F   UNL     1      38.947 -24.583 -12.195  0.00  0.00    -0.166 F 
ATOM     23  F   UNL     1      38.444 -26.626 -12.745  0.00  0.00    -0.166 F 
ATOM     24  C   UNL     1      38.398 -25.338 -13.191  0.00  0.00    +0.419 C 
ENDBRANCH  16  24
ENDBRANCH   9  15
ENDBRANCH   2  10
BRANCH   3  25
ATOM     25  O   UNL     1      35.848 -18.437 -22.305  0.00  0.00    -0.453 OA
BRANCH  25  27
ATOM     26  N   UNL     1      33.908 -14.825 -21.622  0.00  0.00    -0.239 NA
ATOM     27  C   UNL     1      35.203 -17.233 -22.078  0.00  0.00    +0.149 C 
ATOM     28  C   UNL     1      34.967 -16.384 -23.137  0.00  0.00    +0.061 C 
ATOM     29  C   UNL     1      34.316 -15.192 -22.858  0.00  0.00    +0.137 C 
ATOM     30  C   UNL     1      34.809 -16.911 -20.796  0.00  0.00    +0.058 C 
ATOM     31  C   UNL     1      34.167 -15.696 -20.621  0.00  0.00    +0.102 C 
BRANCH  29  34
ATOM     32  O   UNL     1      33.543 -14.633 -24.999  0.00  0.00    -0.268 OA
ATOM     33  N   UNL     1      34.313 -12.897 -23.667  0.00  0.00    -0.298 N 
ATOM     34  C   UNL     1      34.032 -14.245 -23.922  0.00  0.00    +0.264 C 
ATOM     35  C   UNL     1      34.064 -11.835 -24.615  0.00  0.00    +0.111 C 
ATOM     36  H   UNL     1      34.701 -12.660 -22.795  0.00  0.00    +0.150 HD
ENDBRANCH  29  34
ENDBRANCH  25  27
ENDBRANCH   3  25
TORSDOF 6
ENDMDL
MODEL 3
REMARK VINA RESULT:     -12.3      2.831      4.441
REMARK  Name = 11167602
REMARK  6 active torsions:
REMARK  status: ('A' for Active; 'I' for Inactive)
REMARK    1  A    between atoms: C_2  and  N_10
REMARK    2  A    between atoms: C_3  and  O_25
REMARK    3  A    between atoms: N_9  and  C_15
REMARK    4  A    between atoms: C_16  and  C_24
REMARK    5  A    between atoms: O_25  and  C_27
REMARK    6  A    between atoms: C_29  and  C_34
REMARK                            x       y       z     vdW  Elec       q    Type
REMARK                         _______ _______ _______ _____ _____    ______ ____
ROOT
ATOM      1  F   UNL     1      37.193 -21.174 -17.591  0.00  0.00    -0.203 F 
ATOM      2  C   UNL     1      35.280 -21.801 -18.850  0.00  0.00    +0.079 C 
ATOM      3  C   UNL     1      34.546 -23.544 -16.826  0.00  0.00    +0.148 C 
ATOM      4  C   UNL     1      36.077 -21.903 -17.721  0.00  0.00    +0.157 C 
ATOM      5  C   UNL     1      34.124 -22.551 -18.988  0.00  0.00    +0.020 C 
ATOM      6  C   UNL     1      35.707 -22.781 -16.702  0.00  0.00    +0.068 C 
ATOM      7  C   UNL     1      33.755 -23.430 -17.969  0.00  0.00    +0.039 C 
ENDROOT
BRANCH   2  10
ATOM      8  O   UNL     1      33.611 -19.939 -20.483  0.00  0.00    -0.252 OA
ATOM      9  N   UNL     1      35.596 -19.330 -21.568  0.00  0.00    -0.268 N 
ATOM     10  N   UNL     1      35.652 -20.910 -19.885  0.00  0.00    -0.266 N 
ATOM     11  C   UNL     1      34.824 -20.052 -20.626  0.00  0.00    +0.308 C 
ATOM     12  H   UNL     1      36.561 -19.524 -21.568  0.00  0.00    +0.156 HD
ATOM     13  H   UNL     1      36.609 -20.891 -20.113  0.00  0.00    +0.156 HD
BRANCH   9  15
ATOM     14 CL   UNL     1      33.798 -15.328 -25.529  0.00  0.00    -0.082 Cl
ATOM     15  C   UNL     1      35.171 -18.378 -22.496  0.00  0.00    +0.052 C 
ATOM     16  C   UNL     1      34.506 -16.115 -23.018  0.00  0.00    +0.083 C 
ATOM     17  C   UNL     1      34.932 -17.066 -22.089  0.00  0.00    +0.019 C 
ATOM     18  C   UNL     1      34.984 -18.741 -23.829  0.00  0.00    +0.016 C 
ATOM     19  C   UNL     1      34.321 -16.477 -24.352  0.00  0.00    +0.062 C 
ATOM     20  C   UNL     1      34.560 -17.790 -24.758  0.00  0.00    +0.013 C 
BRANCH  16  24
ATOM     21  F   UNL     1      34.894 -13.771 -23.294  0.00  0.00    -0.166 F 
ATOM     22  F   UNL     1      32.946 -14.364 -22.547  0.00  0.00    -0.166 F 
ATOM     23  F   UNL     1      34.695 -14.522 -21.264  0.00  0.00    -0.166 F 
ATOM     24  C   UNL     1      34.264 -14.719 -22.543  0.00  0.00    +0.419 C 
ENDBRANCH  16  24
ENDBRANCH   9  15
ENDBRANCH   2  10
BRANCH   3  25
ATOM     25  O   UNL     1      34.185 -24.401 -15.832  0.00  0.00    -0.453 OA
BRANCH  25  27
ATOM     26  N   UNL     1      30.719 -23.546 -13.705  0.00  0.00    -0.239 NA
ATOM     27  C   UNL     1      33.030 -24.115 -15.124  0.00  0.00    +0.149 C 
ATOM     28  C   UNL     1      31.901 -23.720 -15.807  0.00  0.00    +0.061 C 
ATOM     29  C   UNL     1      30.770 -23.447 -15.052  0.00  0.00    +0.137 C 
ATOM     30  C   UNL     1      33.037 -24.233 -13.750  0.00  0.00    +0.058 C 
ATOM     31  C   UNL     1      31.857 -23.936 -13.087  0.00  0.00    +0.102 C 
BRANCH  29  34
ATOM     32  O   UNL     1      29.540 -22.695 -16.901  0.00  0.00    -0.268 OA
ATOM     33  N   UNL     1      28.376 -23.033 -14.923  0.00  0.00    -0.298 N 
ATOM     34  C   UNL     1      29.541 -23.025 -15.701  0.00  0.00    +0.264 C 
ATOM     35  C   UNL     1      27.074 -22.663 -15.430  0.00  0.00    +0.111 C 
ATOM     36  H   UNL     1      28.448 -23.304 -13.980  0.00  0.00    +0.150 HD
ENDBRANCH  29  34
ENDBRANCH  25  27
ENDBRANCH   3  25
TORSDOF 6
ENDMDL
MODEL 4
REMARK VINA RESULT:     -12.0      4.220      7.367
REMARK  Name = 11167602
REMARK  6 active torsions:
REMARK  status: ('A' for Active; 'I' for Inactive)
REMARK    1  A    between atoms: C_2  and  N_10
REMARK    2  A    between atoms: C_3  and  O_25
REMARK    3  A    between atoms: N_9  and  C_15
REMARK    4  A    between atoms: C_16  and  C_24
REMARK    5  A    between atoms: O_25  and  C_27
REMARK    6  A    between atoms: C_29  and  C_34
REMARK                            x       y       z     vdW  Elec       q    Type
REMARK                         _______ _______ _______ _____ _____    ______ ____
ROOT
ATOM      1  F   UNL     1      34.743 -17.605 -25.061  0.00  0.00    -0.203 F 
ATOM      2  C   UNL     1      34.831 -16.559 -22.931  0.00  0.00    +0.079 C 
ATOM      3  C   UNL     1      35.423 -19.006 -21.776  0.00  0.00    +0.148 C 
ATOM      4  C   UNL     1      34.929 -17.682 -23.736  0.00  0.00    +0.157 C 
ATOM      5  C   UNL     1      35.024 -16.634 -21.561  0.00  0.00    +0.020 C 
ATOM      6  C   UNL     1      35.227 -18.914 -23.154  0.00  0.00    +0.068 C 
ATOM      7  C   UNL     1      35.321 -17.866 -20.979  0.00  0.00    +0.039 C 
ENDROOT
BRANCH   2  10
ATOM      8  O   UNL     1      34.703 -13.837 -21.708  0.00  0.00    -0.252 OA
ATOM      9  N   UNL     1      34.141 -13.054 -23.843  0.00  0.00    -0.268 N 
ATOM     10  N   UNL     1      34.530 -15.307 -23.518  0.00  0.00    -0.266 N 
ATOM     11  C   UNL     1      34.482 -14.050 -22.895  0.00  0.00    +0.308 C 
ATOM     12  H   UNL     1      33.993 -13.373 -24.762  0.00  0.00    +0.156 HD
ATOM     13  H   UNL     1      34.329 -15.320 -24.481  0.00  0.00    +0.156 HD
BRANCH   9  15
ATOM     14 CL   UNL     1      33.528  -7.232 -23.027  0.00  0.00    -0.082 Cl
ATOM     15  C   UNL     1      33.988 -11.681 -23.646  0.00  0.00    +0.052 C 
ATOM     16  C   UNL     1      32.745  -9.825 -22.726  0.00  0.00    +0.083 C 
ATOM     17  C   UNL     1      32.897 -11.198 -22.922  0.00  0.00    +0.019 C 
ATOM     18  C   UNL     1      34.925 -10.793 -24.173  0.00  0.00    +0.016 C 
ATOM     19  C   UNL     1      33.683  -8.937 -23.252  0.00  0.00    +0.062 C 
ATOM     20  C   UNL     1      34.772  -9.420 -23.976  0.00  0.00    +0.013 C 
BRANCH  16  24
ATOM     21  F   UNL     1      30.782  -8.462 -22.623  0.00  0.00    -0.166 F 
ATOM     22  F   UNL     1      30.724 -10.351 -21.560  0.00  0.00    -0.166 F 
ATOM     23  F   UNL     1      31.927  -8.711 -20.792  0.00  0.00    -0.166 F 
ATOM     24  C   UNL     1      31.565  -9.348 -21.942  0.00  0.00    +0.419 C 
ENDBRANCH  16  24
ENDBRANCH   9  15
ENDBRANCH   2  10
BRANCH   3  25
ATOM     25  O   UNL     1      35.714 -20.209 -21.209  0.00  0.00    -0.453 OA
BRANCH  25  27
ATOM     26  N   UNL     1      32.876 -21.883 -18.677  0.00  0.00    -0.239 NA
ATOM     27  C   UNL     1      34.769 -20.768 -20.365  0.00  0.00    +0.149 C 
ATOM     28  C   UNL     1      35.181 -21.600 -19.347  0.00  0.00    +0.061 C 
ATOM     29  C   UNL     1      34.197 -22.132 -18.530  0.00  0.00    +0.137 C 
ATOM     30  C   UNL     1      33.436 -20.478 -20.563  0.00  0.00    +0.058 C 
ATOM     31  C   UNL     1      32.529 -21.061 -19.693  0.00  0.00    +0.102 C 
BRANCH  29  34
ATOM     32  O   UNL     1      33.780 -23.927 -17.080  0.00  0.00    -0.268 OA
ATOM     33  N   UNL     1      35.797 -22.811 -16.827  0.00  0.00    -0.298 N 
ATOM     34  C   UNL     1      34.553 -23.018 -17.435  0.00  0.00    +0.264 C 
ATOM     35  C   UNL     1      36.303 -23.621 -15.743  0.00  0.00    +0.111 C 
ATOM     36  H   UNL     1      36.358 -22.072 -17.156  0.00  0.00    +0.150 HD
ENDBRANCH  29  34
ENDBRANCH  25  27
ENDBRANCH   3  25
TORSDOF 6
ENDMDL
MODEL 5
REMARK VINA RESULT:     -11.7      4.685     11.732
REMARK  Name = 11167602
REMARK  6 active torsions:
REMARK  status: ('A' for Active; 'I' for Inactive)
REMARK    1  A    between atoms: C_2  and  N_10
REMARK    2  A    between atoms: C_3  and  O_25
REMARK    3  A    between atoms: N_9  and  C_15
REMARK    4  A    between atoms: C_16  and  C_24
REMARK    5  A    between atoms: O_25  and  C_27
REMARK    6  A    between atoms: C_29  and  C_34
REMARK                            x       y       z     vdW  Elec       q    Type
REMARK                         _______ _______ _______ _____ _____    ______ ____
ROOT
ATOM      1  F   UNL     1      34.376 -19.869 -24.423  0.00  0.00    -0.203 F 
ATOM      2  C   UNL     1      35.150 -18.411 -22.716  0.00  0.00    +0.079 C 
ATOM      3  C   UNL     1      34.461 -16.237 -24.289  0.00  0.00    +0.148 C 
ATOM      4  C   UNL     1      34.590 -18.628 -23.964  0.00  0.00    +0.157 C 
ATOM      5  C   UNL     1      35.371 -17.129 -22.237  0.00  0.00    +0.020 C 
ATOM      6  C   UNL     1      34.244 -17.534 -24.756  0.00  0.00    +0.068 C 
ATOM      7  C   UNL     1      35.025 -16.035 -23.030  0.00  0.00    +0.039 C 
ENDROOT
BRANCH   2  10
ATOM      8  O   UNL     1      33.889 -19.454 -20.217  0.00  0.00    -0.252 OA
ATOM      9  N   UNL     1      35.542 -21.113 -20.238  0.00  0.00    -0.268 N 
ATOM     10  N   UNL     1      35.501 -19.519 -21.909  0.00  0.00    -0.266 N 
ATOM     11  C   UNL     1      34.873 -19.969 -20.737  0.00  0.00    +0.308 C 
ATOM     12  H   UNL     1      36.319 -21.415 -20.763  0.00  0.00    +0.156 HD
ATOM     13  H   UNL     1      36.284 -20.037 -22.206  0.00  0.00    +0.156 HD
BRANCH   9  15
ATOM     14 CL   UNL     1      34.252 -24.319 -15.443  0.00  0.00    -0.082 Cl
ATOM     15  C   UNL     1      35.247 -21.869 -19.103  0.00  0.00    +0.052 C 
ATOM     16  C   UNL     1      35.901 -22.766 -16.958  0.00  0.00    +0.083 C 
ATOM     17  C   UNL     1      36.198 -22.010 -18.093  0.00  0.00    +0.019 C 
ATOM     18  C   UNL     1      34.001 -22.483 -18.980  0.00  0.00    +0.016 C 
ATOM     19  C   UNL     1      34.655 -23.378 -16.834  0.00  0.00    +0.062 C 
ATOM     20  C   UNL     1      33.705 -23.238 -17.845  0.00  0.00    +0.013 C 
BRANCH  16  24
ATOM     21  F   UNL     1      37.302 -24.180 -15.631  0.00  0.00    -0.166 F 
ATOM     22  F   UNL     1      38.112 -22.251 -16.203  0.00  0.00    -0.166 F 
ATOM     23  F   UNL     1      36.541 -22.367 -14.703  0.00  0.00    -0.166 F 
ATOM     24  C   UNL     1      36.946 -22.890 -15.896  0.00  0.00    +0.419 C 
ENDBRANCH  16  24
ENDBRANCH   9  15
ENDBRANCH   2  10
BRANCH   3  25
ATOM     25  O   UNL     1      34.123 -15.169 -25.062  0.00  0.00    -0.453 OA
BRANCH  25  27
ATOM     26  N   UNL     1      33.177 -11.612 -23.133  0.00  0.00    -0.239 NA
ATOM     27  C   UNL     1      33.807 -13.984 -24.419  0.00  0.00    +0.149 C 
ATOM     28  C   UNL     1      33.107 -14.026 -23.233  0.00  0.00    +0.061 C 
ATOM     29  C   UNL     1      32.817 -12.813 -22.628  0.00  0.00    +0.137 C 
ATOM     30  C   UNL     1      34.200 -12.788 -24.981  0.00  0.00    +0.058 C 
ATOM     31  C   UNL     1      33.860 -11.631 -24.300  0.00  0.00    +0.102 C 
BRANCH  29  34
ATOM     32  O   UNL     1      31.994 -13.794 -20.665  0.00  0.00    -0.268 OA
ATOM     33  N   UNL     1      31.512 -11.552 -21.008  0.00  0.00    -0.298 N 
ATOM     34  C   UNL     1      32.083 -12.776 -21.376  0.00  0.00    +0.264 C 
ATOM     35  C   UNL     1      30.773 -11.349 -19.783  0.00  0.00    +0.111 C 
ATOM     36  H   UNL     1      31.619 -10.787 -21.618  0.00  0.00    +0.150 HD
ENDBRANCH  29  34
ENDBRANCH  25  27
ENDBRANCH   3  25
TORSDOF 6
ENDMDL
MODEL 6
REMARK VINA RESULT:     -11.7      5.626      9.798
REMARK  Name = 11167602
REMARK  6 active torsions:
REMARK  status: ('A' for Active; 'I' for Inactive)
REMARK    1  A    between atoms: C_2  and  N_10
REMARK    2  A    between atoms: C_3  and  O_25
REMARK    3  A    between atoms: N_9  and  C_15
REMARK    4  A    between atoms: C_16  and  C_24
REMARK    5  A    between atoms: O_25  and  C_27
REMARK    6  A    between atoms: C_29  and  C_34
REMARK                            x       y       z     vdW  Elec       q    Type
REMARK                         _______ _______ _______ _____ _____    ______ ____
ROOT
ATOM      1  F   UNL     1      33.226 -14.686 -26.130  0.00  0.00    -0.203 F 
ATOM      2  C   UNL     1      34.153 -14.423 -23.960  0.00  0.00    +0.079 C 
ATOM      3  C   UNL     1      34.654 -17.146 -23.866  0.00  0.00    +0.148 C 
ATOM      4  C   UNL     1      33.802 -15.214 -25.041  0.00  0.00    +0.157 C 
ATOM      5  C   UNL     1      34.751 -14.964 -22.833  0.00  0.00    +0.020 C 
ATOM      6  C   UNL     1      34.054 -16.585 -24.994  0.00  0.00    +0.068 C 
ATOM      7  C   UNL     1      35.001 -16.335 -22.785  0.00  0.00    +0.039 C 
ENDROOT
BRANCH   2  10
ATOM      8  O   UNL     1      32.890 -12.625 -21.936  0.00  0.00    -0.252 OA
ATOM      9  N   UNL     1      33.236 -10.886 -23.467  0.00  0.00    -0.268 N 
ATOM     10  N   UNL     1      33.900 -13.031 -24.005  0.00  0.00    -0.266 N 
ATOM     11  C   UNL     1      33.300 -12.229 -23.022  0.00  0.00    +0.308 C 
ATOM     12  H   UNL     1      33.606 -10.715 -24.363  0.00  0.00    +0.156 HD
ATOM     13  H   UNL     1      34.180 -12.569 -24.829  0.00  0.00    +0.156 HD
BRANCH   9  15
ATOM     14 CL   UNL     1      31.035  -6.195 -20.621  0.00  0.00    -0.082 Cl
ATOM     15  C   UNL     1      32.718  -9.773 -22.803  0.00  0.00    +0.052 C 
ATOM     16  C   UNL     1      32.075  -7.445 -22.809  0.00  0.00    +0.083 C 
ATOM     17  C   UNL     1      32.593  -8.557 -23.474  0.00  0.00    +0.019 C 
ATOM     18  C   UNL     1      32.327  -9.878 -21.468  0.00  0.00    +0.016 C 
ATOM     19  C   UNL     1      31.682  -7.550 -21.475  0.00  0.00    +0.062 C 
ATOM     20  C   UNL     1      31.809  -8.766 -20.805  0.00  0.00    +0.013 C 
BRANCH  16  24
ATOM     21  F   UNL     1      32.308  -6.265 -24.877  0.00  0.00    -0.166 F 
ATOM     22  F   UNL     1      30.688  -5.651 -23.573  0.00  0.00    -0.166 F 
ATOM     23  F   UNL     1      32.744  -5.176 -23.047  0.00  0.00    -0.166 F 
ATOM     24  C   UNL     1      31.954  -6.160 -23.564  0.00  0.00    +0.419 C 
ENDBRANCH  16  24
ENDBRANCH   9  15
ENDBRANCH   2  10
BRANCH   3  25
ATOM     25  O   UNL     1      34.900 -18.484 -23.820  0.00  0.00    -0.453 OA
BRANCH  25  27
ATOM     26  N   UNL     1      36.028 -20.116 -20.168  0.00  0.00    -0.239 NA
ATOM     27  C   UNL     1      35.274 -19.027 -22.603  0.00  0.00    +0.149 C 
ATOM     28  C   UNL     1      34.358 -19.760 -21.880  0.00  0.00    +0.061 C 
ATOM     29  C   UNL     1      34.783 -20.284 -20.670  0.00  0.00    +0.137 C 
ATOM     30  C   UNL     1      36.558 -18.823 -22.141  0.00  0.00    +0.058 C 
ATOM     31  C   UNL     1      36.884 -19.388 -20.919  0.00  0.00    +0.102 C 
BRANCH  29  34
ATOM     32  O   UNL     1      32.644 -20.905 -19.939  0.00  0.00    -0.268 OA
ATOM     33  N   UNL     1      34.447 -22.015 -18.993  0.00  0.00    -0.298 N 
ATOM     34  C   UNL     1      33.875 -21.068 -19.851  0.00  0.00    +0.264 C 
ATOM     35  C   UNL     1      33.676 -22.886 -18.135  0.00  0.00    +0.111 C 
ATOM     36  H   UNL     1      35.428 -22.092 -18.972  0.00  0.00    +0.150 HD
ENDBRANCH  29  34
ENDBRANCH  25  27
ENDBRANCH   3  25
TORSDOF 6
ENDMDL
MODEL 7
REMARK VINA RESULT:     -11.7      5.375      9.709
REMARK  Name = 11167602
REMARK  6 active torsions:
REMARK  status: ('A' for Active; 'I' for Inactive)
REMARK    1  A    between atoms: C_2  and  N_10
REMARK    2  A    between atoms: C_3  and  O_25
REMARK    3  A    between atoms: N_9  and  C_15
REMARK    4  A    between atoms: C_16  and  C_24
REMARK    5  A    between atoms: O_25  and  C_27
REMARK    6  A    between atoms: C_29  and  C_34
REMARK                            x       y       z     vdW  Elec       q    Type
REMARK                         _______ _______ _______ _____ _____    ______ ____
ROOT
ATOM      1  F   UNL     1      33.325 -14.578 -26.256  0.00  0.00    -0.203 F 
ATOM      2  C   UNL     1      34.172 -14.331 -24.052  0.00  0.00    +0.079 C 
ATOM      3  C   UNL     1      34.626 -17.061 -23.942  0.00  0.00    +0.148 C 
ATOM      4  C   UNL     1      33.850 -15.116 -25.147  0.00  0.00    +0.157 C 
ATOM      5  C   UNL     1      34.717 -14.882 -22.904  0.00  0.00    +0.020 C 
ATOM      6  C   UNL     1      34.079 -16.490 -25.092  0.00  0.00    +0.068 C 
ATOM      7  C   UNL     1      34.945 -16.257 -22.848  0.00  0.00    +0.039 C 
ENDROOT
BRANCH   2  10
ATOM      8  O   UNL     1      32.641 -12.556 -22.200  0.00  0.00    -0.252 OA
ATOM      9  N   UNL     1      33.228 -10.792 -23.626  0.00  0.00    -0.268 N 
ATOM     10  N   UNL     1      33.943 -12.935 -24.105  0.00  0.00    -0.266 N 
ATOM     11  C   UNL     1      33.212 -12.144 -23.205  0.00  0.00    +0.308 C 
ATOM     12  H   UNL     1      33.728 -10.609 -24.454  0.00  0.00    +0.156 HD
ATOM     13  H   UNL     1      34.346 -12.461 -24.868  0.00  0.00    +0.156 HD
BRANCH   9  15
ATOM     14 CL   UNL     1      30.680  -6.089 -21.109  0.00  0.00    -0.082 Cl
ATOM     15  C   UNL     1      32.629  -9.685 -23.023  0.00  0.00    +0.052 C 
ATOM     16  C   UNL     1      32.151  -8.382 -21.046  0.00  0.00    +0.083 C 
ATOM     17  C   UNL     1      32.750  -9.490 -21.648  0.00  0.00    +0.019 C 
ATOM     18  C   UNL     1      31.909  -8.775 -23.797  0.00  0.00    +0.016 C 
ATOM     19  C   UNL     1      31.433  -7.472 -21.819  0.00  0.00    +0.062 C 
ATOM     20  C   UNL     1      31.311  -7.668 -23.195  0.00  0.00    +0.013 C 
BRANCH  16  24
ATOM     21  F   UNL     1      32.977  -9.232 -18.967  0.00  0.00    -0.166 F 
ATOM     22  F   UNL     1      32.993  -7.079 -19.225  0.00  0.00    -0.166 F 
ATOM     23  F   UNL     1      31.108  -8.121 -18.926  0.00  0.00    -0.166 F 
ATOM     24  C   UNL     1      32.308  -8.207 -19.570  0.00  0.00    +0.419 C 
ENDBRANCH  16  24
ENDBRANCH   9  15
ENDBRANCH   2  10
BRANCH   3  25
ATOM     25  O   UNL     1      34.849 -18.403 -23.888  0.00  0.00    -0.453 OA
BRANCH  25  27
ATOM     26  N   UNL     1      35.983 -20.028 -20.235  0.00  0.00    -0.239 NA
ATOM     27  C   UNL     1      35.226 -18.944 -22.671  0.00  0.00    +0.149 C 
ATOM     28  C   UNL     1      34.309 -19.669 -21.942  0.00  0.00    +0.061 C 
ATOM     29  C   UNL     1      34.736 -20.192 -20.731  0.00  0.00    +0.137 C 
ATOM     30  C   UNL     1      36.512 -18.745 -22.215  0.00  0.00    +0.058 C 
ATOM     31  C   UNL     1      36.841 -19.307 -20.992  0.00  0.00    +0.102 C 
BRANCH  29  34
ATOM     32  O   UNL     1      32.600 -20.762 -19.951  0.00  0.00    -0.268 OA
ATOM     33  N   UNL     1      34.392 -21.957 -19.092  0.00  0.00    -0.298 N 
ATOM     34  C   UNL     1      33.827 -20.968 -19.906  0.00  0.00    +0.264 C 
ATOM     35  C   UNL     1      33.619 -22.825 -18.234  0.00  0.00    +0.111 C 
ATOM     36  H   UNL     1      35.370 -22.065 -19.103  0.00  0.00    +0.150 HD
ENDBRANCH  29  34
ENDBRANCH  25  27
ENDBRANCH   3  25
TORSDOF 6
ENDMDL
MODEL 8
REMARK VINA RESULT:     -11.6      1.208      2.133
REMARK  Name = 11167602
REMARK  6 active torsions:
REMARK  status: ('A' for Active; 'I' for Inactive)
REMARK    1  A    between atoms: C_2  and  N_10
REMARK    2  A    between atoms: C_3  and  O_25
REMARK    3  A    between atoms: N_9  and  C_15
REMARK    4  A    between atoms: C_16  and  C_24
REMARK    5  A    between atoms: O_25  and  C_27
REMARK    6  A    between atoms: C_29  and  C_34
REMARK                            x       y       z     vdW  Elec       q    Type
REMARK                         _______ _______ _______ _____ _____    ______ ____
ROOT
ATOM      1  F   UNL     1      37.223 -21.391 -17.471  0.00  0.00    -0.203 F 
ATOM      2  C   UNL     1      35.266 -22.016 -18.661  0.00  0.00    +0.079 C 
ATOM      3  C   UNL     1      34.519 -23.634 -16.541  0.00  0.00    +0.148 C 
ATOM      4  C   UNL     1      36.081 -22.089 -17.544  0.00  0.00    +0.157 C 
ATOM      5  C   UNL     1      34.084 -22.734 -18.740  0.00  0.00    +0.020 C 
ATOM      6  C   UNL     1      35.705 -22.903 -16.477  0.00  0.00    +0.068 C 
ATOM      7  C   UNL     1      33.708 -23.550 -17.673  0.00  0.00    +0.039 C 
ENDROOT
BRANCH   2  10
ATOM      8  O   UNL     1      33.650 -20.086 -20.270  0.00  0.00    -0.252 OA
ATOM      9  N   UNL     1      35.611 -19.663 -21.479  0.00  0.00    -0.268 N 
ATOM     10  N   UNL     1      35.644 -21.189 -19.746  0.00  0.00    -0.266 N 
ATOM     11  C   UNL     1      34.842 -20.295 -20.472  0.00  0.00    +0.308 C 
ATOM     12  H   UNL     1      36.558 -19.930 -21.523  0.00  0.00    +0.156 HD
ATOM     13  H   UNL     1      36.586 -21.249 -20.025  0.00  0.00    +0.156 HD
BRANCH   9  15
ATOM     14 CL   UNL     1      33.899 -15.663 -25.480  0.00  0.00    -0.082 Cl
ATOM     15  C   UNL     1      35.206 -18.712 -22.416  0.00  0.00    +0.052 C 
ATOM     16  C   UNL     1      34.576 -16.444 -22.958  0.00  0.00    +0.083 C 
ATOM     17  C   UNL     1      34.981 -17.394 -22.020  0.00  0.00    +0.019 C 
ATOM     18  C   UNL     1      35.026 -19.081 -23.749  0.00  0.00    +0.016 C 
ATOM     19  C   UNL     1      34.397 -16.812 -24.291  0.00  0.00    +0.062 C 
ATOM     20  C   UNL     1      34.621 -18.130 -24.687  0.00  0.00    +0.013 C 
BRANCH  16  24
ATOM     21  F   UNL     1      34.818 -14.801 -21.236  0.00  0.00    -0.166 F 
ATOM     22  F   UNL     1      34.943 -14.103 -23.286  0.00  0.00    -0.166 F 
ATOM     23  F   UNL     1      33.025 -14.712 -22.462  0.00  0.00    -0.166 F 
ATOM     24  C   UNL     1      34.348 -15.042 -22.494  0.00  0.00    +0.419 C 
ENDBRANCH  16  24
ENDBRANCH   9  15
ENDBRANCH   2  10
BRANCH   3  25
ATOM     25  O   UNL     1      34.151 -24.430 -15.499  0.00  0.00    -0.453 OA
BRANCH  25  27
ATOM     26  N   UNL     1      37.167 -26.326 -13.360  0.00  0.00    -0.239 NA
ATOM     27  C   UNL     1      35.157 -25.061 -14.786  0.00  0.00    +0.149 C 
ATOM     28  C   UNL     1      35.331 -24.756 -13.453  0.00  0.00    +0.061 C 
ATOM     29  C   UNL     1      36.350 -25.416 -12.784  0.00  0.00    +0.137 C 
ATOM     30  C   UNL     1      35.960 -25.980 -15.426  0.00  0.00    +0.058 C 
ATOM     31  C   UNL     1      36.951 -26.585 -14.669  0.00  0.00    +0.102 C 
BRANCH  29  34
ATOM     32  O   UNL     1      37.759 -25.044 -10.947  0.00  0.00    -0.268 OA
ATOM     33  N   UNL     1      35.474 -24.996 -10.552  0.00  0.00    -0.298 N 
ATOM     34  C   UNL     1      36.595 -25.149 -11.377  0.00  0.00    +0.264 C 
ATOM     35  C   UNL     1      35.554 -24.705  -9.140  0.00  0.00    +0.111 C 
ATOM     36  H   UNL     1      34.582 -25.094 -10.957  0.00  0.00    +0.150 HD
ENDBRANCH  29  34
ENDBRANCH  25  27
ENDBRANCH   3  25
TORSDOF 6
ENDMDL
MODEL 9
REMARK VINA RESULT:     -11.6      4.697      7.945
REMARK  Name = 11167602
REMARK  6 active torsions:
REMARK  status: ('A' for Active; 'I' for Inactive)
REMARK    1  A    between atoms: C_2  and  N_10
REMARK    2  A    between atoms: C_3  and  O_25
REMARK    3  A    between atoms: N_9  and  C_15
REMARK    4  A    between atoms: C_16  and  C_24
REMARK    5  A    between atoms: O_25  and  C_27
REMARK    6  A    between atoms: C_29  and  C_34
REMARK                            x       y       z     vdW  Elec       q    Type
REMARK                         _______ _______ _______ _____ _____    ______ ____
ROOT
ATOM      1  F   UNL     1      34.593 -16.606 -25.182  0.00  0.00    -0.203 F 
ATOM      2  C   UNL     1      34.650 -15.951 -22.900  0.00  0.00    +0.079 C 
ATOM      3  C   UNL     1      35.384 -18.528 -22.200  0.00  0.00    +0.148 C 
ATOM      4  C   UNL     1      34.798 -16.906 -23.892  0.00  0.00    +0.157 C 
ATOM      5  C   UNL     1      34.862 -16.256 -21.566  0.00  0.00    +0.020 C 
ATOM      6  C   UNL     1      35.167 -18.204 -23.539  0.00  0.00    +0.068 C 
ATOM      7  C   UNL     1      35.231 -17.554 -21.213  0.00  0.00    +0.039 C 
ENDROOT
BRANCH   2  10
ATOM      8  O   UNL     1      33.505 -13.755 -21.229  0.00  0.00    -0.252 OA
ATOM      9  N   UNL     1      33.506 -12.456 -23.179  0.00  0.00    -0.268 N 
ATOM     10  N   UNL     1      34.276 -14.633 -23.255  0.00  0.00    -0.266 N 
ATOM     11  C   UNL     1      33.739 -13.634 -22.427  0.00  0.00    +0.308 C 
ATOM     12  H   UNL     1      33.743 -12.505 -24.133  0.00  0.00    +0.156 HD
ATOM     13  H   UNL     1      34.409 -14.386 -24.199  0.00  0.00    +0.156 HD
BRANCH   9  15
ATOM     14 CL   UNL     1      31.268  -7.309 -21.324  0.00  0.00    -0.082 Cl
ATOM     15  C   UNL     1      32.984 -11.237 -22.747  0.00  0.00    +0.052 C 
ATOM     16  C   UNL     1      32.943  -8.823 -22.850  0.00  0.00    +0.083 C 
ATOM     17  C   UNL     1      33.466 -10.043 -23.283  0.00  0.00    +0.019 C 
ATOM     18  C   UNL     1      31.981 -11.212 -21.778  0.00  0.00    +0.016 C 
ATOM     19  C   UNL     1      31.939  -8.799 -21.883  0.00  0.00    +0.062 C 
ATOM     20  C   UNL     1      31.458  -9.993 -21.346  0.00  0.00    +0.013 C 
BRANCH  16  24
ATOM     21  F   UNL     1      34.433  -7.785 -24.407  0.00  0.00    -0.166 F 
ATOM     22  F   UNL     1      32.533  -6.799 -24.056  0.00  0.00    -0.166 F 
ATOM     23  F   UNL     1      34.076  -6.759 -22.524  0.00  0.00    -0.166 F 
ATOM     24  C   UNL     1      33.485  -7.567 -23.451  0.00  0.00    +0.419 C 
ENDBRANCH  16  24
ENDBRANCH   9  15
ENDBRANCH   2  10
BRANCH   3  25
ATOM     25  O   UNL     1      35.745 -19.795 -21.856  0.00  0.00    -0.453 OA
BRANCH  25  27
ATOM     26  N   UNL     1      33.532 -21.691 -18.893  0.00  0.00    -0.239 NA
ATOM     27  C   UNL     1      35.008 -20.428 -20.869  0.00  0.00    +0.149 C 
ATOM     28  C   UNL     1      35.666 -21.104 -19.865  0.00  0.00    +0.061 C 
ATOM     29  C   UNL     1      34.884 -21.719 -18.900  0.00  0.00    +0.137 C 
ATOM     30  C   UNL     1      33.631 -20.366 -20.913  0.00  0.00    +0.058 C 
ATOM     31  C   UNL     1      32.940 -21.014 -19.902  0.00  0.00    +0.102 C 
BRANCH  29  34
ATOM     32  O   UNL     1      36.735 -22.395 -17.631  0.00  0.00    -0.268 OA
ATOM     33  N   UNL     1      34.658 -23.190 -16.975  0.00  0.00    -0.298 N 
ATOM     34  C   UNL     1      35.505 -22.451 -17.810  0.00  0.00    +0.264 C 
ATOM     35  C   UNL     1      35.121 -23.950 -15.837  0.00  0.00    +0.111 C 
ATOM     36  H   UNL     1      33.694 -23.192 -17.175  0.00  0.00    +0.150 HD
ENDBRANCH  29  34
ENDBRANCH  25  27
ENDBRANCH   3  25
TORSDOF 6
ENDMDL
