MODEL 1
REMARK VINA RESULT:     -12.0      0.000      0.000
REMARK  Name = 71226662
REMARK  4 active torsions:
REMARK  status: ('A' for Active; 'I' for Inactive)
REMARK    1  A    between atoms: C_5  and  C_15
REMARK    2  A    between atoms: C_7  and  C_23
REMARK    3  A    between atoms: C_19  and  C_20
REMARK    4  A    between atoms: C_28  and  C_31
REMARK                            x       y       z     vdW  Elec       q    Type
REMARK                         _______ _______ _______ _____ _____    ______ ____
ROOT
ATOM      1  N   UNL     1      32.956 -24.599 -14.297  0.00  0.00    -0.251 N 
ATOM      2  N   UNL     1      34.895 -24.011 -15.205  0.00  0.00    -0.392 NA
ATOM      3  N   UNL     1      30.310 -24.165 -15.007  0.00  0.00    -0.231 NA
ATOM      4  N   UNL     1      30.874 -22.958 -16.905  0.00  0.00    -0.344 N 
ATOM      5  C   UNL     1      34.319 -24.648 -14.206  0.00  0.00    +0.182 C 
ATOM      6  C   UNL     1      32.645 -23.884 -15.428  0.00  0.00    +0.185 C 
ATOM      7  C   UNL     1      33.858 -23.531 -15.972  0.00  0.00    +0.136 C 
ATOM      8  C   UNL     1      31.951 -25.108 -13.503  0.00  0.00    +0.089 C 
ATOM      9  C   UNL     1      31.251 -23.665 -15.786  0.00  0.00    +0.128 C 
ATOM     10  C   UNL     1      30.681 -24.877 -13.879  0.00  0.00    +0.116 C 
ATOM     11  H   UNL     1      29.919 -22.835 -17.110  0.00  0.00    +0.143 HD
ATOM     12  H   UNL     1      31.559 -22.577 -17.501  0.00  0.00    +0.143 HD
ENDROOT
BRANCH   5  15
ATOM     13  O   UNL     1      36.410 -27.055 -14.987  0.00  0.00    -0.260 OA
ATOM     14  N   UNL     1      36.486 -25.490 -13.275  0.00  0.00    -0.263 N 
ATOM     15  C   UNL     1      35.039 -25.361 -13.076  0.00  0.00    +0.143 C 
ATOM     16  C   UNL     1      34.918 -24.616 -11.741  0.00  0.00    +0.030 C 
ATOM     17  C   UNL     1      36.190 -23.777 -11.674  0.00  0.00    +0.024 C 
ATOM     18  C   UNL     1      37.233 -24.678 -12.318  0.00  0.00    +0.095 C 
ATOM     19  C   UNL     1      37.043 -26.376 -14.185  0.00  0.00    +0.293 C 
BRANCH  19  20
ATOM     20  C   UNL     1      38.483 -26.505 -14.185  0.00  0.00    -0.007 C 
ATOM     21  C   UNL     1      39.679 -26.612 -14.185  0.00  0.00    -0.081 C 
ATOM     22  C   UNL     1      41.135 -26.743 -14.184  0.00  0.00    +0.090 C 
ENDBRANCH  19  20
ENDBRANCH   5  15
BRANCH   7  23
ATOM     23  C   UNL     1      34.076 -22.773 -17.166  0.00  0.00    +0.028 C 
ATOM     24  C   UNL     1      32.994 -22.408 -17.968  0.00  0.00    +0.002 C 
ATOM     25  C   UNL     1      35.370 -22.399 -17.527  0.00  0.00    +0.002 C 
ATOM     26  C   UNL     1      33.207 -21.671 -19.132  0.00  0.00    +0.005 C 
ATOM     27  C   UNL     1      35.583 -21.661 -18.691  0.00  0.00    +0.005 C 
ATOM     28  C   UNL     1      34.502 -21.296 -19.494  0.00  0.00    +0.054 C 
BRANCH  28  31
ATOM     29  O   UNL     1      35.016 -21.123 -21.756  0.00  0.00    -0.270 OA
ATOM     30  N   UNL     1      34.606 -19.135 -20.579  0.00  0.00    -0.266 N 
ATOM     31  C   UNL     1      34.723 -20.525 -20.707  0.00  0.00    +0.251 C 
ATOM     32  H   UNL     1      34.367 -18.806 -19.682  0.00  0.00    +0.157 HD
ATOM     33  N   UNL     1      34.623 -16.844 -21.221  0.00  0.00    -0.229 NA
ATOM     34  C   UNL     1      34.788 -18.140 -21.570  0.00  0.00    +0.134 C 
ATOM     35  C   UNL     1      35.126 -18.562 -22.846  0.00  0.00    +0.034 C 
ATOM     36  C   UNL     1      35.308 -17.593 -23.826  0.00  0.00    +0.004 C 
ATOM     37  C   UNL     1      34.807 -15.930 -22.200  0.00  0.00    +0.100 C 
ATOM     38  C   UNL     1      35.147 -16.249 -23.505  0.00  0.00    +0.021 C 
ENDBRANCH  28  31
ENDBRANCH   7  23
TORSDOF 4
ENDMDL
MODEL 2
REMARK VINA RESULT:     -11.1     11.014     19.686
REMARK  Name = 71226662
REMARK  4 active torsions:
REMARK  status: ('A' for Active; 'I' for Inactive)
REMARK    1  A    between atoms: C_5  and  C_15
REMARK    2  A    between atoms: C_7  and  C_23
REMARK    3  A    between atoms: C_19  and  C_20
REMARK    4  A    between atoms: C_28  and  C_31
REMARK                            x       y       z     vdW  Elec       q    Type
REMARK                         _______ _______ _______ _____ _____    ______ ____
ROOT
ATOM      1  N   UNL     1      32.343  -3.437 -25.115  0.00  0.00    -0.251 N 
ATOM      2  N   UNL     1      33.384  -5.358 -25.508  0.00  0.00    -0.392 NA
ATOM      3  N   UNL     1      30.488  -2.628 -23.218  0.00  0.00    -0.231 NA
ATOM      4  N   UNL     1      30.428  -4.706 -22.191  0.00  0.00    -0.344 N 
ATOM      5  C   UNL     1      33.237  -4.109 -25.901  0.00  0.00    +0.182 C 
ATOM      6  C   UNL     1      31.892  -4.316 -24.160  0.00  0.00    +0.185 C 
ATOM      7  C   UNL     1      32.548  -5.496 -24.423  0.00  0.00    +0.136 C 
ATOM      8  C   UNL     1      31.874  -2.141 -25.138  0.00  0.00    +0.089 C 
ATOM      9  C   UNL     1      30.918  -3.875 -23.173  0.00  0.00    +0.128 C 
ATOM     10  C   UNL     1      30.977  -1.786 -24.203  0.00  0.00    +0.116 C 
ATOM     11  H   UNL     1      29.770  -4.366 -21.542  0.00  0.00    +0.143 HD
ATOM     12  H   UNL     1      30.735  -5.640 -22.137  0.00  0.00    +0.143 HD
ENDROOT
BRANCH   5  15
ATOM     13  O   UNL     1      36.476  -4.567 -26.180  0.00  0.00    -0.260 OA
ATOM     14  N   UNL     1      34.838  -4.362 -27.810  0.00  0.00    -0.263 N 
ATOM     15  C   UNL     1      33.951  -3.458 -27.071  0.00  0.00    +0.143 C 
ATOM     16  C   UNL     1      32.977  -2.944 -28.139  0.00  0.00    +0.030 C 
ATOM     17  C   UNL     1      32.911  -4.085 -29.151  0.00  0.00    +0.024 C 
ATOM     18  C   UNL     1      34.332  -4.627 -29.155  0.00  0.00    +0.095 C 
ATOM     19  C   UNL     1      36.057  -4.793 -27.310  0.00  0.00    +0.293 C 
BRANCH  19  20
ATOM     20  C   UNL     1      36.897  -5.568 -28.194  0.00  0.00    -0.007 C 
ATOM     21  C   UNL     1      37.595  -6.213 -28.929  0.00  0.00    -0.081 C 
ATOM     22  C   UNL     1      38.443  -6.998 -29.824  0.00  0.00    +0.090 C 
ENDBRANCH  19  20
ENDBRANCH   5  15
BRANCH   7  23
ATOM     23  C   UNL     1      32.422  -6.726 -23.705  0.00  0.00    +0.028 C 
ATOM     24  C   UNL     1      31.239  -7.463 -23.783  0.00  0.00    +0.002 C 
ATOM     25  C   UNL     1      33.483  -7.190 -22.926  0.00  0.00    +0.002 C 
ATOM     26  C   UNL     1      31.117  -8.662 -23.081  0.00  0.00    +0.005 C 
ATOM     27  C   UNL     1      33.360  -8.389 -22.225  0.00  0.00    +0.005 C 
ATOM     28  C   UNL     1      32.178  -9.126 -22.302  0.00  0.00    +0.054 C 
BRANCH  28  31
ATOM     29  O   UNL     1      31.452 -10.382 -20.484  0.00  0.00    -0.270 OA
ATOM     30  N   UNL     1      32.651 -11.496 -22.166  0.00  0.00    -0.266 N 
ATOM     31  C   UNL     1      32.050 -10.377 -21.572  0.00  0.00    +0.251 C 
ATOM     32  H   UNL     1      33.089 -11.337 -23.033  0.00  0.00    +0.157 HD
ATOM     33  N   UNL     1      33.348 -13.756 -22.426  0.00  0.00    -0.229 NA
ATOM     34  C   UNL     1      32.710 -12.826 -21.681  0.00  0.00    +0.134 C 
ATOM     35  C   UNL     1      32.103 -13.090 -20.464  0.00  0.00    +0.034 C 
ATOM     36  C   UNL     1      32.157 -14.392 -19.979  0.00  0.00    +0.004 C 
ATOM     37  C   UNL     1      33.378 -15.011 -21.924  0.00  0.00    +0.100 C 
ATOM     38  C   UNL     1      32.804 -15.377 -20.717  0.00  0.00    +0.021 C 
ENDBRANCH  28  31
ENDBRANCH   7  23
TORSDOF 4
ENDMDL
MODEL 3
REMARK VINA RESULT:     -10.3      1.615      2.913
REMARK  Name = 71226662
REMARK  4 active torsions:
REMARK  status: ('A' for Active; 'I' for Inactive)
REMARK    1  A    between atoms: C_5  and  C_15
REMARK    2  A    between atoms: C_7  and  C_23
REMARK    3  A    between atoms: C_19  and  C_20
REMARK    4  A    between atoms: C_28  and  C_31
REMARK                            x       y       z     vdW  Elec       q    Type
REMARK                         _______ _______ _______ _____ _____    ______ ____
ROOT
ATOM      1  N   UNL     1      35.065 -24.086 -15.325  0.00  0.00    -0.251 N 
ATOM      2  N   UNL     1      36.706 -23.165 -16.502  0.00  0.00    -0.392 NA
ATOM      3  N   UNL     1      32.303 -24.097 -15.591  0.00  0.00    -0.231 NA
ATOM      4  N   UNL     1      32.345 -22.787 -17.503  0.00  0.00    -0.344 N 
ATOM      5  C   UNL     1      36.413 -23.905 -15.452  0.00  0.00    +0.182 C 
ATOM      6  C   UNL     1      34.460 -23.419 -16.363  0.00  0.00    +0.185 C 
ATOM      7  C   UNL     1      35.493 -22.858 -17.076  0.00  0.00    +0.136 C 
ATOM      8  C   UNL     1      34.299 -24.768 -14.403  0.00  0.00    +0.089 C 
ATOM      9  C   UNL     1      33.010 -23.434 -16.487  0.00  0.00    +0.128 C 
ATOM     10  C   UNL     1      32.965 -24.751 -14.565  0.00  0.00    +0.116 C 
ATOM     11  H   UNL     1      31.362 -22.824 -17.550  0.00  0.00    +0.143 HD
ATOM     12  H   UNL     1      32.851 -22.287 -18.184  0.00  0.00    +0.143 HD
ENDROOT
BRANCH   5  15
ATOM     13  O   UNL     1      36.536 -22.667 -12.414  0.00  0.00    -0.260 OA
ATOM     14  N   UNL     1      36.849 -24.839 -13.169  0.00  0.00    -0.263 N 
ATOM     15  C   UNL     1      37.415 -24.500 -14.480  0.00  0.00    +0.143 C 
ATOM     16  C   UNL     1      37.999 -25.827 -14.980  0.00  0.00    +0.030 C 
ATOM     17  C   UNL     1      37.121 -26.885 -14.319  0.00  0.00    +0.024 C 
ATOM     18  C   UNL     1      36.820 -26.283 -12.955  0.00  0.00    +0.095 C 
ATOM     19  C   UNL     1      36.510 -23.879 -12.227  0.00  0.00    +0.293 C 
BRANCH  19  20
ATOM     20  C   UNL     1      36.093 -24.349 -10.925  0.00  0.00    -0.007 C 
ATOM     21  C   UNL     1      35.747 -24.740  -9.844  0.00  0.00    -0.081 C 
ATOM     22  C   UNL     1      35.325 -25.216  -8.528  0.00  0.00    +0.090 C 
ENDBRANCH  19  20
ENDBRANCH   5  15
BRANCH   7  23
ATOM     23  C   UNL     1      35.386 -22.058 -18.257  0.00  0.00    +0.028 C 
ATOM     24  C   UNL     1      34.143 -21.866 -18.860  0.00  0.00    +0.002 C 
ATOM     25  C   UNL     1      36.526 -21.469 -18.806  0.00  0.00    +0.002 C 
ATOM     26  C   UNL     1      34.040 -21.087 -20.012  0.00  0.00    +0.005 C 
ATOM     27  C   UNL     1      36.422 -20.690 -19.958  0.00  0.00    +0.005 C 
ATOM     28  C   UNL     1      35.179 -20.499 -20.561  0.00  0.00    +0.054 C 
BRANCH  28  31
ATOM     29  O   UNL     1      35.113 -20.240 -22.872  0.00  0.00    -0.270 OA
ATOM     30  N   UNL     1      34.948 -18.304 -21.556  0.00  0.00    -0.266 N 
ATOM     31  C   UNL     1      35.071 -19.685 -21.762  0.00  0.00    +0.251 C 
ATOM     32  H   UNL     1      34.928 -18.011 -20.617  0.00  0.00    +0.157 HD
ATOM     33  N   UNL     1      34.736 -15.996 -22.097  0.00  0.00    -0.229 NA
ATOM     34  C   UNL     1      34.849 -17.274 -22.524  0.00  0.00    +0.134 C 
ATOM     35  C   UNL     1      34.873 -17.646 -23.859  0.00  0.00    +0.034 C 
ATOM     36  C   UNL     1      34.778 -16.643 -24.816  0.00  0.00    +0.004 C 
ATOM     37  C   UNL     1      34.645 -15.048 -23.056  0.00  0.00    +0.100 C 
ATOM     38  C   UNL     1      34.661 -15.316 -24.415  0.00  0.00    +0.021 C 
ENDBRANCH  28  31
ENDBRANCH   7  23
TORSDOF 4
ENDMDL
MODEL 4
REMARK VINA RESULT:      -9.0      2.284      5.620
REMARK  Name = 71226662
REMARK  4 active torsions:
REMARK  status: ('A' for Active; 'I' for Inactive)
REMARK    1  A    between atoms: C_5  and  C_15
REMARK    2  A    between atoms: C_7  and  C_23
REMARK    3  A    between atoms: C_19  and  C_20
REMARK    4  A    between atoms: C_28  and  C_31
REMARK                            x       y       z     vdW  Elec       q    Type
REMARK                         _______ _______ _______ _____ _____    ______ ____
ROOT
ATOM      1  N   UNL     1      33.795 -24.183 -15.029  0.00  0.00    -0.251 N 
ATOM      2  N   UNL     1      32.315 -23.233 -16.381  0.00  0.00    -0.392 NA
ATOM      3  N   UNL     1      36.568 -24.293 -15.013  0.00  0.00    -0.231 NA
ATOM      4  N   UNL     1      36.765 -23.018 -16.940  0.00  0.00    -0.344 N 
ATOM      5  C   UNL     1      32.474 -23.960 -15.294  0.00  0.00    +0.182 C 
ATOM      6  C   UNL     1      34.524 -23.557 -16.010  0.00  0.00    +0.185 C 
ATOM      7  C   UNL     1      33.589 -22.977 -16.834  0.00  0.00    +0.136 C 
ATOM      8  C   UNL     1      34.440 -24.875 -14.024  0.00  0.00    +0.089 C 
ATOM      9  C   UNL     1      35.978 -23.624 -15.987  0.00  0.00    +0.128 C 
ATOM     10  C   UNL     1      35.783 -24.905 -14.050  0.00  0.00    +0.116 C 
ATOM     11  H   UNL     1      37.746 -23.089 -16.886  0.00  0.00    +0.143 HD
ATOM     12  H   UNL     1      36.348 -22.513 -17.675  0.00  0.00    +0.143 HD
ENDROOT
BRANCH   5  15
ATOM     13  O   UNL     1      30.155 -21.869 -14.280  0.00  0.00    -0.260 OA
ATOM     14  N   UNL     1      30.013 -24.113 -14.853  0.00  0.00    -0.263 N 
ATOM     15  C   UNL     1      31.359 -24.502 -14.418  0.00  0.00    +0.143 C 
ATOM     16  C   UNL     1      31.313 -26.035 -14.410  0.00  0.00    +0.030 C 
ATOM     17  C   UNL     1      30.282 -26.375 -15.482  0.00  0.00    +0.024 C 
ATOM     18  C   UNL     1      29.255 -25.263 -15.340  0.00  0.00    +0.095 C 
ATOM     19  C   UNL     1      29.513 -22.830 -14.690  0.00  0.00    +0.293 C 
BRANCH  19  20
ATOM     20  C   UNL     1      28.125 -22.613 -15.033  0.00  0.00    -0.007 C 
ATOM     21  C   UNL     1      26.973 -22.433 -15.318  0.00  0.00    -0.081 C 
ATOM     22  C   UNL     1      25.570 -22.214 -15.665  0.00  0.00    +0.090 C 
ENDBRANCH  19  20
ENDBRANCH   5  15
BRANCH   7  23
ATOM     23  C   UNL     1      33.842 -22.204 -18.011  0.00  0.00    +0.028 C 
ATOM     24  C   UNL     1      35.152 -22.020 -18.457  0.00  0.00    +0.002 C 
ATOM     25  C   UNL     1      32.780 -21.633 -18.712  0.00  0.00    +0.002 C 
ATOM     26  C   UNL     1      35.398 -21.265 -19.603  0.00  0.00    +0.005 C 
ATOM     27  C   UNL     1      33.027 -20.878 -19.858  0.00  0.00    +0.005 C 
ATOM     28  C   UNL     1      34.335 -20.694 -20.304  0.00  0.00    +0.054 C 
BRANCH  28  31
ATOM     29  O   UNL     1      34.909 -20.494 -22.550  0.00  0.00    -0.270 OA
ATOM     30  N   UNL     1      34.481 -18.519 -21.357  0.00  0.00    -0.266 N 
ATOM     31  C   UNL     1      34.593 -19.908 -21.501  0.00  0.00    +0.251 C 
ATOM     32  H   UNL     1      34.220 -18.200 -20.462  0.00  0.00    +0.157 HD
ATOM     33  N   UNL     1      34.528 -16.220 -21.968  0.00  0.00    -0.229 NA
ATOM     34  C   UNL     1      34.694 -17.512 -22.330  0.00  0.00    +0.134 C 
ATOM     35  C   UNL     1      35.062 -17.919 -23.602  0.00  0.00    +0.034 C 
ATOM     36  C   UNL     1      35.275 -16.938 -24.564  0.00  0.00    +0.004 C 
ATOM     37  C   UNL     1      34.742 -15.294 -22.930  0.00  0.00    +0.100 C 
ATOM     38  C   UNL     1      35.113 -15.598 -24.230  0.00  0.00    +0.021 C 
ENDBRANCH  28  31
ENDBRANCH   7  23
TORSDOF 4
ENDMDL
