MODEL 1
REMARK VINA RESULT:     -11.8      0.000      0.000
REMARK  Name = 10172943
REMARK  7 active torsions:
REMARK  status: ('A' for Active; 'I' for Inactive)
REMARK    1  A    between atoms: O_1  and  C_3
REMARK    2  A    between atoms: O_1  and  C_19
REMARK    3  A    between atoms: C_4  and  C_11
REMARK    4  A    between atoms: C_19  and  C_20
REMARK    5  A    between atoms: C_20  and  N_21
REMARK    6  A    between atoms: C_20  and  C_25
REMARK    7  A    between atoms: C_25  and  C_27
REMARK                            x       y       z     vdW  Elec       q    Type
REMARK                         _______ _______ _______ _____ _____    ______ ____
ROOT
ATOM      1  O   UNL     1      36.524 -22.504 -18.266  0.00  0.00    -0.476 OA
ENDROOT
BRANCH   1   3
ATOM      2  N   UNL     1      33.062 -21.837 -19.189  0.00  0.00    -0.239 NA
ATOM      3  C   UNL     1      35.447 -21.940 -18.900  0.00  0.00    +0.158 C 
ATOM      4  C   UNL     1      34.518 -20.394 -20.470  0.00  0.00    +0.022 C 
ATOM      5  C   UNL     1      35.630 -20.948 -19.846  0.00  0.00    +0.040 C 
ATOM      6  C   UNL     1      34.166 -22.352 -18.603  0.00  0.00    +0.136 C 
ATOM      7  C   UNL     1      33.267 -20.869 -20.110  0.00  0.00    +0.099 C 
BRANCH   4  11
ATOM      8  N   UNL     1      34.898 -15.360 -23.325  0.00  0.00    -0.280 N 
ATOM      9  N   UNL     1      35.062 -16.355 -24.219  0.00  0.00    -0.173 NA
ATOM     10  C   UNL     1      34.730 -17.138 -22.112  0.00  0.00    +0.032 A 
ATOM     11  C   UNL     1      34.663 -19.355 -21.463  0.00  0.00    +0.002 C 
ATOM     12  C   UNL     1      34.963 -17.483 -23.495  0.00  0.00    +0.102 A 
ATOM     13  C   UNL     1      34.570 -18.010 -21.043  0.00  0.00    +0.003 C 
ATOM     14  C   UNL     1      34.694 -15.774 -22.041  0.00  0.00    +0.053 A 
ATOM     15  C   UNL     1      34.894 -19.744 -22.824  0.00  0.00    +0.002 C 
ATOM     16  C   UNL     1      35.052 -18.831 -23.890  0.00  0.00    +0.021 C 
ATOM     17  C   UNL     1      34.498 -14.822 -20.935  0.00  0.00    +0.051 C 
ATOM     18  H   UNL     1      34.922 -14.409 -23.578  0.00  0.00    +0.189 HD
ENDBRANCH   4  11
ENDBRANCH   1   3
BRANCH   1  19
ATOM     19  C   UNL     1      36.676 -22.216 -16.883  0.00  0.00    +0.184 C 
BRANCH  19  20
ATOM     20  C   UNL     1      36.085 -23.323 -16.000  0.00  0.00    -0.017 C 
BRANCH  20  21
ATOM     21  N   UNL     1      37.181 -24.168 -15.511  0.00  0.00    +0.384 N 
ATOM     22  H   UNL     1      37.221 -24.118 -14.493  0.00  0.00    -0.089 HD
ATOM     23  H   UNL     1      38.064 -23.840 -15.903  0.00  0.00    -0.089 HD
ATOM     24  H   UNL     1      37.019 -25.133 -15.798  0.00  0.00    -0.089 HD
ENDBRANCH  20  21
BRANCH  20  25
ATOM     25  C   UNL     1      35.271 -22.786 -14.793  0.00  0.00    +0.009 C 
BRANCH  25  27
ATOM     26  N   UNL     1      33.364 -25.356 -13.034  0.00  0.00    -0.312 N 
ATOM     27  C   UNL     1      34.285 -23.742 -14.247  0.00  0.00    -0.008 C 
ATOM     28  C   UNL     1      32.927 -23.880 -14.648  0.00  0.00    +0.011 C 
ATOM     29  C   UNL     1      32.372 -24.899 -13.872  0.00  0.00    +0.048 C 
ATOM     30  C   UNL     1      34.525 -24.664 -13.254  0.00  0.00    +0.058 C 
ATOM     31  C   UNL     1      32.114 -23.232 -15.599  0.00  0.00    +0.001 C 
ATOM     32  C   UNL     1      31.038 -25.305 -14.000  0.00  0.00    +0.015 C 
ATOM     33  C   UNL     1      30.778 -23.628 -15.738  0.00  0.00    +0.000 C 
ATOM     34  C   UNL     1      30.251 -24.648 -14.950  0.00  0.00    +0.001 C 
ATOM     35  H   UNL     1      33.255 -26.078 -12.374  0.00  0.00    +0.152 HD
ENDBRANCH  25  27
ENDBRANCH  20  25
ENDBRANCH  19  20
ENDBRANCH   1  19
TORSDOF 7
ENDMDL
MODEL 2
REMARK VINA RESULT:     -11.7      1.927      3.575
REMARK  Name = 10172943
REMARK  7 active torsions:
REMARK  status: ('A' for Active; 'I' for Inactive)
REMARK    1  A    between atoms: O_1  and  C_3
REMARK    2  A    between atoms: O_1  and  C_19
REMARK    3  A    between atoms: C_4  and  C_11
REMARK    4  A    between atoms: C_19  and  C_20
REMARK    5  A    between atoms: C_20  and  N_21
REMARK    6  A    between atoms: C_20  and  C_25
REMARK    7  A    between atoms: C_25  and  C_27
REMARK                            x       y       z     vdW  Elec       q    Type
REMARK                         _______ _______ _______ _____ _____    ______ ____
ROOT
ATOM      1  O   UNL     1      33.163 -22.595 -18.772  0.00  0.00    -0.476 OA
ENDROOT
BRANCH   1   3
ATOM      2  N   UNL     1      36.603 -21.454 -19.149  0.00  0.00    -0.239 NA
ATOM      3  C   UNL     1      34.236 -21.870 -19.221  0.00  0.00    +0.158 C 
ATOM      4  C   UNL     1      35.171 -20.152 -20.597  0.00  0.00    +0.022 C 
ATOM      5  C   UNL     1      34.063 -20.868 -20.159  0.00  0.00    +0.040 C 
ATOM      6  C   UNL     1      35.503 -22.129 -18.747  0.00  0.00    +0.136 C 
ATOM      7  C   UNL     1      36.408 -20.479 -20.066  0.00  0.00    +0.099 C 
BRANCH   4  11
ATOM      8  N   UNL     1      34.543 -15.091 -23.360  0.00  0.00    -0.280 N 
ATOM      9  N   UNL     1      34.650 -16.060 -24.292  0.00  0.00    -0.173 NA
ATOM     10  C   UNL     1      34.767 -16.883 -22.178  0.00  0.00    +0.032 A 
ATOM     11  C   UNL     1      35.036 -19.098 -21.576  0.00  0.00    +0.002 C 
ATOM     12  C   UNL     1      34.792 -17.195 -23.587  0.00  0.00    +0.102 A 
ATOM     13  C   UNL     1      34.882 -17.772 -21.117  0.00  0.00    +0.003 C 
ATOM     14  C   UNL     1      34.607 -15.530 -22.070  0.00  0.00    +0.053 A 
ATOM     15  C   UNL     1      35.067 -19.454 -22.966  0.00  0.00    +0.002 C 
ATOM     16  C   UNL     1      34.946 -18.524 -24.022  0.00  0.00    +0.021 C 
ATOM     17  C   UNL     1      34.509 -14.609 -20.926  0.00  0.00    +0.051 C 
ATOM     18  H   UNL     1      34.428 -14.142 -23.592  0.00  0.00    +0.189 HD
ENDBRANCH   4  11
ENDBRANCH   1   3
BRANCH   1  19
ATOM     19  C   UNL     1      33.440 -23.652 -17.863  0.00  0.00    +0.184 C 
BRANCH  19  20
ATOM     20  C   UNL     1      33.106 -23.263 -16.417  0.00  0.00    -0.017 C 
BRANCH  20  21
ATOM     21  N   UNL     1      31.647 -23.249 -16.259  0.00  0.00    +0.384 N 
ATOM     22  H   UNL     1      31.255 -24.107 -16.647  0.00  0.00    -0.089 HD
ATOM     23  H   UNL     1      31.260 -22.445 -16.752  0.00  0.00    -0.089 HD
ATOM     24  H   UNL     1      31.413 -23.185 -15.269  0.00  0.00    -0.089 HD
ENDBRANCH  20  21
BRANCH  20  25
ATOM     25  C   UNL     1      33.729 -24.213 -15.359  0.00  0.00    +0.009 C 
BRANCH  25  27
ATOM     26  N   UNL     1      37.137 -23.002 -14.853  0.00  0.00    -0.312 N 
ATOM     27  C   UNL     1      35.171 -23.997 -15.118  0.00  0.00    -0.008 C 
ATOM     28  C   UNL     1      36.145 -25.000 -14.852  0.00  0.00    +0.011 C 
ATOM     29  C   UNL     1      37.370 -24.349 -14.690  0.00  0.00    +0.048 C 
ATOM     30  C   UNL     1      35.811 -22.779 -15.113  0.00  0.00    +0.058 C 
ATOM     31  C   UNL     1      36.101 -26.403 -14.732  0.00  0.00    +0.001 C 
ATOM     32  C   UNL     1      38.558 -25.035 -14.413  0.00  0.00    +0.015 C 
ATOM     33  C   UNL     1      37.282 -27.102 -14.456  0.00  0.00    +0.000 C 
ATOM     34  C   UNL     1      38.491 -26.426 -14.299  0.00  0.00    +0.001 C 
ATOM     35  H   UNL     1      37.825 -22.301 -14.793  0.00  0.00    +0.152 HD
ENDBRANCH  25  27
ENDBRANCH  20  25
ENDBRANCH  19  20
ENDBRANCH   1  19
TORSDOF 7
ENDMDL
MODEL 3
REMARK VINA RESULT:     -11.7      3.228      6.554
REMARK  Name = 10172943
REMARK  7 active torsions:
REMARK  status: ('A' for Active; 'I' for Inactive)
REMARK    1  A    between atoms: O_1  and  C_3
REMARK    2  A    between atoms: O_1  and  C_19
REMARK    3  A    between atoms: C_4  and  C_11
REMARK    4  A    between atoms: C_19  and  C_20
REMARK    5  A    between atoms: C_20  and  N_21
REMARK    6  A    between atoms: C_20  and  C_25
REMARK    7  A    between atoms: C_25  and  C_27
REMARK                            x       y       z     vdW  Elec       q    Type
REMARK                         _______ _______ _______ _____ _____    ______ ____
ROOT
ATOM      1  O   UNL     1      35.679 -17.620 -22.551  0.00  0.00    -0.476 OA
ENDROOT
BRANCH   1   3
ATOM      2  N   UNL     1      33.943 -16.431 -25.526  0.00  0.00    -0.239 NA
ATOM      3  C   UNL     1      34.993 -16.782 -23.391  0.00  0.00    +0.158 C 
ATOM      4  C   UNL     1      33.965 -14.676 -23.863  0.00  0.00    +0.022 C 
ATOM      5  C   UNL     1      34.662 -15.501 -22.990  0.00  0.00    +0.040 C 
ATOM      6  C   UNL     1      34.621 -17.205 -24.649  0.00  0.00    +0.136 C 
ATOM      7  C   UNL     1      33.632 -15.182 -25.110  0.00  0.00    +0.099 C 
BRANCH   4  11
ATOM      8  N   UNL     1      31.721  -9.960 -21.342  0.00  0.00    -0.280 N 
ATOM      9  N   UNL     1      32.514  -9.550 -22.353  0.00  0.00    -0.173 NA
ATOM     10  C   UNL     1      32.465 -11.813 -22.161  0.00  0.00    +0.032 A 
ATOM     11  C   UNL     1      33.598 -13.331 -23.485  0.00  0.00    +0.002 C 
ATOM     12  C   UNL     1      32.996 -10.684 -22.888  0.00  0.00    +0.102 A 
ATOM     13  C   UNL     1      32.715 -13.159 -22.396  0.00  0.00    +0.003 C 
ATOM     14  C   UNL     1      31.655 -11.312 -21.181  0.00  0.00    +0.053 A 
ATOM     15  C   UNL     1      34.150 -12.240 -24.235  0.00  0.00    +0.002 C 
ATOM     16  C   UNL     1      33.874 -10.880 -23.970  0.00  0.00    +0.021 C 
ATOM     17  C   UNL     1      30.838 -11.934 -20.126  0.00  0.00    +0.051 C 
ATOM     18  H   UNL     1      31.228  -9.332 -20.766  0.00  0.00    +0.189 HD
ENDBRANCH   4  11
ENDBRANCH   1   3
BRANCH   1  19
ATOM     19  C   UNL     1      34.974 -18.108 -21.417  0.00  0.00    +0.184 C 
BRANCH  19  20
ATOM     20  C   UNL     1      34.715 -19.617 -21.512  0.00  0.00    -0.017 C 
BRANCH  20  21
ATOM     21  N   UNL     1      34.967 -20.051 -22.891  0.00  0.00    +0.384 N 
ATOM     22  H   UNL     1      34.433 -20.899 -23.084  0.00  0.00    -0.089 HD
ATOM     23  H   UNL     1      35.962 -20.240 -23.011  0.00  0.00    -0.089 HD
ATOM     24  H   UNL     1      34.681 -19.314 -23.536  0.00  0.00    -0.089 HD
ENDBRANCH  20  21
BRANCH  20  25
ATOM     25  C   UNL     1      35.584 -20.459 -20.540  0.00  0.00    +0.009 C 
BRANCH  25  27
ATOM     26  N   UNL     1      33.147 -22.470 -18.710  0.00  0.00    -0.312 N 
ATOM     27  C   UNL     1      34.813 -21.321 -19.621  0.00  0.00    -0.008 C 
ATOM     28  C   UNL     1      35.297 -21.943 -18.436  0.00  0.00    +0.011 C 
ATOM     29  C   UNL     1      34.232 -22.657 -17.884  0.00  0.00    +0.048 C 
ATOM     30  C   UNL     1      33.487 -21.663 -19.762  0.00  0.00    +0.058 C 
ATOM     31  C   UNL     1      36.543 -21.967 -17.779  0.00  0.00    +0.001 C 
ATOM     32  C   UNL     1      34.351 -23.398 -16.702  0.00  0.00    +0.015 C 
ATOM     33  C   UNL     1      36.677 -22.704 -16.596  0.00  0.00    +0.000 C 
ATOM     34  C   UNL     1      35.597 -23.408 -16.068  0.00  0.00    +0.001 C 
ATOM     35  H   UNL     1      32.254 -22.859 -18.564  0.00  0.00    +0.152 HD
ENDBRANCH  25  27
ENDBRANCH  20  25
ENDBRANCH  19  20
ENDBRANCH   1  19
TORSDOF 7
ENDMDL
MODEL 4
REMARK VINA RESULT:     -11.6      4.472     11.111
REMARK  Name = 10172943
REMARK  7 active torsions:
REMARK  status: ('A' for Active; 'I' for Inactive)
REMARK    1  A    between atoms: O_1  and  C_3
REMARK    2  A    between atoms: O_1  and  C_19
REMARK    3  A    between atoms: C_4  and  C_11
REMARK    4  A    between atoms: C_19  and  C_20
REMARK    5  A    between atoms: C_20  and  N_21
REMARK    6  A    between atoms: C_20  and  C_25
REMARK    7  A    between atoms: C_25  and  C_27
REMARK                            x       y       z     vdW  Elec       q    Type
REMARK                         _______ _______ _______ _____ _____    ______ ____
ROOT
ATOM      1  O   UNL     1      34.234 -13.730 -23.094  0.00  0.00    -0.476 OA
ENDROOT
BRANCH   1   3
ATOM      2  N   UNL     1      34.375 -16.674 -25.237  0.00  0.00    -0.239 NA
ATOM      3  C   UNL     1      34.418 -15.033 -23.480  0.00  0.00    +0.158 C 
ATOM      4  C   UNL     1      34.996 -17.300 -22.986  0.00  0.00    +0.022 C 
ATOM      5  C   UNL     1      34.816 -15.988 -22.563  0.00  0.00    +0.040 C 
ATOM      6  C   UNL     1      34.211 -15.409 -24.790  0.00  0.00    +0.136 C 
ATOM      7  C   UNL     1      34.764 -17.590 -24.321  0.00  0.00    +0.099 C 
BRANCH   4  11
ATOM      8  N   UNL     1      35.253 -21.685 -19.200  0.00  0.00    -0.280 N 
ATOM      9  N   UNL     1      36.513 -21.269 -19.435  0.00  0.00    -0.173 NA
ATOM     10  C   UNL     1      34.979 -20.073 -20.609  0.00  0.00    +0.032 A 
ATOM     11  C   UNL     1      35.411 -18.330 -22.062  0.00  0.00    +0.002 C 
ATOM     12  C   UNL     1      36.379 -20.260 -20.313  0.00  0.00    +0.102 A 
ATOM     13  C   UNL     1      34.417 -19.137 -21.467  0.00  0.00    +0.003 C 
ATOM     14  C   UNL     1      34.289 -21.001 -19.881  0.00  0.00    +0.053 A 
ATOM     15  C   UNL     1      36.813 -18.479 -21.798  0.00  0.00    +0.002 C 
ATOM     16  C   UNL     1      37.353 -19.444 -20.918  0.00  0.00    +0.021 C 
ATOM     17  C   UNL     1      32.859 -21.324 -19.745  0.00  0.00    +0.051 C 
ATOM     18  H   UNL     1      35.044 -22.425 -18.585  0.00  0.00    +0.189 HD
ENDBRANCH   4  11
ENDBRANCH   1   3
BRANCH   1  19
ATOM     19  C   UNL     1      33.834 -12.813 -24.102  0.00  0.00    +0.184 C 
BRANCH  19  20
ATOM     20  C   UNL     1      34.138 -11.362 -23.707  0.00  0.00    -0.017 C 
BRANCH  20  21
ATOM     21  N   UNL     1      35.116 -10.812 -24.654  0.00  0.00    +0.384 N 
ATOM     22  H   UNL     1      35.689 -11.569 -25.027  0.00  0.00    -0.089 HD
ATOM     23  H   UNL     1      35.712 -10.138 -24.173  0.00  0.00    -0.089 HD
ATOM     24  H   UNL     1      34.625 -10.348 -25.417  0.00  0.00    -0.089 HD
ENDBRANCH  20  21
BRANCH  20  25
ATOM     25  C   UNL     1      32.882 -10.450 -23.676  0.00  0.00    +0.009 C 
BRANCH  25  27
ATOM     26  N   UNL     1      32.343  -8.391 -20.709  0.00  0.00    -0.312 N 
ATOM     27  C   UNL     1      32.586  -9.861 -22.354  0.00  0.00    -0.008 C 
ATOM     28  C   UNL     1      32.125 -10.556 -21.201  0.00  0.00    +0.011 C 
ATOM     29  C   UNL     1      31.980  -9.610 -20.184  0.00  0.00    +0.048 C 
ATOM     30  C   UNL     1      32.711  -8.532 -22.021  0.00  0.00    +0.058 C 
ATOM     31  C   UNL     1      31.814 -11.902 -20.925  0.00  0.00    +0.001 C 
ATOM     32  C   UNL     1      31.539  -9.946 -18.898  0.00  0.00    +0.015 C 
ATOM     33  C   UNL     1      31.372 -12.252 -19.644  0.00  0.00    +0.000 C 
ATOM     34  C   UNL     1      31.237 -11.287 -18.648  0.00  0.00    +0.001 C 
ATOM     35  H   UNL     1      32.339  -7.540 -20.214  0.00  0.00    +0.152 HD
ENDBRANCH  25  27
ENDBRANCH  20  25
ENDBRANCH  19  20
ENDBRANCH   1  19
TORSDOF 7
ENDMDL
MODEL 5
REMARK VINA RESULT:     -11.6      2.136     10.228
REMARK  Name = 10172943
REMARK  7 active torsions:
REMARK  status: ('A' for Active; 'I' for Inactive)
REMARK    1  A    between atoms: O_1  and  C_3
REMARK    2  A    between atoms: O_1  and  C_19
REMARK    3  A    between atoms: C_4  and  C_11
REMARK    4  A    between atoms: C_19  and  C_20
REMARK    5  A    between atoms: C_20  and  N_21
REMARK    6  A    between atoms: C_20  and  C_25
REMARK    7  A    between atoms: C_25  and  C_27
REMARK                            x       y       z     vdW  Elec       q    Type
REMARK                         _______ _______ _______ _____ _____    ______ ____
ROOT
ATOM      1  O   UNL     1      36.060 -21.127 -19.446  0.00  0.00    -0.476 OA
ENDROOT
BRANCH   1   3
ATOM      2  N   UNL     1      32.930 -22.775 -18.571  0.00  0.00    -0.239 NA
ATOM      3  C   UNL     1      35.149 -21.864 -18.734  0.00  0.00    +0.158 C 
ATOM      4  C   UNL     1      34.550 -23.167 -16.820  0.00  0.00    +0.022 C 
ATOM      5  C   UNL     1      35.495 -22.424 -17.518  0.00  0.00    +0.040 C 
ATOM      6  C   UNL     1      33.875 -22.059 -19.221  0.00  0.00    +0.136 C 
ATOM      7  C   UNL     1      33.292 -23.311 -17.384  0.00  0.00    +0.099 C 
BRANCH   4  11
ATOM      8  N   UNL     1      37.136 -25.709 -12.294  0.00  0.00    -0.280 N 
ATOM      9  N   UNL     1      35.847 -25.489 -11.964  0.00  0.00    -0.173 NA
ATOM     10  C   UNL     1      36.331 -24.772 -14.064  0.00  0.00    +0.032 A 
ATOM     11  C   UNL     1      34.869 -23.770 -15.547  0.00  0.00    +0.002 C 
ATOM     12  C   UNL     1      35.313 -24.904 -13.049  0.00  0.00    +0.102 A 
ATOM     13  C   UNL     1      36.190 -24.220 -15.331  0.00  0.00    +0.003 C 
ATOM     14  C   UNL     1      37.482 -25.297 -13.547  0.00  0.00    +0.053 A 
ATOM     15  C   UNL     1      33.827 -23.880 -14.568  0.00  0.00    +0.002 C 
ATOM     16  C   UNL     1      34.003 -24.448 -13.286  0.00  0.00    +0.021 C 
ATOM     17  C   UNL     1      38.848 -25.457 -14.073  0.00  0.00    +0.051 C 
ATOM     18  H   UNL     1      37.776 -26.134 -11.679  0.00  0.00    +0.189 HD
ENDBRANCH   4  11
ENDBRANCH   1   3
BRANCH   1  19
ATOM     19  C   UNL     1      35.596 -20.516 -20.642  0.00  0.00    +0.184 C 
BRANCH  19  20
ATOM     20  C   UNL     1      36.113 -19.079 -20.786  0.00  0.00    -0.017 C 
BRANCH  20  21
ATOM     21  N   UNL     1      37.556 -19.070 -20.516  0.00  0.00    +0.384 N 
ATOM     22  H   UNL     1      38.002 -19.828 -21.032  0.00  0.00    -0.089 HD
ATOM     23  H   UNL     1      37.715 -19.196 -19.517  0.00  0.00    -0.089 HD
ATOM     24  H   UNL     1      37.951 -18.178 -20.813  0.00  0.00    -0.089 HD
ENDBRANCH  20  21
BRANCH  20  25
ATOM     25  C   UNL     1      35.846 -18.460 -22.184  0.00  0.00    +0.009 C 
BRANCH  25  27
ATOM     26  N   UNL     1      34.141 -15.323 -21.417  0.00  0.00    -0.312 N 
ATOM     27  C   UNL     1      35.119 -17.174 -22.155  0.00  0.00    -0.008 C 
ATOM     28  C   UNL     1      34.603 -16.467 -23.276  0.00  0.00    +0.011 C 
ATOM     29  C   UNL     1      33.994 -15.310 -22.786  0.00  0.00    +0.048 C 
ATOM     30  C   UNL     1      34.819 -16.447 -21.026  0.00  0.00    +0.058 C 
ATOM     31  C   UNL     1      34.595 -16.701 -24.665  0.00  0.00    +0.001 C 
ATOM     32  C   UNL     1      33.376 -14.370 -23.620  0.00  0.00    +0.015 C 
ATOM     33  C   UNL     1      33.981 -15.770 -25.511  0.00  0.00    +0.000 C 
ATOM     34  C   UNL     1      33.381 -14.623 -24.994  0.00  0.00    +0.001 C 
ATOM     35  H   UNL     1      33.806 -14.626 -20.808  0.00  0.00    +0.152 HD
ENDBRANCH  25  27
ENDBRANCH  20  25
ENDBRANCH  19  20
ENDBRANCH   1  19
TORSDOF 7
ENDMDL
MODEL 6
REMARK VINA RESULT:     -11.5      1.663      2.470
REMARK  Name = 10172943
REMARK  7 active torsions:
REMARK  status: ('A' for Active; 'I' for Inactive)
REMARK    1  A    between atoms: O_1  and  C_3
REMARK    2  A    between atoms: O_1  and  C_19
REMARK    3  A    between atoms: C_4  and  C_11
REMARK    4  A    between atoms: C_19  and  C_20
REMARK    5  A    between atoms: C_20  and  N_21
REMARK    6  A    between atoms: C_20  and  C_25
REMARK    7  A    between atoms: C_25  and  C_27
REMARK                            x       y       z     vdW  Elec       q    Type
REMARK                         _______ _______ _______ _____ _____    ______ ____
ROOT
ATOM      1  O   UNL     1      34.204 -21.845 -20.034  0.00  0.00    -0.476 OA
ENDROOT
BRANCH   1   3
ATOM      2  N   UNL     1      37.246 -19.841 -20.138  0.00  0.00    -0.239 NA
ATOM      3  C   UNL     1      35.047 -20.800 -20.308  0.00  0.00    +0.158 C 
ATOM      4  C   UNL     1      35.471 -18.651 -21.269  0.00  0.00    +0.022 C 
ATOM      5  C   UNL     1      34.592 -19.694 -21.003  0.00  0.00    +0.040 C 
ATOM      6  C   UNL     1      36.362 -20.836 -19.899  0.00  0.00    +0.136 C 
ATOM      7  C   UNL     1      36.776 -18.771 -20.818  0.00  0.00    +0.099 C 
BRANCH   4  11
ATOM      8  N   UNL     1      33.265 -13.534 -22.877  0.00  0.00    -0.280 N 
ATOM      9  N   UNL     1      33.782 -14.124 -23.974  0.00  0.00    -0.173 NA
ATOM     10  C   UNL     1      34.033 -15.401 -22.112  0.00  0.00    +0.032 A 
ATOM     11  C   UNL     1      35.038 -17.478 -21.992  0.00  0.00    +0.002 C 
ATOM     12  C   UNL     1      34.271 -15.295 -23.531  0.00  0.00    +0.102 A 
ATOM     13  C   UNL     1      34.383 -16.453 -21.275  0.00  0.00    +0.003 C 
ATOM     14  C   UNL     1      33.388 -14.258 -21.728  0.00  0.00    +0.053 A 
ATOM     15  C   UNL     1      35.296 -17.416 -23.402  0.00  0.00    +0.002 C 
ATOM     16  C   UNL     1      34.927 -16.329 -24.225  0.00  0.00    +0.021 C 
ATOM     17  C   UNL     1      32.881 -13.766 -20.436  0.00  0.00    +0.051 C 
ATOM     18  H   UNL     1      32.832 -12.651 -22.904  0.00  0.00    +0.189 HD
ENDBRANCH   4  11
ENDBRANCH   1   3
BRANCH   1  19
ATOM     19  C   UNL     1      33.492 -21.788 -18.805  0.00  0.00    +0.184 C 
BRANCH  19  20
ATOM     20  C   UNL     1      33.574 -23.113 -18.036  0.00  0.00    -0.017 C 
BRANCH  20  21
ATOM     21  N   UNL     1      33.949 -24.178 -18.974  0.00  0.00    +0.384 N 
ATOM     22  H   UNL     1      34.879 -23.990 -19.347  0.00  0.00    -0.089 HD
ATOM     23  H   UNL     1      33.275 -24.209 -19.739  0.00  0.00    -0.089 HD
ATOM     24  H   UNL     1      33.952 -25.074 -18.487  0.00  0.00    -0.089 HD
ENDBRANCH  20  21
BRANCH  20  25
ATOM     25  C   UNL     1      34.585 -23.086 -16.858  0.00  0.00    +0.009 C 
BRANCH  25  27
ATOM     26  N   UNL     1      34.244 -25.307 -13.980  0.00  0.00    -0.312 N 
ATOM     27  C   UNL     1      34.179 -23.889 -15.686  0.00  0.00    -0.008 C 
ATOM     28  C   UNL     1      32.896 -23.905 -15.072  0.00  0.00    +0.011 C 
ATOM     29  C   UNL     1      32.963 -24.803 -14.005  0.00  0.00    +0.048 C 
ATOM     30  C   UNL     1      34.986 -24.762 -14.993  0.00  0.00    +0.058 C 
ATOM     31  C   UNL     1      31.680 -23.239 -15.323  0.00  0.00    +0.001 C 
ATOM     32  C   UNL     1      31.870 -25.069 -13.172  0.00  0.00    +0.015 C 
ATOM     33  C   UNL     1      30.578 -23.495 -14.498  0.00  0.00    +0.000 C 
ATOM     34  C   UNL     1      30.675 -24.396 -13.439  0.00  0.00    +0.001 C 
ATOM     35  H   UNL     1      34.577 -25.966 -13.329  0.00  0.00    +0.152 HD
ENDBRANCH  25  27
ENDBRANCH  20  25
ENDBRANCH  19  20
ENDBRANCH   1  19
TORSDOF 7
ENDMDL
MODEL 7
REMARK VINA RESULT:     -11.5      2.038      9.910
REMARK  Name = 10172943
REMARK  7 active torsions:
REMARK  status: ('A' for Active; 'I' for Inactive)
REMARK    1  A    between atoms: O_1  and  C_3
REMARK    2  A    between atoms: O_1  and  C_19
REMARK    3  A    between atoms: C_4  and  C_11
REMARK    4  A    between atoms: C_19  and  C_20
REMARK    5  A    between atoms: C_20  and  N_21
REMARK    6  A    between atoms: C_20  and  C_25
REMARK    7  A    between atoms: C_25  and  C_27
REMARK                            x       y       z     vdW  Elec       q    Type
REMARK                         _______ _______ _______ _____ _____    ______ ____
ROOT
ATOM      1  O   UNL     1      32.895 -22.739 -18.638  0.00  0.00    -0.476 OA
ENDROOT
BRANCH   1   3
ATOM      2  N   UNL     1      31.623 -23.530 -15.316  0.00  0.00    -0.239 NA
ATOM      3  C   UNL     1      32.889 -23.076 -17.309  0.00  0.00    +0.158 C 
ATOM      4  C   UNL     1      34.038 -23.642 -15.290  0.00  0.00    +0.022 C 
ATOM      5  C   UNL     1      34.076 -23.299 -16.636  0.00  0.00    +0.040 C 
ATOM      6  C   UNL     1      31.700 -23.199 -16.624  0.00  0.00    +0.136 C 
ATOM      7  C   UNL     1      32.797 -23.742 -14.680  0.00  0.00    +0.099 C 
BRANCH   4  11
ATOM      8  N   UNL     1      38.016 -24.666 -11.197  0.00  0.00    -0.280 N 
ATOM      9  N   UNL     1      38.655 -24.578 -12.380  0.00  0.00    -0.173 NA
ATOM     10  C   UNL     1      36.412 -24.288 -12.590  0.00  0.00    +0.032 A 
ATOM     11  C   UNL     1      35.253 -23.885 -14.548  0.00  0.00    +0.002 C 
ATOM     12  C   UNL     1      37.681 -24.342 -13.276  0.00  0.00    +0.102 A 
ATOM     13  C   UNL     1      35.161 -24.066 -13.151  0.00  0.00    +0.003 C 
ATOM     14  C   UNL     1      36.664 -24.500 -11.264  0.00  0.00    +0.053 A 
ATOM     15  C   UNL     1      36.492 -23.930 -15.271  0.00  0.00    +0.002 C 
ATOM     16  C   UNL     1      37.749 -24.158 -14.669  0.00  0.00    +0.021 C 
ATOM     17  C   UNL     1      35.808 -24.566 -10.068  0.00  0.00    +0.051 C 
ATOM     18  H   UNL     1      38.489 -24.837 -10.350  0.00  0.00    +0.189 HD
ENDBRANCH   4  11
ENDBRANCH   1   3
BRANCH   1  19
ATOM     19  C   UNL     1      34.114 -22.234 -19.166  0.00  0.00    +0.184 C 
BRANCH  19  20
ATOM     20  C   UNL     1      33.871 -21.196 -20.270  0.00  0.00    -0.017 C 
BRANCH  20  21
ATOM     21  N   UNL     1      32.616 -20.490 -19.982  0.00  0.00    +0.384 N 
ATOM     22  H   UNL     1      31.849 -20.945 -20.479  0.00  0.00    -0.089 HD
ATOM     23  H   UNL     1      32.694 -19.521 -20.289  0.00  0.00    -0.089 HD
ATOM     24  H   UNL     1      32.435 -20.516 -18.979  0.00  0.00    -0.089 HD
ENDBRANCH  20  21
BRANCH  20  25
ATOM     25  C   UNL     1      35.020 -20.164 -20.416  0.00  0.00    +0.009 C 
BRANCH  25  27
ATOM     26  N   UNL     1      34.952 -18.802 -23.803  0.00  0.00    -0.312 N 
ATOM     27  C   UNL     1      34.967 -19.362 -21.656  0.00  0.00    -0.008 C 
ATOM     28  C   UNL     1      34.842 -17.948 -21.745  0.00  0.00    +0.011 C 
ATOM     29  C   UNL     1      34.834 -17.622 -23.104  0.00  0.00    +0.048 C 
ATOM     30  C   UNL     1      35.034 -19.859 -22.937  0.00  0.00    +0.058 C 
ATOM     31  C   UNL     1      34.732 -16.910 -20.799  0.00  0.00    +0.001 C 
ATOM     32  C   UNL     1      34.722 -16.305 -23.564  0.00  0.00    +0.015 C 
ATOM     33  C   UNL     1      34.619 -15.588 -21.245  0.00  0.00    +0.000 C 
ATOM     34  C   UNL     1      34.614 -15.292 -22.607  0.00  0.00    +0.001 C 
ATOM     35  H   UNL     1      34.975 -18.874 -24.785  0.00  0.00    +0.152 HD
ENDBRANCH  25  27
ENDBRANCH  20  25
ENDBRANCH  19  20
ENDBRANCH   1  19
TORSDOF 7
ENDMDL
MODEL 8
REMARK VINA RESULT:     -11.4      1.377     10.032
REMARK  Name = 10172943
REMARK  7 active torsions:
REMARK  status: ('A' for Active; 'I' for Inactive)
REMARK    1  A    between atoms: O_1  and  C_3
REMARK    2  A    between atoms: O_1  and  C_19
REMARK    3  A    between atoms: C_4  and  C_11
REMARK    4  A    between atoms: C_19  and  C_20
REMARK    5  A    between atoms: C_20  and  N_21
REMARK    6  A    between atoms: C_20  and  C_25
REMARK    7  A    between atoms: C_25  and  C_27
REMARK                            x       y       z     vdW  Elec       q    Type
REMARK                         _______ _______ _______ _____ _____    ______ ____
ROOT
ATOM      1  O   UNL     1      35.270 -21.980 -19.603  0.00  0.00    -0.476 OA
ENDROOT
BRANCH   1   3
ATOM      2  N   UNL     1      37.155 -22.232 -16.494  0.00  0.00    -0.239 NA
ATOM      3  C   UNL     1      35.560 -22.267 -18.294  0.00  0.00    +0.158 C 
ATOM      4  C   UNL     1      34.934 -23.124 -16.152  0.00  0.00    +0.022 C 
ATOM      5  C   UNL     1      34.610 -22.847 -17.474  0.00  0.00    +0.040 C 
ATOM      6  C   UNL     1      36.804 -21.978 -17.775  0.00  0.00    +0.136 C 
ATOM      7  C   UNL     1      36.208 -22.801 -15.714  0.00  0.00    +0.099 C 
BRANCH   4  11
ATOM      8  N   UNL     1      30.138 -25.123 -13.576  0.00  0.00    -0.280 N 
ATOM      9  N   UNL     1      31.187 -25.424 -12.785  0.00  0.00    -0.173 NA
ATOM     10  C   UNL     1      31.818 -24.319 -14.668  0.00  0.00    +0.032 A 
ATOM     11  C   UNL     1      33.972 -23.729 -15.260  0.00  0.00    +0.002 C 
ATOM     12  C   UNL     1      32.256 -24.936 -13.438  0.00  0.00    +0.102 A 
ATOM     13  C   UNL     1      32.608 -23.699 -15.626  0.00  0.00    +0.003 C 
ATOM     14  C   UNL     1      30.459 -24.458 -14.723  0.00  0.00    +0.053 A 
ATOM     15  C   UNL     1      34.452 -24.330 -14.049  0.00  0.00    +0.002 C 
ATOM     16  C   UNL     1      33.620 -24.954 -13.094  0.00  0.00    +0.021 C 
ATOM     17  C   UNL     1      29.438 -24.052 -15.703  0.00  0.00    +0.051 C 
ATOM     18  H   UNL     1      29.212 -25.364 -13.344  0.00  0.00    +0.189 HD
ENDBRANCH   4  11
ENDBRANCH   1   3
BRANCH   1  19
ATOM     19  C   UNL     1      36.029 -20.947 -20.217  0.00  0.00    +0.184 C 
BRANCH  19  20
ATOM     20  C   UNL     1      35.144 -20.001 -21.040  0.00  0.00    -0.017 C 
BRANCH  20  21
ATOM     21  N   UNL     1      33.753 -20.156 -20.596  0.00  0.00    +0.384 N 
ATOM     22  H   UNL     1      33.709 -20.854 -19.854  0.00  0.00    -0.089 HD
ATOM     23  H   UNL     1      33.178 -20.458 -21.382  0.00  0.00    -0.089 HD
ATOM     24  H   UNL     1      33.407 -19.263 -20.245  0.00  0.00    -0.089 HD
ENDBRANCH  20  21
BRANCH  20  25
ATOM     25  C   UNL     1      35.557 -18.510 -20.928  0.00  0.00    +0.009 C 
BRANCH  25  27
ATOM     26  N   UNL     1      34.837 -17.047 -24.195  0.00  0.00    -0.312 N 
ATOM     27  C   UNL     1      35.197 -17.686 -22.100  0.00  0.00    -0.008 C 
ATOM     28  C   UNL     1      34.739 -16.339 -22.082  0.00  0.00    +0.011 C 
ATOM     29  C   UNL     1      34.521 -15.962 -23.408  0.00  0.00    +0.048 C 
ATOM     30  C   UNL     1      35.248 -18.094 -23.414  0.00  0.00    +0.058 C 
ATOM     31  C   UNL     1      34.488 -15.402 -21.060  0.00  0.00    +0.001 C 
ATOM     32  C   UNL     1      34.063 -14.689 -23.766  0.00  0.00    +0.015 C 
ATOM     33  C   UNL     1      34.029 -14.125 -21.403  0.00  0.00    +0.000 C 
ATOM     34  C   UNL     1      33.820 -13.776 -22.736  0.00  0.00    +0.001 C 
ATOM     35  H   UNL     1      34.778 -17.066 -25.177  0.00  0.00    +0.152 HD
ENDBRANCH  25  27
ENDBRANCH  20  25
ENDBRANCH  19  20
ENDBRANCH   1  19
TORSDOF 7
ENDMDL
MODEL 9
REMARK VINA RESULT:     -11.4      2.003      9.672
REMARK  Name = 10172943
REMARK  7 active torsions:
REMARK  status: ('A' for Active; 'I' for Inactive)
REMARK    1  A    between atoms: O_1  and  C_3
REMARK    2  A    between atoms: O_1  and  C_19
REMARK    3  A    between atoms: C_4  and  C_11
REMARK    4  A    between atoms: C_19  and  C_20
REMARK    5  A    between atoms: C_20  and  N_21
REMARK    6  A    between atoms: C_20  and  C_25
REMARK    7  A    between atoms: C_25  and  C_27
REMARK                            x       y       z     vdW  Elec       q    Type
REMARK                         _______ _______ _______ _____ _____    ______ ____
ROOT
ATOM      1  O   UNL     1      35.247 -20.565 -20.850  0.00  0.00    -0.476 OA
ENDROOT
BRANCH   1   3
ATOM      2  N   UNL     1      32.818 -22.422 -18.868  0.00  0.00    -0.239 NA
ATOM      3  C   UNL     1      34.722 -21.310 -19.826  0.00  0.00    +0.158 C 
ATOM      4  C   UNL     1      34.955 -22.454 -17.739  0.00  0.00    +0.022 C 
ATOM      5  C   UNL     1      35.515 -21.697 -18.761  0.00  0.00    +0.040 C 
ATOM      6  C   UNL     1      33.397 -21.688 -19.843  0.00  0.00    +0.136 C 
ATOM      7  C   UNL     1      33.613 -22.787 -17.837  0.00  0.00    +0.099 C 
BRANCH   4  11
ATOM      8  N   UNL     1      36.849 -24.521 -12.662  0.00  0.00    -0.280 N 
ATOM      9  N   UNL     1      37.922 -24.110 -13.367  0.00  0.00    -0.173 NA
ATOM     10  C   UNL     1      35.978 -23.791 -14.497  0.00  0.00    +0.032 A 
ATOM     11  C   UNL     1      35.746 -22.880 -16.608  0.00  0.00    +0.002 C 
ATOM     12  C   UNL     1      37.414 -23.647 -14.521  0.00  0.00    +0.102 A 
ATOM     13  C   UNL     1      35.079 -23.434 -15.494  0.00  0.00    +0.003 C 
ATOM     14  C   UNL     1      35.652 -24.352 -13.294  0.00  0.00    +0.053 A 
ATOM     15  C   UNL     1      37.170 -22.718 -16.676  0.00  0.00    +0.002 C 
ATOM     16  C   UNL     1      38.058 -23.092 -15.643  0.00  0.00    +0.021 C 
ATOM     17  C   UNL     1      34.377 -24.747 -12.672  0.00  0.00    +0.051 C 
ATOM     18  H   UNL     1      36.923 -24.911 -11.761  0.00  0.00    +0.189 HD
ENDBRANCH   4  11
ENDBRANCH   1   3
BRANCH   1  19
ATOM     19  C   UNL     1      36.433 -19.834 -20.568  0.00  0.00    +0.184 C 
BRANCH  19  20
ATOM     20  C   UNL     1      36.649 -18.690 -21.568  0.00  0.00    -0.017 C 
BRANCH  20  21
ATOM     21  N   UNL     1      38.035 -18.741 -22.048  0.00  0.00    +0.384 N 
ATOM     22  H   UNL     1      38.475 -17.831 -21.911  0.00  0.00    -0.089 HD
ATOM     23  H   UNL     1      38.042 -18.978 -23.039  0.00  0.00    -0.089 HD
ATOM     24  H   UNL     1      38.549 -19.450 -21.525  0.00  0.00    -0.089 HD
ENDBRANCH  20  21
BRANCH  20  25
ATOM     25  C   UNL     1      35.682 -18.734 -22.781  0.00  0.00    +0.009 C 
BRANCH  25  27
ATOM     26  N   UNL     1      34.350 -15.713 -24.340  0.00  0.00    -0.312 N 
ATOM     27  C   UNL     1      35.097 -17.427 -23.145  0.00  0.00    -0.008 C 
ATOM     28  C   UNL     1      34.619 -16.433 -22.246  0.00  0.00    +0.011 C 
ATOM     29  C   UNL     1      34.156 -15.368 -23.021  0.00  0.00    +0.048 C 
ATOM     30  C   UNL     1      34.919 -16.955 -24.425  0.00  0.00    +0.058 C 
ATOM     31  C   UNL     1      34.534 -16.337 -20.843  0.00  0.00    +0.001 C 
ATOM     32  C   UNL     1      33.611 -14.207 -22.461  0.00  0.00    +0.015 C 
ATOM     33  C   UNL     1      33.992 -15.182 -20.269  0.00  0.00    +0.000 C 
ATOM     34  C   UNL     1      33.537 -14.135 -21.068  0.00  0.00    +0.001 C 
ATOM     35  H   UNL     1      34.116 -15.147 -25.110  0.00  0.00    +0.152 HD
ENDBRANCH  25  27
ENDBRANCH  20  25
ENDBRANCH  19  20
ENDBRANCH   1  19
TORSDOF 7
ENDMDL
