MODEL 1
REMARK VINA RESULT:     -11.1      0.000      0.000
REMARK  Name = 5243
REMARK  7 active torsions:
REMARK  status: ('A' for Active; 'I' for Inactive)
REMARK    1  A    between atoms: C_1  and  C_3
REMARK    2  A    between atoms: C_1  and  C_8
REMARK    3  A    between atoms: C_1  and  C_19
REMARK    4  A    between atoms: C_13  and  O_14
REMARK    5  A    between atoms: O_14  and  S_15
REMARK    6  A    between atoms: C_24  and  O_25
REMARK    7  A    between atoms: O_25  and  S_26
REMARK                            x       y       z     vdW  Elec       q    Type
REMARK                         _______ _______ _______ _____ _____    ______ ____
ROOT
ATOM      1  C   UNL     1      34.842 -23.402 -15.088  0.00  0.00    +0.085 C 
ENDROOT
BRANCH   1   3
ATOM      2  N   UNL     1      33.526 -25.006 -13.842  0.00  0.00    -0.248 NA
ATOM      3  C   UNL     1      33.470 -23.916 -14.599  0.00  0.00    +0.067 C 
ATOM      4  C   UNL     1      32.367 -23.219 -14.985  0.00  0.00    +0.015 C 
ATOM      5  C   UNL     1      31.147 -23.708 -14.528  0.00  0.00    +0.003 C 
ATOM      6  C   UNL     1      32.323 -25.453 -13.418  0.00  0.00    +0.098 C 
ATOM      7  C   UNL     1      31.116 -24.845 -13.729  0.00  0.00    +0.021 C 
ENDBRANCH   1   3
BRANCH   1   8
ATOM      8  C   UNL     1      34.898 -22.968 -16.514  0.00  0.00    -0.013 C 
ATOM      9  C   UNL     1      33.787 -23.141 -17.340  0.00  0.00    -0.000 C 
ATOM     10  C   UNL     1      36.062 -22.389 -17.021  0.00  0.00    -0.000 C 
ATOM     11  C   UNL     1      33.840 -22.735 -18.673  0.00  0.00    +0.040 C 
ATOM     12  C   UNL     1      36.114 -21.983 -18.355  0.00  0.00    +0.040 C 
ATOM     13  C   UNL     1      35.003 -22.157 -19.181  0.00  0.00    +0.176 C 
BRANCH  13  14
ATOM     14  O   UNL     1      35.054 -21.762 -20.482  0.00  0.00    -0.322 OA
BRANCH  14  15
ATOM     15  S   UNL     1      34.801 -20.178 -20.845  0.00  0.00    +0.282 S 
ATOM     16  O   UNL     1      34.827 -20.141 -22.477  0.00  0.00    -0.105 OA
ATOM     17  O   UNL     1      33.468 -19.802 -20.411  0.00  0.00    -0.012 OA
ATOM     18  O   UNL     1      35.954 -19.430 -20.376  0.00  0.00    -0.105 OA
ENDBRANCH  14  15
ENDBRANCH  13  14
ENDBRANCH   1   8
BRANCH   1  19
ATOM     19  C   UNL     1      36.010 -24.301 -14.620  0.00  0.00    -0.013 C 
ATOM     20  C   UNL     1      36.911 -23.774 -13.735  0.00  0.00    -0.000 C 
ATOM     21  C   UNL     1      36.080 -25.574 -15.116  0.00  0.00    -0.000 C 
ATOM     22  C   UNL     1      37.965 -24.585 -13.313  0.00  0.00    +0.040 C 
ATOM     23  C   UNL     1      37.133 -26.385 -14.694  0.00  0.00    +0.040 C 
ATOM     24  C   UNL     1      38.076 -25.891 -13.792  0.00  0.00    +0.176 C 
BRANCH  24  25
ATOM     25  O   UNL     1      39.105 -26.681 -13.380  0.00  0.00    -0.322 OA
BRANCH  25  26
ATOM     26  S   UNL     1      40.621 -26.369 -13.935  0.00  0.00    +0.282 S 
ATOM     27  O   UNL     1      40.467 -26.455 -15.558  0.00  0.00    -0.105 OA
ATOM     28  O   UNL     1      40.978 -25.005 -13.592  0.00  0.00    -0.012 OA
ATOM     29  O   UNL     1      41.476 -27.466 -13.521  0.00  0.00    -0.105 OA
ENDBRANCH  25  26
ENDBRANCH  24  25
ENDBRANCH   1  19
TORSDOF 7
ENDMDL
MODEL 2
REMARK VINA RESULT:     -11.0      2.093      7.446
REMARK  Name = 5243
REMARK  7 active torsions:
REMARK  status: ('A' for Active; 'I' for Inactive)
REMARK    1  A    between atoms: C_1  and  C_3
REMARK    2  A    between atoms: C_1  and  C_8
REMARK    3  A    between atoms: C_1  and  C_19
REMARK    4  A    between atoms: C_13  and  O_14
REMARK    5  A    between atoms: O_14  and  S_15
REMARK    6  A    between atoms: C_24  and  O_25
REMARK    7  A    between atoms: O_25  and  S_26
REMARK                            x       y       z     vdW  Elec       q    Type
REMARK                         _______ _______ _______ _____ _____    ______ ____
ROOT
ATOM      1  C   UNL     1      33.837 -23.657 -16.771  0.00  0.00    +0.085 C 
ENDROOT
BRANCH   1   3
ATOM      2  N   UNL     1      31.426 -23.508 -16.926  0.00  0.00    -0.248 NA
ATOM      3  C   UNL     1      32.465 -23.413 -16.104  0.00  0.00    +0.067 C 
ATOM      4  C   UNL     1      32.458 -23.132 -14.773  0.00  0.00    +0.015 C 
ATOM      5  C   UNL     1      31.208 -22.917 -14.202  0.00  0.00    +0.003 C 
ATOM      6  C   UNL     1      30.228 -23.292 -16.337  0.00  0.00    +0.098 C 
ATOM      7  C   UNL     1      30.067 -22.997 -14.992  0.00  0.00    +0.021 C 
ENDBRANCH   1   3
BRANCH   1   8
ATOM      8  C   UNL     1      34.990 -23.811 -15.838  0.00  0.00    -0.013 C 
ATOM      9  C   UNL     1      35.174 -25.008 -15.147  0.00  0.00    -0.000 C 
ATOM     10  C   UNL     1      35.884 -22.755 -15.657  0.00  0.00    -0.000 C 
ATOM     11  C   UNL     1      36.252 -25.149 -14.274  0.00  0.00    +0.040 C 
ATOM     12  C   UNL     1      36.963 -22.897 -14.783  0.00  0.00    +0.040 C 
ATOM     13  C   UNL     1      37.147 -24.095 -14.092  0.00  0.00    +0.176 C 
BRANCH  13  14
ATOM     14  O   UNL     1      38.198 -24.234 -13.240  0.00  0.00    -0.322 OA
BRANCH  14  15
ATOM     15  S   UNL     1      37.965 -23.959 -11.635  0.00  0.00    +0.282 S 
ATOM     16  O   UNL     1      36.589 -23.083 -11.585  0.00  0.00    -0.105 OA
ATOM     17  O   UNL     1      37.713 -25.225 -10.971  0.00  0.00    -0.012 OA
ATOM     18  O   UNL     1      39.042 -23.101 -11.175  0.00  0.00    -0.105 OA
ENDBRANCH  14  15
ENDBRANCH  13  14
ENDBRANCH   1   8
BRANCH   1  19
ATOM     19  C   UNL     1      34.078 -22.725 -17.981  0.00  0.00    -0.013 C 
ATOM     20  C   UNL     1      33.009 -22.031 -18.480  0.00  0.00    -0.000 C 
ATOM     21  C   UNL     1      35.346 -22.645 -18.488  0.00  0.00    -0.000 C 
ATOM     22  C   UNL     1      33.227 -21.190 -19.572  0.00  0.00    +0.040 C 
ATOM     23  C   UNL     1      35.563 -21.805 -19.580  0.00  0.00    +0.040 C 
ATOM     24  C   UNL     1      34.503 -21.076 -20.122  0.00  0.00    +0.176 C 
BRANCH  24  25
ATOM     25  O   UNL     1      34.715 -20.256 -21.188  0.00  0.00    -0.322 OA
BRANCH  25  26
ATOM     26  S   UNL     1      35.791 -19.022 -21.041  0.00  0.00    +0.282 S 
ATOM     27  O   UNL     1      36.384 -18.840 -22.551  0.00  0.00    -0.105 OA
ATOM     28  O   UNL     1      35.073 -17.809 -20.694  0.00  0.00    -0.012 OA
ATOM     29  O   UNL     1      36.879 -19.484 -20.200  0.00  0.00    -0.105 OA
ENDBRANCH  25  26
ENDBRANCH  24  25
ENDBRANCH   1  19
TORSDOF 7
ENDMDL
MODEL 3
REMARK VINA RESULT:     -10.5      3.576      8.219
REMARK  Name = 5243
REMARK  7 active torsions:
REMARK  status: ('A' for Active; 'I' for Inactive)
REMARK    1  A    between atoms: C_1  and  C_3
REMARK    2  A    between atoms: C_1  and  C_8
REMARK    3  A    between atoms: C_1  and  C_19
REMARK    4  A    between atoms: C_13  and  O_14
REMARK    5  A    between atoms: O_14  and  S_15
REMARK    6  A    between atoms: C_24  and  O_25
REMARK    7  A    between atoms: O_25  and  S_26
REMARK                            x       y       z     vdW  Elec       q    Type
REMARK                         _______ _______ _______ _____ _____    ______ ____
ROOT
ATOM      1  C   UNL     1      35.051 -22.908 -15.932  0.00  0.00    +0.085 C 
ENDROOT
BRANCH   1   3
ATOM      2  N   UNL     1      34.235 -22.372 -18.147  0.00  0.00    -0.248 NA
ATOM      3  C   UNL     1      35.314 -22.415 -17.372  0.00  0.00    +0.067 C 
ATOM      4  C   UNL     1      36.593 -22.082 -17.696  0.00  0.00    +0.015 C 
ATOM      5  C   UNL     1      36.795 -21.643 -19.000  0.00  0.00    +0.003 C 
ATOM      6  C   UNL     1      34.471 -21.942 -19.406  0.00  0.00    +0.098 C 
ATOM      7  C   UNL     1      35.720 -21.568 -19.878  0.00  0.00    +0.021 C 
ENDBRANCH   1   3
BRANCH   1   8
ATOM      8  C   UNL     1      36.064 -23.853 -15.379  0.00  0.00    -0.013 C 
ATOM      9  C   UNL     1      35.738 -25.195 -15.193  0.00  0.00    -0.000 C 
ATOM     10  C   UNL     1      37.339 -23.391 -15.047  0.00  0.00    -0.000 C 
ATOM     11  C   UNL     1      36.685 -26.078 -14.675  0.00  0.00    +0.040 C 
ATOM     12  C   UNL     1      38.287 -24.275 -14.529  0.00  0.00    +0.040 C 
ATOM     13  C   UNL     1      37.959 -25.618 -14.343  0.00  0.00    +0.176 C 
BRANCH  13  14
ATOM     14  O   UNL     1      38.883 -26.480 -13.837  0.00  0.00    -0.322 OA
BRANCH  14  15
ATOM     15  S   UNL     1      40.469 -26.258 -14.212  0.00  0.00    +0.282 S 
ATOM     16  O   UNL     1      41.232 -27.456 -13.407  0.00  0.00    -0.105 OA
ATOM     17  O   UNL     1      40.654 -26.488 -15.633  0.00  0.00    -0.012 OA
ATOM     18  O   UNL     1      40.889 -25.001 -13.620  0.00  0.00    -0.105 OA
ENDBRANCH  14  15
ENDBRANCH  13  14
ENDBRANCH   1   8
BRANCH   1  19
ATOM     19  C   UNL     1      33.575 -23.306 -15.705  0.00  0.00    -0.013 C 
ATOM     20  C   UNL     1      32.902 -23.894 -16.742  0.00  0.00    -0.000 C 
ATOM     21  C   UNL     1      33.020 -23.049 -14.481  0.00  0.00    -0.000 C 
ATOM     22  C   UNL     1      31.569 -24.253 -16.538  0.00  0.00    +0.040 C 
ATOM     23  C   UNL     1      31.688 -23.408 -14.277  0.00  0.00    +0.040 C 
ATOM     24  C   UNL     1      30.962 -24.011 -15.305  0.00  0.00    +0.176 C 
BRANCH  24  25
ATOM     25  O   UNL     1      29.662 -24.361 -15.107  0.00  0.00    -0.322 OA
BRANCH  25  26
ATOM     26  S   UNL     1      28.499 -23.671 -16.044  0.00  0.00    +0.282 S 
ATOM     27  O   UNL     1      27.346 -23.233 -14.975  0.00  0.00    -0.105 OA
ATOM     28  O   UNL     1      29.033 -22.463 -16.645  0.00  0.00    -0.012 OA
ATOM     29  O   UNL     1      27.938 -24.712 -16.886  0.00  0.00    -0.105 OA
ENDBRANCH  25  26
ENDBRANCH  24  25
ENDBRANCH   1  19
TORSDOF 7
ENDMDL
MODEL 4
REMARK VINA RESULT:     -10.5      4.060      6.903
REMARK  Name = 5243
REMARK  7 active torsions:
REMARK  status: ('A' for Active; 'I' for Inactive)
REMARK    1  A    between atoms: C_1  and  C_3
REMARK    2  A    between atoms: C_1  and  C_8
REMARK    3  A    between atoms: C_1  and  C_19
REMARK    4  A    between atoms: C_13  and  O_14
REMARK    5  A    between atoms: O_14  and  S_15
REMARK    6  A    between atoms: C_24  and  O_25
REMARK    7  A    between atoms: O_25  and  S_26
REMARK                            x       y       z     vdW  Elec       q    Type
REMARK                         _______ _______ _______ _____ _____    ______ ____
ROOT
ATOM      1  C   UNL     1      34.772 -23.215 -15.310  0.00  0.00    +0.085 C 
ENDROOT
BRANCH   1   3
ATOM      2  N   UNL     1      36.501 -23.943 -13.780  0.00  0.00    -0.248 NA
ATOM      3  C   UNL     1      35.673 -24.335 -14.743  0.00  0.00    +0.067 C 
ATOM      4  C   UNL     1      35.534 -25.579 -15.274  0.00  0.00    +0.015 C 
ATOM      5  C   UNL     1      36.360 -26.564 -14.742  0.00  0.00    +0.003 C 
ATOM      6  C   UNL     1      37.288 -24.926 -13.288  0.00  0.00    +0.098 C 
ATOM      7  C   UNL     1      37.256 -26.239 -13.730  0.00  0.00    +0.021 C 
ENDBRANCH   1   3
BRANCH   1   8
ATOM      8  C   UNL     1      33.304 -23.468 -15.233  0.00  0.00    -0.013 C 
ATOM      9  C   UNL     1      32.654 -23.434 -14.000  0.00  0.00    -0.000 C 
ATOM     10  C   UNL     1      32.582 -23.739 -16.396  0.00  0.00    -0.000 C 
ATOM     11  C   UNL     1      31.282 -23.671 -13.928  0.00  0.00    +0.040 C 
ATOM     12  C   UNL     1      31.208 -23.976 -16.324  0.00  0.00    +0.040 C 
ATOM     13  C   UNL     1      30.559 -23.942 -15.090  0.00  0.00    +0.176 C 
BRANCH  13  14
ATOM     14  O   UNL     1      29.220 -24.174 -15.019  0.00  0.00    -0.322 OA
BRANCH  14  15
ATOM     15  S   UNL     1      28.235 -23.510 -16.157  0.00  0.00    +0.282 S 
ATOM     16  O   UNL     1      26.901 -23.082 -15.318  0.00  0.00    -0.105 OA
ATOM     17  O   UNL     1      28.851 -22.298 -16.664  0.00  0.00    -0.012 OA
ATOM     18  O   UNL     1      27.849 -24.566 -17.075  0.00  0.00    -0.105 OA
ENDBRANCH  14  15
ENDBRANCH  13  14
ENDBRANCH   1   8
BRANCH   1  19
ATOM     19  C   UNL     1      35.284 -22.675 -16.666  0.00  0.00    -0.013 C 
ATOM     20  C   UNL     1      34.439 -22.732 -17.740  0.00  0.00    -0.000 C 
ATOM     21  C   UNL     1      36.555 -22.171 -16.718  0.00  0.00    -0.000 C 
ATOM     22  C   UNL     1      34.901 -22.245 -18.963  0.00  0.00    +0.040 C 
ATOM     23  C   UNL     1      37.018 -21.684 -17.941  0.00  0.00    +0.040 C 
ATOM     24  C   UNL     1      36.190 -21.721 -19.064  0.00  0.00    +0.176 C 
BRANCH  24  25
ATOM     25  O   UNL     1      36.641 -21.247 -20.257  0.00  0.00    -0.322 OA
BRANCH  25  26
ATOM     26  S   UNL     1      36.570 -19.630 -20.550  0.00  0.00    +0.282 S 
ATOM     27  O   UNL     1      37.042 -19.495 -22.107  0.00  0.00    -0.105 OA
ATOM     28  O   UNL     1      35.188 -19.195 -20.463  0.00  0.00    -0.012 OA
ATOM     29  O   UNL     1      37.583 -18.990 -19.732  0.00  0.00    -0.105 OA
ENDBRANCH  25  26
ENDBRANCH  24  25
ENDBRANCH   1  19
TORSDOF 7
ENDMDL
MODEL 5
REMARK VINA RESULT:     -10.3      4.172      5.722
REMARK  Name = 5243
REMARK  7 active torsions:
REMARK  status: ('A' for Active; 'I' for Inactive)
REMARK    1  A    between atoms: C_1  and  C_3
REMARK    2  A    between atoms: C_1  and  C_8
REMARK    3  A    between atoms: C_1  and  C_19
REMARK    4  A    between atoms: C_13  and  O_14
REMARK    5  A    between atoms: O_14  and  S_15
REMARK    6  A    between atoms: C_24  and  O_25
REMARK    7  A    between atoms: O_25  and  S_26
REMARK                            x       y       z     vdW  Elec       q    Type
REMARK                         _______ _______ _______ _____ _____    ______ ____
ROOT
ATOM      1  C   UNL     1      34.056 -23.581 -16.863  0.00  0.00    +0.085 C 
ENDROOT
BRANCH   1   3
ATOM      2  N   UNL     1      35.801 -22.501 -18.146  0.00  0.00    -0.248 NA
ATOM      3  C   UNL     1      34.487 -22.646 -18.014  0.00  0.00    +0.067 C 
ATOM      4  C   UNL     1      33.502 -22.076 -18.760  0.00  0.00    +0.015 C 
ATOM      5  C   UNL     1      33.923 -21.240 -19.788  0.00  0.00    +0.003 C 
ATOM      6  C   UNL     1      36.173 -21.681 -19.155  0.00  0.00    +0.098 C 
ATOM      7  C   UNL     1      35.282 -21.033 -19.996  0.00  0.00    +0.021 C 
ENDBRANCH   1   3
BRANCH   1   8
ATOM      8  C   UNL     1      32.707 -23.315 -16.286  0.00  0.00    -0.013 C 
ATOM      9  C   UNL     1      31.645 -22.974 -17.123  0.00  0.00    -0.000 C 
ATOM     10  C   UNL     1      32.508 -23.406 -14.908  0.00  0.00    -0.000 C 
ATOM     11  C   UNL     1      30.384 -22.724 -16.583  0.00  0.00    +0.040 C 
ATOM     12  C   UNL     1      31.246 -23.156 -14.368  0.00  0.00    +0.040 C 
ATOM     13  C   UNL     1      30.184 -22.815 -15.206  0.00  0.00    +0.176 C 
BRANCH  13  14
ATOM     14  O   UNL     1      28.953 -22.570 -14.679  0.00  0.00    -0.322 OA
BRANCH  14  15
ATOM     15  S   UNL     1      27.619 -22.966 -15.555  0.00  0.00    +0.282 S 
ATOM     16  O   UNL     1      27.628 -21.895 -16.787  0.00  0.00    -0.105 OA
ATOM     17  O   UNL     1      27.799 -24.292 -16.116  0.00  0.00    -0.012 OA
ATOM     18  O   UNL     1      26.454 -22.677 -14.738  0.00  0.00    -0.105 OA
ENDBRANCH  14  15
ENDBRANCH  13  14
ENDBRANCH   1   8
BRANCH   1  19
ATOM     19  C   UNL     1      35.187 -23.809 -15.834  0.00  0.00    -0.013 C 
ATOM     20  C   UNL     1      36.028 -22.764 -15.561  0.00  0.00    -0.000 C 
ATOM     21  C   UNL     1      35.288 -25.043 -15.251  0.00  0.00    -0.000 C 
ATOM     22  C   UNL     1      37.049 -22.969 -14.633  0.00  0.00    +0.040 C 
ATOM     23  C   UNL     1      36.309 -25.249 -14.323  0.00  0.00    +0.040 C 
ATOM     24  C   UNL     1      37.190 -24.212 -14.014  0.00  0.00    +0.176 C 
BRANCH  24  25
ATOM     25  O   UNL     1      38.186 -24.412 -13.109  0.00  0.00    -0.322 OA
BRANCH  25  26
ATOM     26  S   UNL     1      37.930 -23.999 -11.537  0.00  0.00    +0.282 S 
ATOM     27  O   UNL     1      36.566 -23.105 -11.587  0.00  0.00    -0.105 OA
ATOM     28  O   UNL     1      37.648 -25.201 -10.774  0.00  0.00    -0.012 OA
ATOM     29  O   UNL     1      39.011 -23.121 -11.131  0.00  0.00    -0.105 OA
ENDBRANCH  25  26
ENDBRANCH  24  25
ENDBRANCH   1  19
TORSDOF 7
ENDMDL
MODEL 6
REMARK VINA RESULT:     -10.0      4.247      6.613
REMARK  Name = 5243
REMARK  7 active torsions:
REMARK  status: ('A' for Active; 'I' for Inactive)
REMARK    1  A    between atoms: C_1  and  C_3
REMARK    2  A    between atoms: C_1  and  C_8
REMARK    3  A    between atoms: C_1  and  C_19
REMARK    4  A    between atoms: C_13  and  O_14
REMARK    5  A    between atoms: O_14  and  S_15
REMARK    6  A    between atoms: C_24  and  O_25
REMARK    7  A    between atoms: O_25  and  S_26
REMARK                            x       y       z     vdW  Elec       q    Type
REMARK                         _______ _______ _______ _____ _____    ______ ____
ROOT
ATOM      1  C   UNL     1      34.306 -23.998 -16.268  0.00  0.00    +0.085 C 
ENDROOT
BRANCH   1   3
ATOM      2  N   UNL     1      35.671 -25.524 -14.976  0.00  0.00    -0.248 NA
ATOM      3  C   UNL     1      35.236 -24.271 -15.064  0.00  0.00    +0.067 C 
ATOM      4  C   UNL     1      35.508 -23.229 -14.234  0.00  0.00    +0.015 C 
ATOM      5  C   UNL     1      36.347 -23.508 -13.161  0.00  0.00    +0.003 C 
ATOM      6  C   UNL     1      36.482 -25.758 -13.920  0.00  0.00    +0.098 C 
ATOM      7  C   UNL     1      36.848 -24.795 -12.994  0.00  0.00    +0.021 C 
ENDBRANCH   1   3
BRANCH   1   8
ATOM      8  C   UNL     1      34.861 -23.096 -17.318  0.00  0.00    -0.013 C 
ATOM      9  C   UNL     1      36.093 -22.474 -17.124  0.00  0.00    -0.000 C 
ATOM     10  C   UNL     1      34.145 -22.875 -18.495  0.00  0.00    -0.000 C 
ATOM     11  C   UNL     1      36.610 -21.630 -18.107  0.00  0.00    +0.040 C 
ATOM     12  C   UNL     1      34.663 -22.031 -19.479  0.00  0.00    +0.040 C 
ATOM     13  C   UNL     1      35.896 -21.408 -19.284  0.00  0.00    +0.176 C 
BRANCH  13  14
ATOM     14  O   UNL     1      36.401 -20.585 -20.242  0.00  0.00    -0.322 OA
BRANCH  14  15
ATOM     15  S   UNL     1      35.410 -19.474 -20.941  0.00  0.00    +0.282 S 
ATOM     16  O   UNL     1      35.640 -19.698 -22.541  0.00  0.00    -0.105 OA
ATOM     17  O   UNL     1      34.032 -19.812 -20.636  0.00  0.00    -0.012 OA
ATOM     18  O   UNL     1      35.923 -18.156 -20.610  0.00  0.00    -0.105 OA
ENDBRANCH  14  15
ENDBRANCH  13  14
ENDBRANCH   1   8
BRANCH   1  19
ATOM     19  C   UNL     1      32.852 -23.701 -15.835  0.00  0.00    -0.013 C 
ATOM     20  C   UNL     1      32.489 -24.008 -14.551  0.00  0.00    -0.000 C 
ATOM     21  C   UNL     1      32.007 -23.148 -16.757  0.00  0.00    -0.000 C 
ATOM     22  C   UNL     1      31.177 -23.741 -14.160  0.00  0.00    +0.040 C 
ATOM     23  C   UNL     1      30.694 -22.881 -16.367  0.00  0.00    +0.040 C 
ATOM     24  C   UNL     1      30.279 -23.177 -15.068  0.00  0.00    +0.176 C 
BRANCH  24  25
ATOM     25  O   UNL     1      28.999 -22.917 -14.686  0.00  0.00    -0.322 OA
BRANCH  25  26
ATOM     26  S   UNL     1      27.790 -23.083 -15.788  0.00  0.00    +0.282 S 
ATOM     27  O   UNL     1      26.430 -22.878 -14.909  0.00  0.00    -0.105 OA
ATOM     28  O   UNL     1      27.871 -21.995 -16.745  0.00  0.00    -0.012 OA
ATOM     29  O   UNL     1      27.804 -24.457 -16.253  0.00  0.00    -0.105 OA
ENDBRANCH  25  26
ENDBRANCH  24  25
ENDBRANCH   1  19
TORSDOF 7
ENDMDL
MODEL 7
REMARK VINA RESULT:      -9.7      4.056      7.403
REMARK  Name = 5243
REMARK  7 active torsions:
REMARK  status: ('A' for Active; 'I' for Inactive)
REMARK    1  A    between atoms: C_1  and  C_3
REMARK    2  A    between atoms: C_1  and  C_8
REMARK    3  A    between atoms: C_1  and  C_19
REMARK    4  A    between atoms: C_13  and  O_14
REMARK    5  A    between atoms: O_14  and  S_15
REMARK    6  A    between atoms: C_24  and  O_25
REMARK    7  A    between atoms: O_25  and  S_26
REMARK                            x       y       z     vdW  Elec       q    Type
REMARK                         _______ _______ _______ _____ _____    ______ ____
ROOT
ATOM      1  C   UNL     1      35.366 -23.364 -14.978  0.00  0.00    +0.085 C 
ENDROOT
BRANCH   1   3
ATOM      2  N   UNL     1      36.371 -25.557 -15.176  0.00  0.00    -0.248 NA
ATOM      3  C   UNL     1      36.460 -24.376 -14.571  0.00  0.00    +0.067 C 
ATOM      4  C   UNL     1      37.381 -23.969 -13.657  0.00  0.00    +0.015 C 
ATOM      5  C   UNL     1      38.352 -24.904 -13.313  0.00  0.00    +0.003 C 
ATOM      6  C   UNL     1      37.330 -26.440 -14.815  0.00  0.00    +0.098 C 
ATOM      7  C   UNL     1      38.332 -26.165 -13.898  0.00  0.00    +0.021 C 
ENDBRANCH   1   3
BRANCH   1   8
ATOM      8  C   UNL     1      33.976 -23.717 -14.569  0.00  0.00    -0.013 C 
ATOM      9  C   UNL     1      32.909 -22.901 -14.944  0.00  0.00    -0.000 C 
ATOM     10  C   UNL     1      33.744 -24.865 -13.810  0.00  0.00    -0.000 C 
ATOM     11  C   UNL     1      31.610 -23.232 -14.560  0.00  0.00    +0.040 C 
ATOM     12  C   UNL     1      32.444 -25.196 -13.427  0.00  0.00    +0.040 C 
ATOM     13  C   UNL     1      31.377 -24.379 -13.801  0.00  0.00    +0.176 C 
BRANCH  13  14
ATOM     14  O   UNL     1      30.109 -24.701 -13.427  0.00  0.00    -0.322 OA
BRANCH  14  15
ATOM     15  S   UNL     1      29.084 -25.334 -14.547  0.00  0.00    +0.282 S 
ATOM     16  O   UNL     1      28.129 -24.075 -14.958  0.00  0.00    -0.105 OA
ATOM     17  O   UNL     1      29.846 -25.717 -15.720  0.00  0.00    -0.012 OA
ATOM     18  O   UNL     1      28.247 -26.311 -13.874  0.00  0.00    -0.105 OA
ENDBRANCH  14  15
ENDBRANCH  13  14
ENDBRANCH   1   8
BRANCH   1  19
ATOM     19  C   UNL     1      35.527 -22.875 -16.436  0.00  0.00    -0.013 C 
ATOM     20  C   UNL     1      34.507 -23.125 -17.314  0.00  0.00    -0.000 C 
ATOM     21  C   UNL     1      36.681 -22.220 -16.771  0.00  0.00    -0.000 C 
ATOM     22  C   UNL     1      34.653 -22.685 -18.630  0.00  0.00    +0.040 C 
ATOM     23  C   UNL     1      36.827 -21.780 -18.086  0.00  0.00    +0.040 C 
ATOM     24  C   UNL     1      35.813 -22.012 -19.016  0.00  0.00    +0.176 C 
BRANCH  24  25
ATOM     25  O   UNL     1      35.954 -21.583 -20.300  0.00  0.00    -0.322 OA
BRANCH  25  26
ATOM     26  S   UNL     1      35.241 -20.172 -20.752  0.00  0.00    +0.282 S 
ATOM     27  O   UNL     1      35.206 -20.256 -22.381  0.00  0.00    -0.105 OA
ATOM     28  O   UNL     1      33.870 -20.162 -20.275  0.00  0.00    -0.012 OA
ATOM     29  O   UNL     1      36.139 -19.090 -20.392  0.00  0.00    -0.105 OA
ENDBRANCH  25  26
ENDBRANCH  24  25
ENDBRANCH   1  19
TORSDOF 7
ENDMDL
MODEL 8
REMARK VINA RESULT:      -8.2      9.825     13.089
REMARK  Name = 5243
REMARK  7 active torsions:
REMARK  status: ('A' for Active; 'I' for Inactive)
REMARK    1  A    between atoms: C_1  and  C_3
REMARK    2  A    between atoms: C_1  and  C_8
REMARK    3  A    between atoms: C_1  and  C_19
REMARK    4  A    between atoms: C_13  and  O_14
REMARK    5  A    between atoms: O_14  and  S_15
REMARK    6  A    between atoms: C_24  and  O_25
REMARK    7  A    between atoms: O_25  and  S_26
REMARK                            x       y       z     vdW  Elec       q    Type
REMARK                         _______ _______ _______ _____ _____    ______ ____
ROOT
ATOM      1  C   UNL     1      32.630 -13.789 -22.888  0.00  0.00    +0.085 C 
ENDROOT
BRANCH   1   3
ATOM      2  N   UNL     1      32.558 -14.450 -25.216  0.00  0.00    -0.248 NA
ATOM      3  C   UNL     1      33.036 -13.552 -24.360  0.00  0.00    +0.067 C 
ATOM      4  C   UNL     1      33.824 -12.476 -24.627  0.00  0.00    +0.015 C 
ATOM      5  C   UNL     1      34.172 -12.292 -25.961  0.00  0.00    +0.003 C 
ATOM      6  C   UNL     1      32.917 -14.239 -26.502  0.00  0.00    +0.098 C 
ATOM      7  C   UNL     1      33.713 -13.185 -26.923  0.00  0.00    +0.021 C 
ENDBRANCH   1   3
BRANCH   1   8
ATOM      8  C   UNL     1      32.409 -12.558 -22.075  0.00  0.00    -0.013 C 
ATOM      9  C   UNL     1      32.109 -12.664 -20.717  0.00  0.00    -0.000 C 
ATOM     10  C   UNL     1      32.503 -11.302 -22.674  0.00  0.00    -0.000 C 
ATOM     11  C   UNL     1      31.902 -11.513 -19.958  0.00  0.00    +0.040 C 
ATOM     12  C   UNL     1      32.296 -10.150 -21.913  0.00  0.00    +0.040 C 
ATOM     13  C   UNL     1      31.995 -10.256 -20.555  0.00  0.00    +0.176 C 
BRANCH  13  14
ATOM     14  O   UNL     1      31.793  -9.133 -19.813  0.00  0.00    -0.322 OA
BRANCH  14  15
ATOM     15  S   UNL     1      32.427  -7.708 -20.335  0.00  0.00    +0.282 S 
ATOM     16  O   UNL     1      33.012  -7.020 -18.976  0.00  0.00    -0.105 OA
ATOM     17  O   UNL     1      33.548  -7.984 -21.214  0.00  0.00    -0.012 OA
ATOM     18  O   UNL     1      31.327  -6.882 -20.801  0.00  0.00    -0.105 OA
ENDBRANCH  14  15
ENDBRANCH  13  14
ENDBRANCH   1   8
BRANCH   1  19
ATOM     19  C   UNL     1      33.478 -14.891 -22.212  0.00  0.00    -0.013 C 
ATOM     20  C   UNL     1      34.445 -15.506 -22.960  0.00  0.00    -0.000 C 
ATOM     21  C   UNL     1      33.215 -15.192 -20.904  0.00  0.00    -0.000 C 
ATOM     22  C   UNL     1      35.210 -16.502 -22.351  0.00  0.00    +0.040 C 
ATOM     23  C   UNL     1      33.980 -16.187 -20.295  0.00  0.00    +0.040 C 
ATOM     24  C   UNL     1      34.977 -16.842 -21.018  0.00  0.00    +0.176 C 
BRANCH  24  25
ATOM     25  O   UNL     1      35.724 -17.813 -20.424  0.00  0.00    -0.322 OA
BRANCH  25  26
ATOM     26  S   UNL     1      35.983 -19.223 -21.230  0.00  0.00    +0.282 S 
ATOM     27  O   UNL     1      36.211 -20.316 -20.040  0.00  0.00    -0.105 OA
ATOM     28  O   UNL     1      34.774 -19.587 -21.946  0.00  0.00    -0.012 OA
ATOM     29  O   UNL     1      37.238 -19.095 -21.948  0.00  0.00    -0.105 OA
ENDBRANCH  25  26
ENDBRANCH  24  25
ENDBRANCH   1  19
TORSDOF 7
ENDMDL
