MODEL 1
REMARK VINA RESULT:     -11.9      0.000      0.000
REMARK  Name = 15602701
REMARK  5 active torsions:
REMARK  status: ('A' for Active; 'I' for Inactive)
REMARK    1  A    between atoms: N_5  and  C_12
REMARK    2  A    between atoms: C_6  and  C_22
REMARK    3  A    between atoms: C_13  and  C_21
REMARK    4  A    between atoms: C_22  and  C_23
REMARK    5  A    between atoms: C_23  and  N_24
REMARK                            x       y       z     vdW  Elec       q    Type
REMARK                         _______ _______ _______ _____ _____    ______ ____
ROOT
ATOM      1  S   UNL     1      34.214 -23.532 -16.506  0.00  0.00    -0.056 S 
ATOM      2  O   UNL     1      32.562 -20.783 -19.863  0.00  0.00    -0.252 OA
ATOM      3  N   UNL     1      32.066 -22.571 -17.575  0.00  0.00    -0.223 NA
ATOM      4  N   UNL     1      34.162 -21.900 -18.556  0.00  0.00    -0.248 N 
ATOM      5  N   UNL     1      34.843 -20.547 -20.305  0.00  0.00    -0.268 N 
ATOM      6  C   UNL     1      32.708 -23.969 -15.857  0.00  0.00    +0.031 C 
ATOM      7  C   UNL     1      31.683 -23.385 -16.527  0.00  0.00    +0.103 C 
ATOM      8  C   UNL     1      33.377 -22.573 -17.657  0.00  0.00    +0.166 C 
ATOM      9  C   UNL     1      33.731 -21.046 -19.606  0.00  0.00    +0.310 C 
ATOM     10  H   UNL     1      35.135 -22.023 -18.464  0.00  0.00    +0.158 HD
ATOM     11  H   UNL     1      35.725 -20.847 -19.984  0.00  0.00    +0.156 HD
ENDROOT
BRANCH   5  12
ATOM     12  C   UNL     1      34.853 -19.668 -21.414  0.00  0.00    +0.052 C 
ATOM     13  C   UNL     1      34.756 -17.437 -22.292  0.00  0.00    +0.073 C 
ATOM     14  C   UNL     1      34.745 -18.304 -21.199  0.00  0.00    +0.019 C 
ATOM     15  C   UNL     1      34.973 -20.190 -22.691  0.00  0.00    +0.015 C 
ATOM     16  C   UNL     1      34.875 -17.947 -23.585  0.00  0.00    +0.004 C 
ATOM     17  C   UNL     1      34.983 -19.323 -23.785  0.00  0.00    +0.001 C 
BRANCH  13  21
ATOM     18  F   UNL     1      35.044 -15.559 -20.838  0.00  0.00    -0.166 F 
ATOM     19  F   UNL     1      35.386 -15.227 -22.954  0.00  0.00    -0.166 F 
ATOM     20  F   UNL     1      33.361 -15.513 -22.215  0.00  0.00    -0.166 F 
ATOM     21  C   UNL     1      34.642 -15.965 -22.079  0.00  0.00    +0.419 C 
ENDBRANCH  13  21
ENDBRANCH   5  12
BRANCH   6  22
ATOM     22  C   UNL     1      32.649 -24.907 -14.674  0.00  0.00    +0.056 C 
BRANCH  22  23
ATOM     23  C   UNL     1      33.669 -24.554 -13.592  0.00  0.00    +0.093 C 
BRANCH  23  24
ATOM     24  N   UNL     1      34.917 -25.218 -13.824  0.00  0.00    -0.320 N 
ATOM     25  N   UNL     1      37.665 -26.552 -14.226  0.00  0.00    -0.220 N 
ATOM     26  N   UNL     1      38.972 -26.866 -14.153  0.00  0.00    -0.178 NA
ATOM     27  N   UNL     1      36.132 -23.800 -12.332  0.00  0.00    -0.232 NA
ATOM     28  N   UNL     1      38.523 -24.061 -11.936  0.00  0.00    -0.245 NA
ATOM     29  C   UNL     1      37.307 -25.496 -13.440  0.00  0.00    +0.185 C 
ATOM     30  C   UNL     1      36.116 -24.838 -13.198  0.00  0.00    +0.128 C 
ATOM     31  C   UNL     1      38.473 -25.095 -12.808  0.00  0.00    +0.103 C 
ATOM     32  C   UNL     1      39.461 -25.973 -13.286  0.00  0.00    +0.134 C 
ATOM     33  C   UNL     1      36.811 -27.330 -15.093  0.00  0.00    +0.135 C 
ATOM     34  C   UNL     1      37.318 -23.480 -11.762  0.00  0.00    +0.251 C 
ATOM     35  H   UNL     1      34.935 -25.977 -14.451  0.00  0.00    +0.148 HD
ENDBRANCH  23  24
ENDBRANCH  22  23
ENDBRANCH   6  22
TORSDOF 5
ENDMDL
MODEL 2
REMARK VINA RESULT:     -11.8      5.162     11.522
REMARK  Name = 15602701
REMARK  5 active torsions:
REMARK  status: ('A' for Active; 'I' for Inactive)
REMARK    1  A    between atoms: N_5  and  C_12
REMARK    2  A    between atoms: C_6  and  C_22
REMARK    3  A    between atoms: C_13  and  C_21
REMARK    4  A    between atoms: C_22  and  C_23
REMARK    5  A    between atoms: C_23  and  N_24
REMARK                            x       y       z     vdW  Elec       q    Type
REMARK                         _______ _______ _______ _____ _____    ______ ____
ROOT
ATOM      1  S   UNL     1      36.486 -21.087 -19.574  0.00  0.00    -0.056 S 
ATOM      2  O   UNL     1      35.119 -23.638 -15.943  0.00  0.00    -0.252 OA
ATOM      3  N   UNL     1      34.445 -22.145 -18.392  0.00  0.00    -0.223 NA
ATOM      4  N   UNL     1      36.599 -22.502 -17.372  0.00  0.00    -0.248 N 
ATOM      5  N   UNL     1      37.414 -23.598 -15.504  0.00  0.00    -0.268 N 
ATOM      6  C   UNL     1      34.942 -20.869 -20.248  0.00  0.00    +0.031 C 
ATOM      7  C   UNL     1      33.982 -21.482 -19.512  0.00  0.00    +0.103 C 
ATOM      8  C   UNL     1      35.750 -22.004 -18.324  0.00  0.00    +0.166 C 
ATOM      9  C   UNL     1      36.257 -23.286 -16.237  0.00  0.00    +0.310 C 
ATOM     10  H   UNL     1      37.555 -22.293 -17.485  0.00  0.00    +0.158 HD
ATOM     11  H   UNL     1      38.260 -23.246 -15.862  0.00  0.00    +0.156 HD
ENDROOT
BRANCH   5  12
ATOM     12  C   UNL     1      37.512 -24.357 -14.313  0.00  0.00    +0.052 C 
ATOM     13  C   UNL     1      36.803 -24.781 -12.061  0.00  0.00    +0.073 C 
ATOM     14  C   UNL     1      36.706 -24.032 -13.234  0.00  0.00    +0.019 C 
ATOM     15  C   UNL     1      38.411 -25.408 -14.252  0.00  0.00    +0.015 C 
ATOM     16  C   UNL     1      37.703 -25.843 -11.983  0.00  0.00    +0.004 C 
ATOM     17  C   UNL     1      38.508 -26.156 -13.078  0.00  0.00    +0.001 C 
BRANCH  13  21
ATOM     18  F   UNL     1      35.470 -25.543 -10.226  0.00  0.00    -0.166 F 
ATOM     19  F   UNL     1      36.579 -23.702  -9.938  0.00  0.00    -0.166 F 
ATOM     20  F   UNL     1      34.836 -23.726 -11.238  0.00  0.00    -0.166 F 
ATOM     21  C   UNL     1      35.942 -24.446 -10.889  0.00  0.00    +0.419 C 
ENDBRANCH  13  21
ENDBRANCH   5  12
BRANCH   6  22
ATOM     22  C   UNL     1      34.789 -20.065 -21.517  0.00  0.00    +0.056 C 
BRANCH  22  23
ATOM     23  C   UNL     1      35.768 -18.894 -21.594  0.00  0.00    +0.093 C 
BRANCH  23  24
ATOM     24  N   UNL     1      35.273 -17.865 -22.460  0.00  0.00    -0.320 N 
ATOM     25  N   UNL     1      34.178 -15.571 -24.200  0.00  0.00    -0.220 N 
ATOM     26  N   UNL     1      33.635 -14.413 -24.620  0.00  0.00    -0.178 NA
ATOM     27  N   UNL     1      34.663 -16.419 -20.657  0.00  0.00    -0.232 NA
ATOM     28  N   UNL     1      33.651 -14.231 -21.021  0.00  0.00    -0.245 NA
ATOM     29  C   UNL     1      34.265 -15.680 -22.844  0.00  0.00    +0.185 C 
ATOM     30  C   UNL     1      34.735 -16.657 -21.986  0.00  0.00    +0.128 C 
ATOM     31  C   UNL     1      33.739 -14.500 -22.345  0.00  0.00    +0.103 C 
ATOM     32  C   UNL     1      33.369 -13.761 -23.482  0.00  0.00    +0.134 C 
ATOM     33  C   UNL     1      34.594 -16.540 -25.187  0.00  0.00    +0.135 C 
ATOM     34  C   UNL     1      34.132 -15.237 -20.262  0.00  0.00    +0.251 C 
ATOM     35  H   UNL     1      35.313 -18.011 -23.433  0.00  0.00    +0.148 HD
ENDBRANCH  23  24
ENDBRANCH  22  23
ENDBRANCH   6  22
TORSDOF 5
ENDMDL
MODEL 3
REMARK VINA RESULT:     -11.8      5.158     11.672
REMARK  Name = 15602701
REMARK  5 active torsions:
REMARK  status: ('A' for Active; 'I' for Inactive)
REMARK    1  A    between atoms: N_5  and  C_12
REMARK    2  A    between atoms: C_6  and  C_22
REMARK    3  A    between atoms: C_13  and  C_21
REMARK    4  A    between atoms: C_22  and  C_23
REMARK    5  A    between atoms: C_23  and  N_24
REMARK                            x       y       z     vdW  Elec       q    Type
REMARK                         _______ _______ _______ _____ _____    ______ ____
ROOT
ATOM      1  S   UNL     1      36.467 -21.053 -19.585  0.00  0.00    -0.056 S 
ATOM      2  O   UNL     1      35.114 -23.613 -15.956  0.00  0.00    -0.252 OA
ATOM      3  N   UNL     1      34.431 -22.115 -18.399  0.00  0.00    -0.223 NA
ATOM      4  N   UNL     1      36.588 -22.474 -17.386  0.00  0.00    -0.248 N 
ATOM      5  N   UNL     1      37.409 -23.575 -15.524  0.00  0.00    -0.268 N 
ATOM      6  C   UNL     1      34.922 -20.835 -20.253  0.00  0.00    +0.031 C 
ATOM      7  C   UNL     1      33.964 -21.450 -19.515  0.00  0.00    +0.103 C 
ATOM      8  C   UNL     1      35.736 -21.974 -18.335  0.00  0.00    +0.166 C 
ATOM      9  C   UNL     1      36.250 -23.261 -16.252  0.00  0.00    +0.310 C 
ATOM     10  H   UNL     1      37.544 -22.264 -17.502  0.00  0.00    +0.158 HD
ATOM     11  H   UNL     1      38.255 -23.221 -15.884  0.00  0.00    +0.156 HD
ENDROOT
BRANCH   5  12
ATOM     12  C   UNL     1      37.512 -24.336 -14.335  0.00  0.00    +0.052 C 
ATOM     13  C   UNL     1      36.814 -24.763 -12.080  0.00  0.00    +0.073 C 
ATOM     14  C   UNL     1      36.713 -24.012 -13.251  0.00  0.00    +0.019 C 
ATOM     15  C   UNL     1      38.408 -25.390 -14.281  0.00  0.00    +0.015 C 
ATOM     16  C   UNL     1      37.711 -25.828 -12.009  0.00  0.00    +0.004 C 
ATOM     17  C   UNL     1      38.509 -26.141 -13.110  0.00  0.00    +0.001 C 
BRANCH  13  21
ATOM     18  F   UNL     1      35.501 -25.525 -10.231  0.00  0.00    -0.166 F 
ATOM     19  F   UNL     1      36.601 -23.676  -9.960  0.00  0.00    -0.166 F 
ATOM     20  F   UNL     1      34.848 -23.717 -11.246  0.00  0.00    -0.166 F 
ATOM     21  C   UNL     1      35.961 -24.428 -10.903  0.00  0.00    +0.419 C 
ENDBRANCH  13  21
ENDBRANCH   5  12
BRANCH   6  22
ATOM     22  C   UNL     1      34.764 -20.027 -21.520  0.00  0.00    +0.056 C 
BRANCH  22  23
ATOM     23  C   UNL     1      35.839 -18.951 -21.669  0.00  0.00    +0.093 C 
BRANCH  23  24
ATOM     24  N   UNL     1      35.263 -17.639 -21.630  0.00  0.00    -0.320 N 
ATOM     25  N   UNL     1      34.012 -14.825 -21.694  0.00  0.00    -0.220 N 
ATOM     26  N   UNL     1      33.464 -13.663 -22.097  0.00  0.00    -0.178 NA
ATOM     27  N   UNL     1      34.990 -17.514 -24.001  0.00  0.00    -0.232 NA
ATOM     28  N   UNL     1      34.029 -15.564 -25.105  0.00  0.00    -0.245 NA
ATOM     29  C   UNL     1      34.299 -15.683 -22.715  0.00  0.00    +0.185 C 
ATOM     30  C   UNL     1      34.851 -16.948 -22.782  0.00  0.00    +0.128 C 
ATOM     31  C   UNL     1      33.903 -15.027 -23.870  0.00  0.00    +0.103 C 
ATOM     32  C   UNL     1      33.399 -13.791 -23.427  0.00  0.00    +0.134 C 
ATOM     33  C   UNL     1      34.234 -15.035 -20.283  0.00  0.00    +0.135 C 
ATOM     34  C   UNL     1      34.576 -16.798 -25.073  0.00  0.00    +0.251 C 
ATOM     35  H   UNL     1      35.150 -17.202 -20.755  0.00  0.00    +0.148 HD
ENDBRANCH  23  24
ENDBRANCH  22  23
ENDBRANCH   6  22
TORSDOF 5
ENDMDL
MODEL 4
REMARK VINA RESULT:     -11.4      5.245     11.641
REMARK  Name = 15602701
REMARK  5 active torsions:
REMARK  status: ('A' for Active; 'I' for Inactive)
REMARK    1  A    between atoms: N_5  and  C_12
REMARK    2  A    between atoms: C_6  and  C_22
REMARK    3  A    between atoms: C_13  and  C_21
REMARK    4  A    between atoms: C_22  and  C_23
REMARK    5  A    between atoms: C_23  and  N_24
REMARK                            x       y       z     vdW  Elec       q    Type
REMARK                         _______ _______ _______ _____ _____    ______ ____
ROOT
ATOM      1  S   UNL     1      34.241 -21.432 -20.090  0.00  0.00    -0.056 S 
ATOM      2  O   UNL     1      36.956 -22.508 -16.480  0.00  0.00    -0.252 OA
ATOM      3  N   UNL     1      36.570 -21.075 -19.025  0.00  0.00    -0.223 NA
ATOM      4  N   UNL     1      35.036 -22.501 -17.832  0.00  0.00    -0.248 N 
ATOM      5  N   UNL     1      35.059 -23.726 -15.870  0.00  0.00    -0.268 N 
ATOM      6  C   UNL     1      35.364 -20.437 -20.884  0.00  0.00    +0.031 C 
ATOM      7  C   UNL     1      36.533 -20.353 -20.201  0.00  0.00    +0.103 C 
ATOM      8  C   UNL     1      35.416 -21.684 -18.864  0.00  0.00    +0.166 C 
ATOM      9  C   UNL     1      35.807 -22.875 -16.699  0.00  0.00    +0.310 C 
ATOM     10  H   UNL     1      34.124 -22.872 -17.881  0.00  0.00    +0.158 HD
ATOM     11  H   UNL     1      34.146 -23.935 -16.176  0.00  0.00    +0.156 HD
ENDROOT
BRANCH   5  12
ATOM     12  C   UNL     1      35.454 -24.321 -14.648  0.00  0.00    +0.052 C 
ATOM     13  C   UNL     1      37.089 -25.510 -13.355  0.00  0.00    +0.073 C 
ATOM     14  C   UNL     1      36.699 -24.924 -14.559  0.00  0.00    +0.019 C 
ATOM     15  C   UNL     1      34.590 -24.288 -13.567  0.00  0.00    +0.015 C 
ATOM     16  C   UNL     1      36.230 -25.484 -12.256  0.00  0.00    +0.004 C 
ATOM     17  C   UNL     1      34.980 -24.874 -12.362  0.00  0.00    +0.001 C 
BRANCH  13  21
ATOM     18  F   UNL     1      39.467 -25.333 -13.546  0.00  0.00    -0.166 F 
ATOM     19  F   UNL     1      38.699 -26.629 -11.987  0.00  0.00    -0.166 F 
ATOM     20  F   UNL     1      38.558 -27.237 -14.069  0.00  0.00    -0.166 F 
ATOM     21  C   UNL     1      38.425 -26.162 -13.240  0.00  0.00    +0.419 C 
ENDBRANCH  13  21
ENDBRANCH   5  12
BRANCH   6  22
ATOM     22  C   UNL     1      34.986 -19.782 -22.193  0.00  0.00    +0.056 C 
BRANCH  22  23
ATOM     23  C   UNL     1      35.962 -18.680 -22.603  0.00  0.00    +0.093 C 
BRANCH  23  24
ATOM     24  N   UNL     1      35.267 -17.559 -23.162  0.00  0.00    -0.320 N 
ATOM     25  N   UNL     1      33.759 -15.093 -24.226  0.00  0.00    -0.220 N 
ATOM     26  N   UNL     1      33.090 -13.928 -24.321  0.00  0.00    -0.178 NA
ATOM     27  N   UNL     1      34.915 -16.516 -21.040  0.00  0.00    -0.232 NA
ATOM     28  N   UNL     1      33.741 -14.392 -20.807  0.00  0.00    -0.245 NA
ATOM     29  C   UNL     1      34.093 -15.435 -22.949  0.00  0.00    +0.185 C 
ATOM     30  C   UNL     1      34.760 -16.505 -22.383  0.00  0.00    +0.128 C 
ATOM     31  C   UNL     1      33.604 -14.411 -22.154  0.00  0.00    +0.103 C 
ATOM     32  C   UNL     1      32.998 -13.516 -23.052  0.00  0.00    +0.134 C 
ATOM     33  C   UNL     1      34.041 -15.831 -25.435  0.00  0.00    +0.135 C 
ATOM     34  C   UNL     1      34.403 -15.473 -20.345  0.00  0.00    +0.251 C 
ATOM     35  H   UNL     1      35.139 -17.525 -24.138  0.00  0.00    +0.148 HD
ENDBRANCH  23  24
ENDBRANCH  22  23
ENDBRANCH   6  22
TORSDOF 5
ENDMDL
MODEL 5
REMARK VINA RESULT:     -11.3      5.292     11.881
REMARK  Name = 15602701
REMARK  5 active torsions:
REMARK  status: ('A' for Active; 'I' for Inactive)
REMARK    1  A    between atoms: N_5  and  C_12
REMARK    2  A    between atoms: C_6  and  C_22
REMARK    3  A    between atoms: C_13  and  C_21
REMARK    4  A    between atoms: C_22  and  C_23
REMARK    5  A    between atoms: C_23  and  N_24
REMARK                            x       y       z     vdW  Elec       q    Type
REMARK                         _______ _______ _______ _____ _____    ______ ____
ROOT
ATOM      1  S   UNL     1      34.175 -21.297 -20.240  0.00  0.00    -0.056 S 
ATOM      2  O   UNL     1      36.916 -22.423 -16.665  0.00  0.00    -0.252 OA
ATOM      3  N   UNL     1      36.519 -20.972 -19.198  0.00  0.00    -0.223 NA
ATOM      4  N   UNL     1      34.982 -22.387 -17.997  0.00  0.00    -0.248 N 
ATOM      5  N   UNL     1      35.012 -23.624 -16.041  0.00  0.00    -0.268 N 
ATOM      6  C   UNL     1      35.300 -20.310 -21.041  0.00  0.00    +0.031 C 
ATOM      7  C   UNL     1      36.477 -20.243 -20.370  0.00  0.00    +0.103 C 
ATOM      8  C   UNL     1      35.361 -21.569 -19.028  0.00  0.00    +0.166 C 
ATOM      9  C   UNL     1      35.761 -22.776 -16.874  0.00  0.00    +0.310 C 
ATOM     10  H   UNL     1      34.066 -22.748 -18.038  0.00  0.00    +0.158 HD
ATOM     11  H   UNL     1      34.094 -23.821 -16.339  0.00  0.00    +0.156 HD
ENDROOT
BRANCH   5  12
ATOM     12  C   UNL     1      35.413 -24.230 -14.827  0.00  0.00    +0.052 C 
ATOM     13  C   UNL     1      37.035 -25.470 -13.567  0.00  0.00    +0.073 C 
ATOM     14  C   UNL     1      36.639 -24.873 -14.764  0.00  0.00    +0.019 C 
ATOM     15  C   UNL     1      34.574 -24.166 -13.728  0.00  0.00    +0.015 C 
ATOM     16  C   UNL     1      36.202 -25.415 -12.450  0.00  0.00    +0.004 C 
ATOM     17  C   UNL     1      34.971 -24.763 -12.530  0.00  0.00    +0.001 C 
BRANCH  13  21
ATOM     18  F   UNL     1      38.419 -27.307 -14.230  0.00  0.00    -0.166 F 
ATOM     19  F   UNL     1      39.403 -25.403 -13.899  0.00  0.00    -0.166 F 
ATOM     20  F   UNL     1      38.661 -26.548 -12.206  0.00  0.00    -0.166 F 
ATOM     21  C   UNL     1      38.351 -26.167 -13.480  0.00  0.00    +0.419 C 
ENDBRANCH  13  21
ENDBRANCH   5  12
BRANCH   6  22
ATOM     22  C   UNL     1      34.916 -19.644 -22.341  0.00  0.00    +0.056 C 
BRANCH  22  23
ATOM     23  C   UNL     1      35.824 -18.466 -22.690  0.00  0.00    +0.093 C 
BRANCH  23  24
ATOM     24  N   UNL     1      35.209 -17.220 -22.338  0.00  0.00    -0.320 N 
ATOM     25  N   UNL     1      33.849 -14.524 -21.728  0.00  0.00    -0.220 N 
ATOM     26  N   UNL     1      33.195 -13.352 -21.837  0.00  0.00    -0.178 NA
ATOM     27  N   UNL     1      34.550 -16.730 -24.584  0.00  0.00    -0.232 NA
ATOM     28  N   UNL     1      33.342 -14.697 -25.177  0.00  0.00    -0.245 NA
ATOM     29  C   UNL     1      34.001 -15.183 -22.912  0.00  0.00    +0.185 C 
ATOM     30  C   UNL     1      34.587 -16.381 -23.278  0.00  0.00    +0.128 C 
ATOM     31  C   UNL     1      33.397 -14.377 -23.863  0.00  0.00    +0.103 C 
ATOM     32  C   UNL     1      32.921 -13.267 -23.143  0.00  0.00    +0.134 C 
ATOM     33  C   UNL     1      34.306 -14.946 -20.424  0.00  0.00    +0.135 C 
ATOM     34  C   UNL     1      33.938 -15.878 -25.441  0.00  0.00    +0.251 C 
ATOM     35  H   UNL     1      35.221 -16.940 -21.395  0.00  0.00    +0.148 HD
ENDBRANCH  23  24
ENDBRANCH  22  23
ENDBRANCH   6  22
TORSDOF 5
ENDMDL
MODEL 6
REMARK VINA RESULT:     -11.1      5.031     11.635
REMARK  Name = 15602701
REMARK  5 active torsions:
REMARK  status: ('A' for Active; 'I' for Inactive)
REMARK    1  A    between atoms: N_5  and  C_12
REMARK    2  A    between atoms: C_6  and  C_22
REMARK    3  A    between atoms: C_13  and  C_21
REMARK    4  A    between atoms: C_22  and  C_23
REMARK    5  A    between atoms: C_23  and  N_24
REMARK                            x       y       z     vdW  Elec       q    Type
REMARK                         _______ _______ _______ _____ _____    ______ ____
ROOT
ATOM      1  S   UNL     1      36.021 -21.058 -19.906  0.00  0.00    -0.056 S 
ATOM      2  O   UNL     1      32.115 -22.429 -17.803  0.00  0.00    -0.252 OA
ATOM      3  N   UNL     1      33.439 -20.939 -19.972  0.00  0.00    -0.223 NA
ATOM      4  N   UNL     1      34.423 -22.226 -18.188  0.00  0.00    -0.248 N 
ATOM      5  N   UNL     1      33.659 -23.471 -16.393  0.00  0.00    -0.268 N 
ATOM      6  C   UNL     1      35.271 -20.166 -21.141  0.00  0.00    +0.031 C 
ATOM      7  C   UNL     1      33.919 -20.200 -21.036  0.00  0.00    +0.103 C 
ATOM      8  C   UNL     1      34.457 -21.437 -19.308  0.00  0.00    +0.166 C 
ATOM      9  C   UNL     1      33.273 -22.684 -17.491  0.00  0.00    +0.310 C 
ATOM     10  H   UNL     1      35.294 -22.508 -17.825  0.00  0.00    +0.158 HD
ATOM     11  H   UNL     1      34.628 -23.589 -16.266  0.00  0.00    +0.156 HD
ENDROOT
BRANCH   5  12
ATOM     12  C   UNL     1      32.827 -24.114 -15.447  0.00  0.00    +0.052 C 
ATOM     13  C   UNL     1      30.639 -24.790 -14.730  0.00  0.00    +0.073 C 
ATOM     14  C   UNL     1      31.459 -24.155 -15.663  0.00  0.00    +0.019 C 
ATOM     15  C   UNL     1      33.397 -24.692 -14.325  0.00  0.00    +0.015 C 
ATOM     16  C   UNL     1      31.198 -25.377 -13.595  0.00  0.00    +0.004 C 
ATOM     17  C   UNL     1      32.577 -25.327 -13.392  0.00  0.00    +0.001 C 
BRANCH  13  21
ATOM     18  F   UNL     1      28.809 -25.307 -16.183  0.00  0.00    -0.166 F 
ATOM     19  F   UNL     1      28.511 -25.654 -14.063  0.00  0.00    -0.166 F 
ATOM     20  F   UNL     1      28.571 -23.620 -14.832  0.00  0.00    -0.166 F 
ATOM     21  C   UNL     1      29.164 -24.844 -14.948  0.00  0.00    +0.419 C 
ENDBRANCH  13  21
ENDBRANCH   5  12
BRANCH   6  22
ATOM     22  C   UNL     1      36.120 -19.460 -22.172  0.00  0.00    +0.056 C 
BRANCH  22  23
ATOM     23  C   UNL     1      35.285 -18.757 -23.241  0.00  0.00    +0.093 C 
BRANCH  23  24
ATOM     24  N   UNL     1      34.907 -17.442 -22.817  0.00  0.00    -0.320 N 
ATOM     25  N   UNL     1      34.056 -14.583 -22.047  0.00  0.00    -0.220 N 
ATOM     26  N   UNL     1      33.613 -13.312 -22.084  0.00  0.00    -0.178 NA
ATOM     27  N   UNL     1      34.276 -16.742 -25.014  0.00  0.00    -0.232 NA
ATOM     28  N   UNL     1      33.424 -14.505 -25.478  0.00  0.00    -0.245 NA
ATOM     29  C   UNL     1      34.056 -15.203 -23.262  0.00  0.00    +0.185 C 
ATOM     30  C   UNL     1      34.413 -16.465 -23.698  0.00  0.00    +0.128 C 
ATOM     31  C   UNL     1      33.572 -14.261 -24.156  0.00  0.00    +0.103 C 
ATOM     32  C   UNL     1      33.319 -13.120 -23.374  0.00  0.00    +0.134 C 
ATOM     33  C   UNL     1      34.472 -15.137 -20.779  0.00  0.00    +0.135 C 
ATOM     34  C   UNL     1      33.796 -15.759 -25.812  0.00  0.00    +0.251 C 
ATOM     35  H   UNL     1      34.997 -17.212 -21.864  0.00  0.00    +0.148 HD
ENDBRANCH  23  24
ENDBRANCH  22  23
ENDBRANCH   6  22
TORSDOF 5
ENDMDL
MODEL 7
REMARK VINA RESULT:     -10.7      6.920     13.260
REMARK  Name = 15602701
REMARK  5 active torsions:
REMARK  status: ('A' for Active; 'I' for Inactive)
REMARK    1  A    between atoms: N_5  and  C_12
REMARK    2  A    between atoms: C_6  and  C_22
REMARK    3  A    between atoms: C_13  and  C_21
REMARK    4  A    between atoms: C_22  and  C_23
REMARK    5  A    between atoms: C_23  and  N_24
REMARK                            x       y       z     vdW  Elec       q    Type
REMARK                         _______ _______ _______ _____ _____    ______ ____
ROOT
ATOM      1  S   UNL     1      33.976 -15.382 -24.476  0.00  0.00    -0.056 S 
ATOM      2  O   UNL     1      35.248 -17.157 -20.378  0.00  0.00    -0.252 OA
ATOM      3  N   UNL     1      34.580 -14.809 -22.028  0.00  0.00    -0.223 NA
ATOM      4  N   UNL     1      34.634 -17.138 -22.645  0.00  0.00    -0.248 N 
ATOM      5  N   UNL     1      35.106 -19.145 -21.595  0.00  0.00    -0.268 N 
ATOM      6  C   UNL     1      33.955 -13.757 -23.983  0.00  0.00    +0.031 C 
ATOM      7  C   UNL     1      34.295 -13.624 -22.677  0.00  0.00    +0.103 C 
ATOM      8  C   UNL     1      34.445 -15.802 -22.879  0.00  0.00    +0.166 C 
ATOM      9  C   UNL     1      35.022 -17.754 -21.425  0.00  0.00    +0.310 C 
ATOM     10  H   UNL     1      34.485 -17.741 -23.410  0.00  0.00    +0.158 HD
ATOM     11  H   UNL     1      34.896 -19.484 -22.496  0.00  0.00    +0.156 HD
ENDROOT
BRANCH   5  12
ATOM     12  C   UNL     1      35.458 -20.121 -20.633  0.00  0.00    +0.052 C 
ATOM     13  C   UNL     1      34.810 -21.850 -19.101  0.00  0.00    +0.073 C 
ATOM     14  C   UNL     1      34.462 -20.887 -20.049  0.00  0.00    +0.019 C 
ATOM     15  C   UNL     1      36.791 -20.292 -20.297  0.00  0.00    +0.015 C 
ATOM     16  C   UNL     1      36.147 -22.035 -18.751  0.00  0.00    +0.004 C 
ATOM     17  C   UNL     1      37.138 -21.255 -19.349  0.00  0.00    +0.001 C 
BRANCH  13  21
ATOM     18  F   UNL     1      34.047 -23.060 -17.182  0.00  0.00    -0.166 F 
ATOM     19  F   UNL     1      32.540 -22.059 -18.377  0.00  0.00    -0.166 F 
ATOM     20  F   UNL     1      33.517 -23.846 -19.139  0.00  0.00    -0.166 F 
ATOM     21  C   UNL     1      33.751 -22.684 -18.462  0.00  0.00    +0.419 C 
ENDBRANCH  13  21
ENDBRANCH   5  12
BRANCH   6  22
ATOM     22  C   UNL     1      33.588 -12.681 -24.978  0.00  0.00    +0.056 C 
BRANCH  22  23
ATOM     23  C   UNL     1      33.973 -11.282 -24.499  0.00  0.00    +0.093 C 
BRANCH  23  24
ATOM     24  N   UNL     1      33.320 -10.961 -23.265  0.00  0.00    -0.320 N 
ATOM     25  N   UNL     1      31.953 -10.129 -20.633  0.00  0.00    -0.220 N 
ATOM     26  N   UNL     1      31.480  -9.421 -19.589  0.00  0.00    -0.178 NA
ATOM     27  N   UNL     1      33.826  -8.630 -23.418  0.00  0.00    -0.232 NA
ATOM     28  N   UNL     1      33.134  -7.028 -21.716  0.00  0.00    -0.245 NA
ATOM     29  C   UNL     1      32.619  -9.374 -21.554  0.00  0.00    +0.185 C 
ATOM     30  C   UNL     1      33.255  -9.656 -22.748  0.00  0.00    +0.128 C 
ATOM     31  C   UNL     1      32.573  -8.077 -21.070  0.00  0.00    +0.103 C 
ATOM     32  C   UNL     1      31.862  -8.168 -19.861  0.00  0.00    +0.134 C 
ATOM     33  C   UNL     1      31.718 -11.553 -20.669  0.00  0.00    +0.135 C 
ATOM     34  C   UNL     1      33.731  -7.396 -22.869  0.00  0.00    +0.251 C 
ATOM     35  H   UNL     1      32.896 -11.689 -22.755  0.00  0.00    +0.148 HD
ENDBRANCH  23  24
ENDBRANCH  22  23
ENDBRANCH   6  22
TORSDOF 5
ENDMDL
MODEL 8
REMARK VINA RESULT:     -10.6      5.131     11.705
REMARK  Name = 15602701
REMARK  5 active torsions:
REMARK  status: ('A' for Active; 'I' for Inactive)
REMARK    1  A    between atoms: N_5  and  C_12
REMARK    2  A    between atoms: C_6  and  C_22
REMARK    3  A    between atoms: C_13  and  C_21
REMARK    4  A    between atoms: C_22  and  C_23
REMARK    5  A    between atoms: C_23  and  N_24
REMARK                            x       y       z     vdW  Elec       q    Type
REMARK                         _______ _______ _______ _____ _____    ______ ____
ROOT
ATOM      1  S   UNL     1      33.188 -20.562 -20.713  0.00  0.00    -0.056 S 
ATOM      2  O   UNL     1      34.739 -22.935 -17.036  0.00  0.00    -0.252 OA
ATOM      3  N   UNL     1      35.304 -21.381 -19.474  0.00  0.00    -0.223 NA
ATOM      4  N   UNL     1      33.179 -21.973 -18.504  0.00  0.00    -0.248 N 
ATOM      5  N   UNL     1      32.444 -23.149 -16.652  0.00  0.00    -0.268 N 
ATOM      6  C   UNL     1      34.714 -20.174 -21.348  0.00  0.00    +0.031 C 
ATOM      7  C   UNL     1      35.718 -20.676 -20.587  0.00  0.00    +0.103 C 
ATOM      8  C   UNL     1      33.990 -21.386 -19.438  0.00  0.00    +0.166 C 
ATOM      9  C   UNL     1      33.577 -22.712 -17.358  0.00  0.00    +0.310 C 
ATOM     10  H   UNL     1      32.208 -21.872 -18.642  0.00  0.00    +0.158 HD
ATOM     11  H   UNL     1      31.573 -22.894 -17.032  0.00  0.00    +0.156 HD
ENDROOT
BRANCH   5  12
ATOM     12  C   UNL     1      32.401 -23.911 -15.460  0.00  0.00    +0.052 C 
ATOM     13  C   UNL     1      33.494 -24.754 -13.498  0.00  0.00    +0.073 C 
ATOM     14  C   UNL     1      33.537 -24.003 -14.672  0.00  0.00    +0.019 C 
ATOM     15  C   UNL     1      31.224 -24.548 -15.105  0.00  0.00    +0.015 C 
ATOM     16  C   UNL     1      32.316 -25.402 -13.126  0.00  0.00    +0.004 C 
ATOM     17  C   UNL     1      31.181 -25.299 -13.930  0.00  0.00    +0.001 C 
BRANCH  13  21
ATOM     18  F   UNL     1      34.457 -25.391 -11.402  0.00  0.00    -0.166 F 
ATOM     19  F   UNL     1      35.686 -25.654 -13.169  0.00  0.00    -0.166 F 
ATOM     20  F   UNL     1      35.299 -23.656 -12.406  0.00  0.00    -0.166 F 
ATOM     21  C   UNL     1      34.708 -24.864 -12.637  0.00  0.00    +0.419 C 
ENDBRANCH  13  21
ENDBRANCH   5  12
BRANCH   6  22
ATOM     22  C   UNL     1      34.808 -19.364 -22.620  0.00  0.00    +0.056 C 
BRANCH  22  23
ATOM     23  C   UNL     1      35.852 -18.251 -22.533  0.00  0.00    +0.093 C 
BRANCH  23  24
ATOM     24  N   UNL     1      35.233 -16.984 -22.279  0.00  0.00    -0.320 N 
ATOM     25  N   UNL     1      33.866 -14.253 -21.878  0.00  0.00    -0.220 N 
ATOM     26  N   UNL     1      33.207 -13.095 -22.077  0.00  0.00    -0.178 NA
ATOM     27  N   UNL     1      34.563 -16.676 -24.552  0.00  0.00    -0.232 NA
ATOM     28  N   UNL     1      33.345 -14.700 -25.300  0.00  0.00    -0.245 NA
ATOM     29  C   UNL     1      34.016 -15.003 -23.007  0.00  0.00    +0.185 C 
ATOM     30  C   UNL     1      34.605 -16.224 -23.279  0.00  0.00    +0.128 C 
ATOM     31  C   UNL     1      33.404 -14.277 -24.016  0.00  0.00    +0.103 C 
ATOM     32  C   UNL     1      32.927 -13.115 -23.385  0.00  0.00    +0.134 C 
ATOM     33  C   UNL     1      34.330 -14.567 -20.547  0.00  0.00    +0.135 C 
ATOM     34  C   UNL     1      33.944 -15.898 -25.472  0.00  0.00    +0.251 C 
ATOM     35  H   UNL     1      35.249 -16.629 -21.360  0.00  0.00    +0.148 HD
ENDBRANCH  23  24
ENDBRANCH  22  23
ENDBRANCH   6  22
TORSDOF 5
ENDMDL
MODEL 9
REMARK VINA RESULT:     -10.6      1.393      2.579
REMARK  Name = 15602701
REMARK  5 active torsions:
REMARK  status: ('A' for Active; 'I' for Inactive)
REMARK    1  A    between atoms: N_5  and  C_12
REMARK    2  A    between atoms: C_6  and  C_22
REMARK    3  A    between atoms: C_13  and  C_21
REMARK    4  A    between atoms: C_22  and  C_23
REMARK    5  A    between atoms: C_23  and  N_24
REMARK                            x       y       z     vdW  Elec       q    Type
REMARK                         _______ _______ _______ _____ _____    ______ ____
ROOT
ATOM      1  S   UNL     1      35.611 -22.407 -18.151  0.00  0.00    -0.056 S 
ATOM      2  O   UNL     1      33.108 -19.747 -21.017  0.00  0.00    -0.252 OA
ATOM      3  N   UNL     1      33.219 -21.848 -18.955  0.00  0.00    -0.223 NA
ATOM      4  N   UNL     1      35.022 -20.609 -19.965  0.00  0.00    -0.248 N 
ATOM      5  N   UNL     1      35.234 -18.948 -21.561  0.00  0.00    -0.268 N 
ATOM      6  C   UNL     1      34.301 -23.247 -17.475  0.00  0.00    +0.031 C 
ATOM      7  C   UNL     1      33.118 -22.842 -18.001  0.00  0.00    +0.103 C 
ATOM      8  C   UNL     1      34.487 -21.541 -19.116  0.00  0.00    +0.166 C 
ATOM      9  C   UNL     1      34.324 -19.763 -20.868  0.00  0.00    +0.310 C 
ATOM     10  H   UNL     1      36.003 -20.516 -19.949  0.00  0.00    +0.158 HD
ATOM     11  H   UNL     1      36.185 -19.073 -21.336  0.00  0.00    +0.156 HD
ENDROOT
BRANCH   5  12
ATOM     12  C   UNL     1      34.954 -17.970 -22.545  0.00  0.00    +0.052 C 
ATOM     13  C   UNL     1      34.446 -15.698 -23.124  0.00  0.00    +0.073 C 
ATOM     14  C   UNL     1      34.722 -16.662 -22.154  0.00  0.00    +0.019 C 
ATOM     15  C   UNL     1      34.919 -18.342 -23.879  0.00  0.00    +0.015 C 
ATOM     16  C   UNL     1      34.407 -16.055 -24.472  0.00  0.00    +0.004 C 
ATOM     17  C   UNL     1      34.643 -17.378 -24.849  0.00  0.00    +0.001 C 
BRANCH  13  21
ATOM     18  F   UNL     1      32.880 -14.014 -22.462  0.00  0.00    -0.166 F 
ATOM     19  F   UNL     1      34.864 -13.910 -21.591  0.00  0.00    -0.166 F 
ATOM     20  F   UNL     1      34.569 -13.389 -23.681  0.00  0.00    -0.166 F 
ATOM     21  C   UNL     1      34.194 -14.284 -22.721  0.00  0.00    +0.419 C 
ENDBRANCH  13  21
ENDBRANCH   5  12
BRANCH   6  22
ATOM     22  C   UNL     1      34.553 -24.302 -16.422  0.00  0.00    +0.056 C 
BRANCH  22  23
ATOM     23  C   UNL     1      33.921 -23.952 -15.076  0.00  0.00    +0.093 C 
BRANCH  23  24
ATOM     24  N   UNL     1      34.851 -24.151 -14.003  0.00  0.00    -0.320 N 
ATOM     25  N   UNL     1      36.905 -24.697 -11.774  0.00  0.00    -0.220 N 
ATOM     26  N   UNL     1      37.896 -25.223 -11.030  0.00  0.00    -0.178 NA
ATOM     27  N   UNL     1      35.860 -26.064 -15.022  0.00  0.00    -0.232 NA
ATOM     28  N   UNL     1      37.692 -27.287 -13.976  0.00  0.00    -0.245 NA
ATOM     29  C   UNL     1      36.681 -25.361 -12.944  0.00  0.00    +0.185 C 
ATOM     30  C   UNL     1      35.796 -25.190 -13.992  0.00  0.00    +0.128 C 
ATOM     31  C   UNL     1      37.602 -26.396 -12.962  0.00  0.00    +0.103 C 
ATOM     32  C   UNL     1      38.319 -26.261 -11.760  0.00  0.00    +0.134 C 
ATOM     33  C   UNL     1      36.206 -23.534 -11.277  0.00  0.00    +0.135 C 
ATOM     34  C   UNL     1      36.791 -27.045 -14.952  0.00  0.00    +0.251 C 
ATOM     35  H   UNL     1      34.826 -23.531 -13.240  0.00  0.00    +0.148 HD
ENDBRANCH  23  24
ENDBRANCH  22  23
ENDBRANCH   6  22
TORSDOF 5
ENDMDL
