MODEL 1
REMARK VINA RESULT:     -12.0      0.000      0.000
REMARK  Name = 11691242
REMARK  5 active torsions:
REMARK  status: ('A' for Active; 'I' for Inactive)
REMARK    1  A    between atoms: N_1  and  C_25
REMARK    2  A    between atoms: C_5  and  N_11
REMARK    3  A    between atoms: N_12  and  C_17
REMARK    4  A    between atoms: C_18  and  O_23
REMARK    5  A    between atoms: C_25  and  C_28
REMARK                            x       y       z     vdW  Elec       q    Type
REMARK                         _______ _______ _______ _____ _____    ______ ____
ROOT
ATOM      1  N   UNL     1      35.236 -17.290 -22.153  0.00  0.00    -0.282 N 
ATOM      2  C   UNL     1      34.657 -16.538 -23.150  0.00  0.00    +0.053 C 
ATOM      3  C   UNL     1      33.991 -15.478 -22.530  0.00  0.00    +0.028 C 
ATOM      4  C   UNL     1      34.960 -16.744 -20.928  0.00  0.00    +0.066 C 
ATOM      5  C   UNL     1      33.304 -14.546 -23.333  0.00  0.00    +0.053 C 
ATOM      6  C   UNL     1      34.190 -15.622 -21.128  0.00  0.00    +0.019 C 
ATOM      7  C   UNL     1      34.671 -16.713 -24.538  0.00  0.00    +0.015 C 
ATOM      8  C   UNL     1      33.310 -14.708 -24.724  0.00  0.00    +0.015 C 
ATOM      9  C   UNL     1      33.984 -15.775 -25.315  0.00  0.00    +0.003 C 
ENDROOT
BRANCH   5  11
ATOM     10  O   UNL     1      34.101 -11.678 -23.080  0.00  0.00    -0.252 OA
ATOM     11  N   UNL     1      32.622 -13.469 -22.766  0.00  0.00    -0.268 N 
ATOM     12  N   UNL     1      32.041 -11.362 -22.019  0.00  0.00    -0.266 N 
ATOM     13  C   UNL     1      33.033 -12.118 -22.664  0.00  0.00    +0.308 C 
ATOM     14  H   UNL     1      31.737 -13.675 -22.387  0.00  0.00    +0.156 HD
ATOM     15  H   UNL     1      31.236 -11.855 -21.741  0.00  0.00    +0.157 HD
BRANCH  12  17
ATOM     16 BR   UNL     1      32.103  -6.450 -23.899  0.00  0.00    -0.049 Br
ATOM     17  C   UNL     1      32.057  -9.979 -21.720  0.00  0.00    +0.086 C 
ATOM     18  C   UNL     1      32.062  -9.556 -20.399  0.00  0.00    +0.152 C 
ATOM     19  C   UNL     1      32.067  -9.071 -22.766  0.00  0.00    +0.024 C 
ATOM     20  C   UNL     1      32.077  -8.191 -20.120  0.00  0.00    +0.039 C 
ATOM     21  C   UNL     1      32.082  -7.704 -22.486  0.00  0.00    +0.036 C 
ATOM     22  C   UNL     1      32.087  -7.264 -21.163  0.00  0.00    +0.010 C 
BRANCH  18  23
ATOM     23  O   UNL     1      32.053 -10.446 -19.367  0.00  0.00    -0.470 OA
ATOM     24  C   UNL     1      30.779 -10.864 -18.882  0.00  0.00    +0.253 C 
ENDBRANCH  18  23
ENDBRANCH  12  17
ENDBRANCH   5  11
BRANCH   1  25
ATOM     25  C   UNL     1      36.023 -18.489 -22.352  0.00  0.00    +0.122 C 
BRANCH  25  28
ATOM     26  N   UNL     1      35.191 -21.429 -19.347  0.00  0.00    -0.230 NA
ATOM     27  N   UNL     1      32.872 -21.289 -19.873  0.00  0.00    -0.343 N 
ATOM     28  C   UNL     1      35.730 -19.520 -21.297  0.00  0.00    +0.002 C 
ATOM     29  C   UNL     1      34.425 -19.924 -21.077  0.00  0.00    +0.031 C 
ATOM     30  C   UNL     1      36.770 -20.055 -20.558  0.00  0.00    +0.018 C 
ATOM     31  C   UNL     1      34.209 -20.877 -20.095  0.00  0.00    +0.125 C 
ATOM     32  C   UNL     1      36.449 -21.002 -19.599  0.00  0.00    +0.100 C 
ATOM     33  H   UNL     1      32.673 -21.965 -19.185  0.00  0.00    +0.144 HD
ATOM     34  H   UNL     1      32.142 -20.901 -20.408  0.00  0.00    +0.144 HD
ENDBRANCH  25  28
ENDBRANCH   1  25
TORSDOF 5
ENDMDL
MODEL 2
REMARK VINA RESULT:     -10.8      6.703     12.153
REMARK  Name = 11691242
REMARK  5 active torsions:
REMARK  status: ('A' for Active; 'I' for Inactive)
REMARK    1  A    between atoms: N_1  and  C_25
REMARK    2  A    between atoms: C_5  and  N_11
REMARK    3  A    between atoms: N_12  and  C_17
REMARK    4  A    between atoms: C_18  and  O_23
REMARK    5  A    between atoms: C_25  and  C_28
REMARK                            x       y       z     vdW  Elec       q    Type
REMARK                         _______ _______ _______ _____ _____    ______ ____
ROOT
ATOM      1  N   UNL     1      35.806 -19.273 -21.472  0.00  0.00    -0.282 N 
ATOM      2  C   UNL     1      35.065 -20.156 -20.721  0.00  0.00    +0.053 C 
ATOM      3  C   UNL     1      35.937 -20.754 -19.809  0.00  0.00    +0.028 C 
ATOM      4  C   UNL     1      37.114 -19.291 -21.069  0.00  0.00    +0.066 C 
ATOM      5  C   UNL     1      35.428 -21.711 -18.910  0.00  0.00    +0.053 C 
ATOM      6  C   UNL     1      37.228 -20.198 -20.041  0.00  0.00    +0.019 C 
ATOM      7  C   UNL     1      33.702 -20.469 -20.778  0.00  0.00    +0.015 C 
ATOM      8  C   UNL     1      34.067 -22.034 -18.955  0.00  0.00    +0.015 C 
ATOM      9  C   UNL     1      33.219 -21.422 -19.875  0.00  0.00    +0.003 C 
ENDROOT
BRANCH   5  11
ATOM     10  O   UNL     1      34.798 -22.821 -16.209  0.00  0.00    -0.252 OA
ATOM     11  N   UNL     1      36.257 -22.338 -17.978  0.00  0.00    -0.268 N 
ATOM     12  N   UNL     1      37.060 -23.404 -16.093  0.00  0.00    -0.266 N 
ATOM     13  C   UNL     1      35.921 -22.854 -16.703  0.00  0.00    +0.308 C 
ATOM     14  H   UNL     1      37.200 -22.436 -18.242  0.00  0.00    +0.156 HD
ATOM     15  H   UNL     1      37.894 -23.356 -16.613  0.00  0.00    +0.157 HD
BRANCH  12  17
ATOM     16 BR   UNL     1      34.603 -24.677 -11.619  0.00  0.00    -0.049 Br
ATOM     17  C   UNL     1      37.156 -24.018 -14.822  0.00  0.00    +0.086 C 
ATOM     18  C   UNL     1      38.355 -24.583 -14.415  0.00  0.00    +0.152 C 
ATOM     19  C   UNL     1      36.036 -24.040 -14.006  0.00  0.00    +0.024 C 
ATOM     20  C   UNL     1      38.434 -25.186 -13.160  0.00  0.00    +0.039 C 
ATOM     21  C   UNL     1      36.116 -24.642 -12.750  0.00  0.00    +0.036 C 
ATOM     22  C   UNL     1      37.315 -25.216 -12.327  0.00  0.00    +0.010 C 
BRANCH  18  23
ATOM     23  O   UNL     1      39.459 -24.563 -15.213  0.00  0.00    -0.470 OA
ATOM     24  C   UNL     1      40.445 -25.568 -14.981  0.00  0.00    +0.253 C 
ENDBRANCH  18  23
ENDBRANCH  12  17
ENDBRANCH   5  11
BRANCH   1  25
ATOM     25  C   UNL     1      35.294 -18.441 -22.541  0.00  0.00    +0.122 C 
BRANCH  25  28
ATOM     26  N   UNL     1      34.279 -14.525 -21.126  0.00  0.00    -0.230 NA
ATOM     27  N   UNL     1      34.487 -13.685 -23.346  0.00  0.00    -0.343 N 
ATOM     28  C   UNL     1      34.939 -17.066 -22.045  0.00  0.00    +0.002 C 
ATOM     29  C   UNL     1      34.880 -16.010 -22.936  0.00  0.00    +0.031 C 
ATOM     30  C   UNL     1      34.673 -16.872 -20.701  0.00  0.00    +0.018 C 
ATOM     31  C   UNL     1      34.547 -14.764 -22.430  0.00  0.00    +0.125 C 
ATOM     32  C   UNL     1      34.349 -15.588 -20.294  0.00  0.00    +0.100 C 
ATOM     33  H   UNL     1      34.254 -12.783 -23.029  0.00  0.00    +0.144 HD
ATOM     34  H   UNL     1      34.678 -13.839 -24.300  0.00  0.00    +0.144 HD
ENDBRANCH  25  28
ENDBRANCH   1  25
TORSDOF 5
ENDMDL
MODEL 3
REMARK VINA RESULT:     -10.8      5.521      9.520
REMARK  Name = 11691242
REMARK  5 active torsions:
REMARK  status: ('A' for Active; 'I' for Inactive)
REMARK    1  A    between atoms: N_1  and  C_25
REMARK    2  A    between atoms: C_5  and  N_11
REMARK    3  A    between atoms: N_12  and  C_17
REMARK    4  A    between atoms: C_18  and  O_23
REMARK    5  A    between atoms: C_25  and  C_28
REMARK                            x       y       z     vdW  Elec       q    Type
REMARK                         _______ _______ _______ _____ _____    ______ ____
ROOT
ATOM      1  N   UNL     1      36.318 -23.110 -15.341  0.00  0.00    -0.282 N 
ATOM      2  C   UNL     1      35.410 -23.100 -16.375  0.00  0.00    +0.053 C 
ATOM      3  C   UNL     1      35.888 -22.203 -17.333  0.00  0.00    +0.028 C 
ATOM      4  C   UNL     1      37.351 -22.253 -15.610  0.00  0.00    +0.066 C 
ATOM      5  C   UNL     1      35.138 -22.001 -18.509  0.00  0.00    +0.053 C 
ATOM      6  C   UNL     1      37.114 -21.676 -16.836  0.00  0.00    +0.019 C 
ATOM      7  C   UNL     1      34.214 -23.808 -16.535  0.00  0.00    +0.015 C 
ATOM      8  C   UNL     1      33.939 -22.703 -18.682  0.00  0.00    +0.015 C 
ATOM      9  C   UNL     1      33.486 -23.592 -17.710  0.00  0.00    +0.003 C 
ENDROOT
BRANCH   5  11
ATOM     10  O   UNL     1      33.577 -20.138 -20.244  0.00  0.00    -0.252 OA
ATOM     11  N   UNL     1      35.570 -21.117 -19.498  0.00  0.00    -0.268 N 
ATOM     12  N   UNL     1      35.634 -19.529 -21.174  0.00  0.00    -0.266 N 
ATOM     13  C   UNL     1      34.798 -20.246 -20.303  0.00  0.00    +0.308 C 
ATOM     14  H   UNL     1      36.542 -21.096 -19.657  0.00  0.00    +0.156 HD
ATOM     15  H   UNL     1      36.597 -19.724 -21.105  0.00  0.00    +0.157 HD
BRANCH  12  17
ATOM     16 BR   UNL     1      34.530 -14.478 -22.144  0.00  0.00    -0.049 Br
ATOM     17  C   UNL     1      35.264 -18.561 -22.137  0.00  0.00    +0.086 C 
ATOM     18  C   UNL     1      35.060 -18.939 -23.456  0.00  0.00    +0.152 C 
ATOM     19  C   UNL     1      35.113 -17.244 -21.735  0.00  0.00    +0.024 C 
ATOM     20  C   UNL     1      34.696 -17.975 -24.394  0.00  0.00    +0.039 C 
ATOM     21  C   UNL     1      34.748 -16.279 -22.674  0.00  0.00    +0.036 C 
ATOM     22  C   UNL     1      34.540 -16.644 -24.003  0.00  0.00    +0.010 C 
BRANCH  18  23
ATOM     23  O   UNL     1      35.206 -20.234 -23.856  0.00  0.00    -0.470 OA
ATOM     24  C   UNL     1      34.507 -20.630 -25.035  0.00  0.00    +0.253 C 
ENDBRANCH  18  23
ENDBRANCH  12  17
ENDBRANCH   5  11
BRANCH   1  25
ATOM     25  C   UNL     1      36.209 -23.902 -14.134  0.00  0.00    +0.122 C 
BRANCH  25  28
ATOM     26  N   UNL     1      38.394 -27.574 -14.467  0.00  0.00    -0.230 NA
ATOM     27  N   UNL     1      40.364 -26.451 -13.736  0.00  0.00    -0.343 N 
ATOM     28  C   UNL     1      36.977 -25.190 -14.252  0.00  0.00    +0.002 C 
ATOM     29  C   UNL     1      38.324 -25.216 -13.937  0.00  0.00    +0.031 C 
ATOM     30  C   UNL     1      36.327 -26.337 -14.672  0.00  0.00    +0.018 C 
ATOM     31  C   UNL     1      38.985 -26.428 -14.060  0.00  0.00    +0.125 C 
ATOM     32  C   UNL     1      37.077 -27.498 -14.763  0.00  0.00    +0.100 C 
ATOM     33  H   UNL     1      40.872 -27.290 -13.809  0.00  0.00    +0.144 HD
ATOM     34  H   UNL     1      40.813 -25.627 -13.437  0.00  0.00    +0.144 HD
ENDBRANCH  25  28
ENDBRANCH   1  25
TORSDOF 5
ENDMDL
MODEL 4
REMARK VINA RESULT:     -10.0      1.426      1.855
REMARK  Name = 11691242
REMARK  5 active torsions:
REMARK  status: ('A' for Active; 'I' for Inactive)
REMARK    1  A    between atoms: N_1  and  C_25
REMARK    2  A    between atoms: C_5  and  N_11
REMARK    3  A    between atoms: N_12  and  C_17
REMARK    4  A    between atoms: C_18  and  O_23
REMARK    5  A    between atoms: C_25  and  C_28
REMARK                            x       y       z     vdW  Elec       q    Type
REMARK                         _______ _______ _______ _____ _____    ______ ____
ROOT
ATOM      1  N   UNL     1      35.156 -18.216 -21.946  0.00  0.00    -0.282 N 
ATOM      2  C   UNL     1      34.900 -17.367 -22.999  0.00  0.00    +0.053 C 
ATOM      3  C   UNL     1      34.767 -16.082 -22.467  0.00  0.00    +0.028 C 
ATOM      4  C   UNL     1      35.189 -17.515 -20.771  0.00  0.00    +0.066 C 
ATOM      5  C   UNL     1      34.498 -15.010 -23.341  0.00  0.00    +0.053 C 
ATOM      6  C   UNL     1      34.951 -16.192 -21.060  0.00  0.00    +0.019 C 
ATOM      7  C   UNL     1      34.777 -17.634 -24.366  0.00  0.00    +0.015 C 
ATOM      8  C   UNL     1      34.372 -15.263 -24.712  0.00  0.00    +0.015 C 
ATOM      9  C   UNL     1      34.511 -16.555 -25.215  0.00  0.00    +0.003 C 
ENDROOT
BRANCH   5  11
ATOM     10  O   UNL     1      32.612 -12.848 -24.171  0.00  0.00    -0.252 OA
ATOM     11  N   UNL     1      34.355 -13.707 -22.862  0.00  0.00    -0.268 N 
ATOM     12  N   UNL     1      33.643 -11.535 -22.533  0.00  0.00    -0.266 N 
ATOM     13  C   UNL     1      33.446 -12.706 -23.282  0.00  0.00    +0.308 C 
ATOM     14  H   UNL     1      34.969 -13.449 -22.136  0.00  0.00    +0.156 HD
ATOM     15  H   UNL     1      34.353 -11.572 -21.852  0.00  0.00    +0.157 HD
BRANCH  12  17
ATOM     16 BR   UNL     1      33.793  -6.499 -24.044  0.00  0.00    -0.049 Br
ATOM     17  C   UNL     1      32.946 -10.308 -22.636  0.00  0.00    +0.086 C 
ATOM     18  C   UNL     1      31.638 -10.214 -22.187  0.00  0.00    +0.152 C 
ATOM     19  C   UNL     1      33.597  -9.217 -23.190  0.00  0.00    +0.024 C 
ATOM     20  C   UNL     1      30.964  -8.999 -22.295  0.00  0.00    +0.039 C 
ATOM     21  C   UNL     1      32.922  -8.001 -23.298  0.00  0.00    +0.036 C 
ATOM     22  C   UNL     1      31.606  -7.892 -22.851  0.00  0.00    +0.010 C 
BRANCH  18  23
ATOM     23  O   UNL     1      30.995 -11.284 -21.640  0.00  0.00    -0.470 OA
ATOM     24  C   UNL     1      30.949 -11.355 -20.216  0.00  0.00    +0.253 C 
ENDBRANCH  18  23
ENDBRANCH  12  17
ENDBRANCH   5  11
BRANCH   1  25
ATOM     25  C   UNL     1      35.358 -19.646 -22.049  0.00  0.00    +0.122 C 
BRANCH  25  28
ATOM     26  N   UNL     1      33.345 -21.740 -18.899  0.00  0.00    -0.230 NA
ATOM     27  N   UNL     1      35.429 -22.658 -18.197  0.00  0.00    -0.343 N 
ATOM     28  C   UNL     1      34.652 -20.382 -20.944  0.00  0.00    +0.002 C 
ATOM     29  C   UNL     1      35.379 -21.184 -20.081  0.00  0.00    +0.031 C 
ATOM     30  C   UNL     1      33.283 -20.249 -20.800  0.00  0.00    +0.018 C 
ATOM     31  C   UNL     1      34.682 -21.839 -19.079  0.00  0.00    +0.125 C 
ATOM     32  C   UNL     1      32.679 -20.946 -19.766  0.00  0.00    +0.100 C 
ATOM     33  H   UNL     1      34.974 -23.142 -17.471  0.00  0.00    +0.144 HD
ATOM     34  H   UNL     1      36.404 -22.743 -18.311  0.00  0.00    +0.144 HD
ENDBRANCH  25  28
ENDBRANCH   1  25
TORSDOF 5
ENDMDL
MODEL 5
REMARK VINA RESULT:     -10.0      1.850      2.645
REMARK  Name = 11691242
REMARK  5 active torsions:
REMARK  status: ('A' for Active; 'I' for Inactive)
REMARK    1  A    between atoms: N_1  and  C_25
REMARK    2  A    between atoms: C_5  and  N_11
REMARK    3  A    between atoms: N_12  and  C_17
REMARK    4  A    between atoms: C_18  and  O_23
REMARK    5  A    between atoms: C_25  and  C_28
REMARK                            x       y       z     vdW  Elec       q    Type
REMARK                         _______ _______ _______ _____ _____    ______ ____
ROOT
ATOM      1  N   UNL     1      35.151 -18.019 -22.080  0.00  0.00    -0.282 N 
ATOM      2  C   UNL     1      34.715 -17.215 -23.108  0.00  0.00    +0.053 C 
ATOM      3  C   UNL     1      34.480 -15.948 -22.568  0.00  0.00    +0.028 C 
ATOM      4  C   UNL     1      35.200 -17.308 -20.912  0.00  0.00    +0.066 C 
ATOM      5  C   UNL     1      34.019 -14.923 -23.417  0.00  0.00    +0.053 C 
ATOM      6  C   UNL     1      34.790 -16.022 -21.180  0.00  0.00    +0.019 C 
ATOM      7  C   UNL     1      34.512 -17.507 -24.461  0.00  0.00    +0.015 C 
ATOM      8  C   UNL     1      33.811 -15.201 -24.773  0.00  0.00    +0.015 C 
ATOM      9  C   UNL     1      34.055 -16.474 -25.285  0.00  0.00    +0.003 C 
ENDROOT
BRANCH   5  11
ATOM     10  O   UNL     1      33.859 -12.310 -24.856  0.00  0.00    -0.252 OA
ATOM     11  N   UNL     1      33.769 -13.640 -22.929  0.00  0.00    -0.268 N 
ATOM     12  N   UNL     1      33.425 -11.362 -22.763  0.00  0.00    -0.266 N 
ATOM     13  C   UNL     1      33.700 -12.420 -23.644  0.00  0.00    +0.308 C 
ATOM     14  H   UNL     1      33.620 -13.573 -21.957  0.00  0.00    +0.156 HD
ATOM     15  H   UNL     1      33.323 -11.605 -21.815  0.00  0.00    +0.157 HD
BRANCH  12  17
ATOM     16 BR   UNL     1      30.239  -7.177 -22.796  0.00  0.00    -0.049 Br
ATOM     17  C   UNL     1      33.276  -9.989 -23.071  0.00  0.00    +0.086 C 
ATOM     18  C   UNL     1      34.339  -9.280 -23.610  0.00  0.00    +0.152 C 
ATOM     19  C   UNL     1      32.057  -9.379 -22.822  0.00  0.00    +0.024 C 
ATOM     20  C   UNL     1      34.178  -7.928 -23.908  0.00  0.00    +0.039 C 
ATOM     21  C   UNL     1      31.896  -8.026 -23.121  0.00  0.00    +0.036 C 
ATOM     22  C   UNL     1      32.956  -7.300 -23.663  0.00  0.00    +0.010 C 
BRANCH  18  23
ATOM     23  O   UNL     1      35.539  -9.876 -23.857  0.00  0.00    -0.470 OA
ATOM     24  C   UNL     1      35.912 -10.041 -25.225  0.00  0.00    +0.253 C 
ENDBRANCH  18  23
ENDBRANCH  12  17
ENDBRANCH   5  11
BRANCH   1  25
ATOM     25  C   UNL     1      35.507 -19.417 -22.199  0.00  0.00    +0.122 C 
BRANCH  25  28
ATOM     26  N   UNL     1      33.834 -21.732 -19.004  0.00  0.00    -0.230 NA
ATOM     27  N   UNL     1      36.029 -22.387 -18.348  0.00  0.00    -0.343 N 
ATOM     28  C   UNL     1      34.920 -20.230 -21.078  0.00  0.00    +0.002 C 
ATOM     29  C   UNL     1      35.758 -20.935 -20.231  0.00  0.00    +0.031 C 
ATOM     30  C   UNL     1      33.549 -20.265 -20.904  0.00  0.00    +0.018 C 
ATOM     31  C   UNL     1      35.168 -21.667 -19.214  0.00  0.00    +0.125 C 
ATOM     32  C   UNL     1      33.057 -21.027 -19.856  0.00  0.00    +0.100 C 
ATOM     33  H   UNL     1      35.653 -22.920 -17.612  0.00  0.00    +0.144 HD
ATOM     34  H   UNL     1      37.004 -22.352 -18.484  0.00  0.00    +0.144 HD
ENDBRANCH  25  28
ENDBRANCH   1  25
TORSDOF 5
ENDMDL
MODEL 6
REMARK VINA RESULT:      -9.9      2.591      4.858
REMARK  Name = 11691242
REMARK  5 active torsions:
REMARK  status: ('A' for Active; 'I' for Inactive)
REMARK    1  A    between atoms: N_1  and  C_25
REMARK    2  A    between atoms: C_5  and  N_11
REMARK    3  A    between atoms: N_12  and  C_17
REMARK    4  A    between atoms: C_18  and  O_23
REMARK    5  A    between atoms: C_25  and  C_28
REMARK                            x       y       z     vdW  Elec       q    Type
REMARK                         _______ _______ _______ _____ _____    ______ ____
ROOT
ATOM      1  N   UNL     1      33.931 -13.710 -22.185  0.00  0.00    -0.282 N 
ATOM      2  C   UNL     1      32.982 -13.014 -21.472  0.00  0.00    +0.053 C 
ATOM      3  C   UNL     1      32.651 -11.884 -22.223  0.00  0.00    +0.028 C 
ATOM      4  C   UNL     1      34.213 -13.061 -23.357  0.00  0.00    +0.066 C 
ATOM      5  C   UNL     1      31.690 -10.988 -21.714  0.00  0.00    +0.053 C 
ATOM      6  C   UNL     1      33.437 -11.926 -23.409  0.00  0.00    +0.019 C 
ATOM      7  C   UNL     1      32.395 -13.296 -20.234  0.00  0.00    +0.015 C 
ATOM      8  C   UNL     1      31.094 -11.257 -20.476  0.00  0.00    +0.015 C 
ATOM      9  C   UNL     1      31.443 -12.394 -19.749  0.00  0.00    +0.003 C 
ENDROOT
BRANCH   5  11
ATOM     10  O   UNL     1      33.091  -8.365 -21.996  0.00  0.00    -0.252 OA
ATOM     11  N   UNL     1      31.323  -9.843 -22.423  0.00  0.00    -0.268 N 
ATOM     12  N   UNL     1      31.291  -7.727 -23.346  0.00  0.00    -0.266 N 
ATOM     13  C   UNL     1      32.016  -8.613 -22.534  0.00  0.00    +0.308 C 
ATOM     14  H   UNL     1      30.469  -9.897 -22.910  0.00  0.00    +0.156 HD
ATOM     15  H   UNL     1      30.442  -8.068 -23.708  0.00  0.00    +0.157 HD
BRANCH  12  17
ATOM     16 BR   UNL     1      34.382  -4.610 -26.244  0.00  0.00    -0.049 Br
ATOM     17  C   UNL     1      31.631  -6.402 -23.709  0.00  0.00    +0.086 C 
ATOM     18  C   UNL     1      30.951  -5.333 -23.145  0.00  0.00    +0.152 C 
ATOM     19  C   UNL     1      32.648  -6.203 -24.629  0.00  0.00    +0.024 C 
ATOM     20  C   UNL     1      31.297  -4.034 -23.512  0.00  0.00    +0.039 C 
ATOM     21  C   UNL     1      32.994  -4.903 -24.996  0.00  0.00    +0.036 C 
ATOM     22  C   UNL     1      32.318  -3.818 -24.438  0.00  0.00    +0.010 C 
BRANCH  18  23
ATOM     23  O   UNL     1      29.952  -5.523 -22.239  0.00  0.00    -0.470 OA
ATOM     24  C   UNL     1      30.307  -5.459 -20.859  0.00  0.00    +0.253 C 
ENDBRANCH  18  23
ENDBRANCH  12  17
ENDBRANCH   5  11
BRANCH   1  25
ATOM     25  C   UNL     1      34.555 -14.948 -21.769  0.00  0.00    +0.122 C 
BRANCH  25  28
ATOM     26  N   UNL     1      34.487 -17.865 -24.908  0.00  0.00    -0.230 NA
ATOM     27  N   UNL     1      35.137 -19.542 -23.345  0.00  0.00    -0.343 N 
ATOM     28  C   UNL     1      34.532 -15.973 -22.871  0.00  0.00    +0.002 C 
ATOM     29  C   UNL     1      34.850 -17.289 -22.589  0.00  0.00    +0.031 C 
ATOM     30  C   UNL     1      34.193 -15.587 -24.155  0.00  0.00    +0.018 C 
ATOM     31  C   UNL     1      34.812 -18.194 -23.637  0.00  0.00    +0.125 C 
ATOM     32  C   UNL     1      34.185 -16.567 -25.134  0.00  0.00    +0.100 C 
ATOM     33  H   UNL     1      35.123 -20.217 -24.060  0.00  0.00    +0.144 HD
ATOM     34  H   UNL     1      35.376 -19.802 -22.425  0.00  0.00    +0.144 HD
ENDBRANCH  25  28
ENDBRANCH   1  25
TORSDOF 5
ENDMDL
MODEL 7
REMARK VINA RESULT:      -9.8      4.977     10.219
REMARK  Name = 11691242
REMARK  5 active torsions:
REMARK  status: ('A' for Active; 'I' for Inactive)
REMARK    1  A    between atoms: N_1  and  C_25
REMARK    2  A    between atoms: C_5  and  N_11
REMARK    3  A    between atoms: N_12  and  C_17
REMARK    4  A    between atoms: C_18  and  O_23
REMARK    5  A    between atoms: C_25  and  C_28
REMARK                            x       y       z     vdW  Elec       q    Type
REMARK                         _______ _______ _______ _____ _____    ______ ____
ROOT
ATOM      1  N   UNL     1      34.662 -16.078 -22.645  0.00  0.00    -0.282 N 
ATOM      2  C   UNL     1      34.693 -17.385 -23.076  0.00  0.00    +0.053 C 
ATOM      3  C   UNL     1      35.022 -18.174 -21.971  0.00  0.00    +0.028 C 
ATOM      4  C   UNL     1      34.960 -16.013 -21.311  0.00  0.00    +0.066 C 
ATOM      5  C   UNL     1      35.122 -19.569 -22.139  0.00  0.00    +0.053 C 
ATOM      6  C   UNL     1      35.188 -17.294 -20.865  0.00  0.00    +0.019 C 
ATOM      7  C   UNL     1      34.458 -17.924 -24.345  0.00  0.00    +0.015 C 
ATOM      8  C   UNL     1      34.889 -20.123 -23.404  0.00  0.00    +0.015 C 
ATOM      9  C   UNL     1      34.562 -19.312 -24.489  0.00  0.00    +0.003 C 
ENDROOT
BRANCH   5  11
ATOM     10  O   UNL     1      33.415 -20.616 -19.923  0.00  0.00    -0.252 OA
ATOM     11  N   UNL     1      35.447 -20.404 -21.069  0.00  0.00    -0.268 N 
ATOM     12  N   UNL     1      35.343 -21.697 -19.159  0.00  0.00    -0.266 N 
ATOM     13  C   UNL     1      34.608 -20.881 -20.034  0.00  0.00    +0.308 C 
ATOM     14  H   UNL     1      36.386 -20.700 -21.029  0.00  0.00    +0.156 HD
ATOM     15  H   UNL     1      36.295 -21.818 -19.378  0.00  0.00    +0.157 HD
BRANCH  12  17
ATOM     16 BR   UNL     1      31.214 -23.635 -16.539  0.00  0.00    -0.049 Br
ATOM     17  C   UNL     1      34.883 -22.368 -18.001  0.00  0.00    +0.086 C 
ATOM     18  C   UNL     1      35.784 -22.755 -17.021  0.00  0.00    +0.152 C 
ATOM     19  C   UNL     1      33.527 -22.623 -17.873  0.00  0.00    +0.024 C 
ATOM     20  C   UNL     1      35.317 -23.416 -15.886  0.00  0.00    +0.039 C 
ATOM     21  C   UNL     1      33.060 -23.283 -16.736  0.00  0.00    +0.036 C 
ATOM     22  C   UNL     1      33.955 -23.680 -15.743  0.00  0.00    +0.010 C 
BRANCH  18  23
ATOM     23  O   UNL     1      37.119 -22.505 -17.142  0.00  0.00    -0.470 OA
ATOM     24  C   UNL     1      37.609 -21.305 -16.548  0.00  0.00    +0.253 C 
ENDBRANCH  18  23
ENDBRANCH  12  17
ENDBRANCH   5  11
BRANCH   1  25
ATOM     25  C   UNL     1      34.365 -14.927 -23.471  0.00  0.00    +0.122 C 
BRANCH  25  28
ATOM     26  N   UNL     1      31.994 -12.052 -21.355  0.00  0.00    -0.230 NA
ATOM     27  N   UNL     1      32.764 -10.350 -22.833  0.00  0.00    -0.343 N 
ATOM     28  C   UNL     1      33.534 -13.917 -22.728  0.00  0.00    +0.002 C 
ATOM     29  C   UNL     1      33.540 -12.594 -23.132  0.00  0.00    +0.031 C 
ATOM     30  C   UNL     1      32.771 -14.323 -21.648  0.00  0.00    +0.018 C 
ATOM     31  C   UNL     1      32.756 -11.704 -22.416  0.00  0.00    +0.125 C 
ATOM     32  C   UNL     1      32.021 -13.356 -20.998  0.00  0.00    +0.100 C 
ATOM     33  H   UNL     1      32.221  -9.685 -22.353  0.00  0.00    +0.144 HD
ATOM     34  H   UNL     1      33.311 -10.076 -23.605  0.00  0.00    +0.144 HD
ENDBRANCH  25  28
ENDBRANCH   1  25
TORSDOF 5
ENDMDL
MODEL 8
REMARK VINA RESULT:      -9.8      2.839      5.090
REMARK  Name = 11691242
REMARK  5 active torsions:
REMARK  status: ('A' for Active; 'I' for Inactive)
REMARK    1  A    between atoms: N_1  and  C_25
REMARK    2  A    between atoms: C_5  and  N_11
REMARK    3  A    between atoms: N_12  and  C_17
REMARK    4  A    between atoms: C_18  and  O_23
REMARK    5  A    between atoms: C_25  and  C_28
REMARK                            x       y       z     vdW  Elec       q    Type
REMARK                         _______ _______ _______ _____ _____    ______ ____
ROOT
ATOM      1  N   UNL     1      34.454 -21.620 -19.747  0.00  0.00    -0.282 N 
ATOM      2  C   UNL     1      35.259 -20.611 -20.227  0.00  0.00    +0.053 C 
ATOM      3  C   UNL     1      34.417 -19.584 -20.658  0.00  0.00    +0.028 C 
ATOM      4  C   UNL     1      33.137 -21.267 -19.861  0.00  0.00    +0.066 C 
ATOM      5  C   UNL     1      34.992 -18.418 -21.201  0.00  0.00    +0.053 C 
ATOM      6  C   UNL     1      33.080 -20.012 -20.422  0.00  0.00    +0.019 C 
ATOM      7  C   UNL     1      36.653 -20.530 -20.310  0.00  0.00    +0.015 C 
ATOM      8  C   UNL     1      36.386 -18.323 -21.292  0.00  0.00    +0.015 C 
ATOM      9  C   UNL     1      37.202 -19.363 -20.852  0.00  0.00    +0.003 C 
ENDROOT
BRANCH   5  11
ATOM     10  O   UNL     1      34.924 -15.559 -20.339  0.00  0.00    -0.252 OA
ATOM     11  N   UNL     1      34.198 -17.361 -21.648  0.00  0.00    -0.268 N 
ATOM     12  N   UNL     1      33.233 -15.282 -21.930  0.00  0.00    -0.266 N 
ATOM     13  C   UNL     1      34.193 -16.014 -21.214  0.00  0.00    +0.308 C 
ATOM     14  H   UNL     1      33.554 -17.582 -22.360  0.00  0.00    +0.156 HD
ATOM     15  H   UNL     1      32.721 -15.785 -22.603  0.00  0.00    +0.157 HD
BRANCH  12  17
ATOM     16 BR   UNL     1      31.033 -11.528 -18.974  0.00  0.00    -0.049 Br
ATOM     17  C   UNL     1      32.911 -13.910 -21.804  0.00  0.00    +0.086 C 
ATOM     18  C   UNL     1      33.251 -13.023 -22.814  0.00  0.00    +0.152 C 
ATOM     19  C   UNL     1      32.256 -13.482 -20.661  0.00  0.00    +0.024 C 
ATOM     20  C   UNL     1      32.928 -11.674 -22.676  0.00  0.00    +0.039 C 
ATOM     21  C   UNL     1      31.932 -12.132 -20.523  0.00  0.00    +0.036 C 
ATOM     22  C   UNL     1      32.268 -11.228 -21.530  0.00  0.00    +0.010 C 
BRANCH  18  23
ATOM     23  O   UNL     1      33.894 -13.440 -23.941  0.00  0.00    -0.470 OA
ATOM     24  C   UNL     1      33.705 -12.661 -25.121  0.00  0.00    +0.253 C 
ENDBRANCH  18  23
ENDBRANCH  12  17
ENDBRANCH   5  11
BRANCH   1  25
ATOM     25  C   UNL     1      34.917 -22.878 -19.203  0.00  0.00    +0.122 C 
BRANCH  25  28
ATOM     26  N   UNL     1      35.793 -22.550 -15.020  0.00  0.00    -0.230 NA
ATOM     27  N   UNL     1      33.637 -23.431 -14.515  0.00  0.00    -0.343 N 
ATOM     28  C   UNL     1      35.224 -22.763 -17.734  0.00  0.00    +0.002 C 
ATOM     29  C   UNL     1      34.277 -23.154 -16.804  0.00  0.00    +0.031 C 
ATOM     30  C   UNL     1      36.450 -22.267 -17.330  0.00  0.00    +0.018 C 
ATOM     31  C   UNL     1      34.609 -23.029 -15.465  0.00  0.00    +0.125 C 
ATOM     32  C   UNL     1      36.685 -22.181 -15.967  0.00  0.00    +0.100 C 
ATOM     33  H   UNL     1      33.831 -23.359 -13.553  0.00  0.00    +0.144 HD
ATOM     34  H   UNL     1      32.769 -23.783 -14.818  0.00  0.00    +0.144 HD
ENDBRANCH  25  28
ENDBRANCH   1  25
TORSDOF 5
ENDMDL
MODEL 9
REMARK VINA RESULT:      -9.7      6.567     11.867
REMARK  Name = 11691242
REMARK  5 active torsions:
REMARK  status: ('A' for Active; 'I' for Inactive)
REMARK    1  A    between atoms: N_1  and  C_25
REMARK    2  A    between atoms: C_5  and  N_11
REMARK    3  A    between atoms: N_12  and  C_17
REMARK    4  A    between atoms: C_18  and  O_23
REMARK    5  A    between atoms: C_25  and  C_28
REMARK                            x       y       z     vdW  Elec       q    Type
REMARK                         _______ _______ _______ _____ _____    ______ ____
ROOT
ATOM      1  N   UNL     1      35.911 -18.911 -21.899  0.00  0.00    -0.282 N 
ATOM      2  C   UNL     1      35.231 -19.792 -21.090  0.00  0.00    +0.053 C 
ATOM      3  C   UNL     1      36.137 -20.251 -20.130  0.00  0.00    +0.028 C 
ATOM      4  C   UNL     1      37.211 -18.797 -21.487  0.00  0.00    +0.066 C 
ATOM      5  C   UNL     1      35.693 -21.177 -19.165  0.00  0.00    +0.053 C 
ATOM      6  C   UNL     1      37.383 -19.615 -20.394  0.00  0.00    +0.019 C 
ATOM      7  C   UNL     1      33.898 -20.214 -21.132  0.00  0.00    +0.015 C 
ATOM      8  C   UNL     1      34.361 -21.608 -19.195  0.00  0.00    +0.015 C 
ATOM      9  C   UNL     1      33.479 -21.133 -20.164  0.00  0.00    +0.003 C 
ENDROOT
BRANCH   5  11
ATOM     10  O   UNL     1      35.220 -23.198 -17.017  0.00  0.00    -0.252 OA
ATOM     11  N   UNL     1      36.556 -21.667 -18.185  0.00  0.00    -0.268 N 
ATOM     12  N   UNL     1      37.446 -22.832 -16.400  0.00  0.00    -0.266 N 
ATOM     13  C   UNL     1      36.295 -22.629 -17.179  0.00  0.00    +0.308 C 
ATOM     14  H   UNL     1      37.468 -21.295 -18.193  0.00  0.00    +0.156 HD
ATOM     15  H   UNL     1      38.236 -22.302 -16.651  0.00  0.00    +0.157 HD
BRANCH  12  17
ATOM     16 BR   UNL     1      40.474 -26.430 -14.044  0.00  0.00    -0.049 Br
ATOM     17  C   UNL     1      37.609 -23.706 -15.299  0.00  0.00    +0.086 C 
ATOM     18  C   UNL     1      36.635 -23.769 -14.315  0.00  0.00    +0.152 C 
ATOM     19  C   UNL     1      38.752 -24.486 -15.231  0.00  0.00    +0.024 C 
ATOM     20  C   UNL     1      36.809 -24.634 -13.236  0.00  0.00    +0.039 C 
ATOM     21  C   UNL     1      38.926 -25.352 -14.152  0.00  0.00    +0.036 C 
ATOM     22  C   UNL     1      37.955 -25.426 -13.154  0.00  0.00    +0.010 C 
BRANCH  18  23
ATOM     23  O   UNL     1      35.508 -23.005 -14.378  0.00  0.00    -0.470 OA
ATOM     24  C   UNL     1      34.272 -23.646 -14.068  0.00  0.00    +0.253 C 
ENDBRANCH  18  23
ENDBRANCH  12  17
ENDBRANCH   5  11
BRANCH   1  25
ATOM     25  C   UNL     1      35.349 -18.203 -23.030  0.00  0.00    +0.122 C 
BRANCH  25  28
ATOM     26  N   UNL     1      34.085 -14.258 -21.932  0.00  0.00    -0.230 NA
ATOM     27  N   UNL     1      33.968 -13.670 -24.238  0.00  0.00    -0.343 N 
ATOM     28  C   UNL     1      34.906 -16.818 -22.645  0.00  0.00    +0.002 C 
ATOM     29  C   UNL     1      34.643 -15.884 -23.631  0.00  0.00    +0.031 C 
ATOM     30  C   UNL     1      34.766 -16.492 -21.308  0.00  0.00    +0.018 C 
ATOM     31  C   UNL     1      34.237 -14.623 -23.225  0.00  0.00    +0.125 C 
ATOM     32  C   UNL     1      34.354 -15.204 -21.005  0.00  0.00    +0.100 C 
ATOM     33  H   UNL     1      33.676 -12.762 -23.994  0.00  0.00    +0.144 HD
ATOM     34  H   UNL     1      34.071 -13.916 -25.186  0.00  0.00    +0.144 HD
ENDBRANCH  25  28
ENDBRANCH   1  25
TORSDOF 5
ENDMDL
