MODEL 1
REMARK VINA RESULT:     -11.9      0.000      0.000
REMARK  Name = 11961293
REMARK  7 active torsions:
REMARK  status: ('A' for Active; 'I' for Inactive)
REMARK    1  A    between atoms: C_1  and  C_3
REMARK    2  A    between atoms: C_1  and  N_21
REMARK    3  A    between atoms: N_2  and  C_9
REMARK    4  A    between atoms: C_9  and  C_12
REMARK    5  A    between atoms: C_17  and  O_18
REMARK    6  A    between atoms: C_22  and  C_26
REMARK    7  A    between atoms: C_30  and  C_35
REMARK                            x       y       z     vdW  Elec       q    Type
REMARK                         _______ _______ _______ _____ _____    ______ ____
ROOT
ATOM      1  C   UNL     1      33.820 -15.132 -23.919  0.00  0.00    +0.089 C 
ENDROOT
BRANCH   1   3
ATOM      2  N   UNL     1      35.227 -18.506 -21.619  0.00  0.00    +0.387 N 
ATOM      3  C   UNL     1      34.776 -16.075 -23.194  0.00  0.00    +0.015 C 
ATOM      4  C   UNL     1      35.625 -18.452 -23.031  0.00  0.00    -0.077 C 
ATOM      5  C   UNL     1      35.327 -17.183 -20.989  0.00  0.00    -0.077 C 
ATOM      6  C   UNL     1      34.745 -17.476 -23.815  0.00  0.00    -0.021 C 
ATOM      7  C   UNL     1      34.436 -16.163 -21.703  0.00  0.00    -0.021 C 
ATOM      8  H   UNL     1      34.252 -18.801 -21.577  0.00  0.00    -0.080 HD
BRANCH   2   9
ATOM      9  C   UNL     1      36.043 -19.481 -20.894  0.00  0.00    -0.077 C 
BRANCH   9  12
ATOM     10  O   UNL     1      31.836 -22.500 -17.428  0.00  0.00    -0.226 OA
ATOM     11  N   UNL     1      33.683 -22.430 -18.836  0.00  0.00    -0.246 N 
ATOM     12  C   UNL     1      35.245 -20.750 -20.605  0.00  0.00    -0.017 C 
ATOM     13  C   UNL     1      33.791 -20.412 -20.243  0.00  0.00    +0.020 C 
ATOM     14  C   UNL     1      35.899 -21.559 -19.473  0.00  0.00    +0.020 C 
ATOM     15  C   UNL     1      33.004 -21.669 -19.883  0.00  0.00    +0.097 C 
ATOM     16  C   UNL     1      35.073 -22.797 -19.128  0.00  0.00    +0.097 C 
ATOM     17  C   UNL     1      33.001 -22.805 -17.675  0.00  0.00    +0.405 C 
BRANCH  17  18
ATOM     18  O   UNL     1      33.772 -23.558 -16.830  0.00  0.00    -0.430 OA
ATOM     19  C   UNL     1      33.318 -23.649 -15.474  0.00  0.00    +0.257 C 
ENDBRANCH  17  18
ENDBRANCH   9  12
ENDBRANCH   2   9
ENDBRANCH   1   3
BRANCH   1  21
ATOM     20  O   UNL     1      34.072 -12.278 -23.743  0.00  0.00    -0.270 OA
ATOM     21  N   UNL     1      33.139 -14.256 -22.978  0.00  0.00    -0.301 N 
ATOM     22  C   UNL     1      33.331 -12.889 -22.977  0.00  0.00    +0.247 C 
ATOM     23  H   UNL     1      32.521 -14.651 -22.320  0.00  0.00    +0.150 HD
BRANCH  22  26
ATOM     24  N   UNL     1      31.535  -8.714 -21.483  0.00  0.00    -0.318 N 
ATOM     25  N   UNL     1      32.656  -9.854 -23.026  0.00  0.00    -0.318 N 
ATOM     26  C   UNL     1      32.583 -12.137 -21.937  0.00  0.00    +0.068 C 
ATOM     27  C   UNL     1      32.332 -10.769 -22.059  0.00  0.00    +0.063 C 
ATOM     28  C   UNL     1      32.092 -12.768 -20.789  0.00  0.00    +0.006 C 
ATOM     29  C   UNL     1      31.632 -10.034 -21.107  0.00  0.00    +0.059 C 
ATOM     30  C   UNL     1      32.159  -8.642 -22.638  0.00  0.00    +0.144 C 
ATOM     31  C   UNL     1      31.386 -12.056 -19.816  0.00  0.00    +0.001 C 
ATOM     32  C   UNL     1      31.147 -10.683 -19.959  0.00  0.00    +0.016 C 
ATOM     33  H   UNL     1      31.093  -7.982 -20.995  0.00  0.00    +0.148 HD
ATOM     34  H   UNL     1      33.158 -10.038 -23.854  0.00  0.00    +0.148 HD
BRANCH  30  35
ATOM     35  C   UNL     1      32.282  -7.380 -23.389  0.00  0.00    +0.037 C 
ATOM     36  C   UNL     1      31.119  -6.393 -23.122  0.00  0.00    +0.003 C 
ATOM     37  C   UNL     1      33.629  -6.655 -23.152  0.00  0.00    +0.003 C 
ENDBRANCH  30  35
ENDBRANCH  22  26
ENDBRANCH   1  21
TORSDOF 7
ENDMDL
MODEL 2
REMARK VINA RESULT:     -11.8      2.704      4.745
REMARK  Name = 11961293
REMARK  7 active torsions:
REMARK  status: ('A' for Active; 'I' for Inactive)
REMARK    1  A    between atoms: C_1  and  C_3
REMARK    2  A    between atoms: C_1  and  N_21
REMARK    3  A    between atoms: N_2  and  C_9
REMARK    4  A    between atoms: C_9  and  C_12
REMARK    5  A    between atoms: C_17  and  O_18
REMARK    6  A    between atoms: C_22  and  C_26
REMARK    7  A    between atoms: C_30  and  C_35
REMARK                            x       y       z     vdW  Elec       q    Type
REMARK                         _______ _______ _______ _____ _____    ______ ____
ROOT
ATOM      1  C   UNL     1      35.946 -18.828 -21.401  0.00  0.00    +0.089 C 
ENDROOT
BRANCH   1   3
ATOM      2  N   UNL     1      34.314 -21.911 -18.854  0.00  0.00    +0.387 N 
ATOM      3  C   UNL     1      35.391 -20.179 -20.961  0.00  0.00    +0.015 C 
ATOM      4  C   UNL     1      33.431 -21.374 -19.897  0.00  0.00    -0.077 C 
ATOM      5  C   UNL     1      35.674 -22.122 -19.368  0.00  0.00    -0.077 C 
ATOM      6  C   UNL     1      33.958 -20.041 -20.434  0.00  0.00    -0.021 C 
ATOM      7  C   UNL     1      36.278 -20.814 -19.885  0.00  0.00    -0.021 C 
ATOM      8  H   UNL     1      34.366 -21.225 -18.101  0.00  0.00    -0.080 HD
BRANCH   2   9
ATOM      9  C   UNL     1      33.771 -23.158 -18.315  0.00  0.00    -0.077 C 
BRANCH   9  12
ATOM     10  O   UNL     1      32.246 -25.662 -12.817  0.00  0.00    -0.226 OA
ATOM     11  N   UNL     1      32.147 -23.981 -14.418  0.00  0.00    -0.246 N 
ATOM     12  C   UNL     1      33.324 -22.976 -16.867  0.00  0.00    -0.017 C 
ATOM     13  C   UNL     1      34.086 -23.931 -15.935  0.00  0.00    +0.020 C 
ATOM     14  C   UNL     1      31.810 -23.199 -16.731  0.00  0.00    +0.020 C 
ATOM     15  C   UNL     1      33.597 -23.807 -14.495  0.00  0.00    +0.097 C 
ATOM     16  C   UNL     1      31.361 -23.087 -15.275  0.00  0.00    +0.097 C 
ATOM     17  C   UNL     1      31.591 -24.912 -13.538  0.00  0.00    +0.405 C 
BRANCH  17  18
ATOM     18  O   UNL     1      30.221 -24.903 -13.556  0.00  0.00    -0.430 OA
ATOM     19  C   UNL     1      29.594 -25.905 -14.367  0.00  0.00    +0.257 C 
ENDBRANCH  17  18
ENDBRANCH   9  12
ENDBRANCH   2   9
ENDBRANCH   1   3
BRANCH   1  21
ATOM     20  O   UNL     1      35.567 -16.362 -22.823  0.00  0.00    -0.270 OA
ATOM     21  N   UNL     1      35.035 -17.750 -21.045  0.00  0.00    -0.301 N 
ATOM     22  C   UNL     1      34.928 -16.600 -21.801  0.00  0.00    +0.247 C 
ATOM     23  H   UNL     1      34.476 -17.845 -20.240  0.00  0.00    +0.150 HD
BRANCH  22  26
ATOM     24  N   UNL     1      32.749 -12.389 -22.439  0.00  0.00    -0.318 N 
ATOM     25  N   UNL     1      34.179 -13.918 -23.185  0.00  0.00    -0.318 N 
ATOM     26  C   UNL     1      33.973 -15.584 -21.291  0.00  0.00    +0.068 C 
ATOM     27  C   UNL     1      33.706 -14.408 -21.995  0.00  0.00    +0.063 C 
ATOM     28  C   UNL     1      33.294 -15.761 -20.081  0.00  0.00    +0.006 C 
ATOM     29  C   UNL     1      32.814 -13.437 -21.549  0.00  0.00    +0.059 C 
ATOM     30  C   UNL     1      33.578 -12.711 -23.407  0.00  0.00    +0.144 C 
ATOM     31  C   UNL     1      32.393 -14.803 -19.608  0.00  0.00    +0.001 C 
ATOM     32  C   UNL     1      32.141 -13.631 -20.331  0.00  0.00    +0.016 C 
ATOM     33  H   UNL     1      32.199 -11.576 -22.367  0.00  0.00    +0.148 HD
ATOM     34  H   UNL     1      34.834 -14.358 -23.774  0.00  0.00    +0.148 HD
BRANCH  30  35
ATOM     35  C   UNL     1      33.801 -11.840 -24.575  0.00  0.00    +0.037 C 
ATOM     36  C   UNL     1      34.964 -10.838 -24.378  0.00  0.00    +0.003 C 
ATOM     37  C   UNL     1      34.025 -12.627 -25.890  0.00  0.00    +0.003 C 
ENDBRANCH  30  35
ENDBRANCH  22  26
ENDBRANCH   1  21
TORSDOF 7
ENDMDL
MODEL 3
REMARK VINA RESULT:     -11.3      2.743      4.601
REMARK  Name = 11961293
REMARK  7 active torsions:
REMARK  status: ('A' for Active; 'I' for Inactive)
REMARK    1  A    between atoms: C_1  and  C_3
REMARK    2  A    between atoms: C_1  and  N_21
REMARK    3  A    between atoms: N_2  and  C_9
REMARK    4  A    between atoms: C_9  and  C_12
REMARK    5  A    between atoms: C_17  and  O_18
REMARK    6  A    between atoms: C_22  and  C_26
REMARK    7  A    between atoms: C_30  and  C_35
REMARK                            x       y       z     vdW  Elec       q    Type
REMARK                         _______ _______ _______ _____ _____    ______ ____
ROOT
ATOM      1  C   UNL     1      35.930 -18.537 -22.007  0.00  0.00    +0.089 C 
ENDROOT
BRANCH   1   3
ATOM      2  N   UNL     1      35.034 -21.486 -18.981  0.00  0.00    +0.387 N 
ATOM      3  C   UNL     1      35.615 -19.887 -21.369  0.00  0.00    +0.015 C 
ATOM      4  C   UNL     1      33.971 -21.179 -19.945  0.00  0.00    -0.077 C 
ATOM      5  C   UNL     1      36.340 -21.590 -19.646  0.00  0.00    -0.077 C 
ATOM      6  C   UNL     1      34.249 -19.862 -20.673  0.00  0.00    -0.021 C 
ATOM      7  C   UNL     1      36.700 -20.286 -20.363  0.00  0.00    -0.021 C 
ATOM      8  H   UNL     1      35.084 -20.718 -18.311  0.00  0.00    -0.080 HD
BRANCH   2   9
ATOM      9  C   UNL     1      34.729 -22.720 -18.257  0.00  0.00    -0.077 C 
BRANCH   9  12
ATOM     10  O   UNL     1      38.532 -24.572 -13.681  0.00  0.00    -0.226 OA
ATOM     11  N   UNL     1      36.532 -23.695 -14.475  0.00  0.00    -0.246 N 
ATOM     12  C   UNL     1      35.178 -22.622 -16.801  0.00  0.00    -0.017 C 
ATOM     13  C   UNL     1      36.711 -22.652 -16.699  0.00  0.00    +0.020 C 
ATOM     14  C   UNL     1      34.569 -23.759 -15.965  0.00  0.00    +0.020 C 
ATOM     15  C   UNL     1      37.169 -22.626 -15.243  0.00  0.00    +0.097 C 
ATOM     16  C   UNL     1      35.066 -23.713 -14.521  0.00  0.00    +0.097 C 
ATOM     17  C   UNL     1      37.304 -24.584 -13.723  0.00  0.00    +0.405 C 
BRANCH  17  18
ATOM     18  O   UNL     1      36.542 -25.484 -13.025  0.00  0.00    -0.430 OA
ATOM     19  C   UNL     1      37.260 -26.470 -12.274  0.00  0.00    +0.257 C 
ENDBRANCH  17  18
ENDBRANCH   9  12
ENDBRANCH   2   9
ENDBRANCH   1   3
BRANCH   1  21
ATOM     20  O   UNL     1      35.529 -15.937 -23.156  0.00  0.00    -0.270 OA
ATOM     21  N   UNL     1      35.012 -17.512 -21.536  0.00  0.00    -0.301 N 
ATOM     22  C   UNL     1      34.894 -16.288 -22.164  0.00  0.00    +0.247 C 
ATOM     23  H   UNL     1      34.456 -17.697 -20.745  0.00  0.00    +0.150 HD
BRANCH  22  26
ATOM     24  N   UNL     1      32.780 -11.998 -22.269  0.00  0.00    -0.318 N 
ATOM     25  N   UNL     1      34.219 -13.426 -23.177  0.00  0.00    -0.318 N 
ATOM     26  C   UNL     1      33.932 -15.341 -21.546  0.00  0.00    +0.068 C 
ATOM     27  C   UNL     1      33.701 -14.073 -22.085  0.00  0.00    +0.063 C 
ATOM     28  C   UNL     1      33.209 -15.677 -20.397  0.00  0.00    +0.006 C 
ATOM     29  C   UNL     1      32.804 -13.161 -21.535  0.00  0.00    +0.059 C 
ATOM     30  C   UNL     1      33.639 -12.191 -23.245  0.00  0.00    +0.144 C 
ATOM     31  C   UNL     1      32.303 -14.782 -19.822  0.00  0.00    +0.001 C 
ATOM     32  C   UNL     1      32.088 -13.516 -20.380  0.00  0.00    +0.016 C 
ATOM     33  H   UNL     1      32.236 -11.194 -22.100  0.00  0.00    +0.148 HD
ATOM     34  H   UNL     1      34.891 -13.788 -23.801  0.00  0.00    +0.148 HD
BRANCH  30  35
ATOM     35  C   UNL     1      33.911 -11.167 -24.270  0.00  0.00    +0.037 C 
ATOM     36  C   UNL     1      34.728  -9.967 -23.733  0.00  0.00    +0.003 C 
ATOM     37  C   UNL     1      34.607 -11.734 -25.531  0.00  0.00    +0.003 C 
ENDBRANCH  30  35
ENDBRANCH  22  26
ENDBRANCH   1  21
TORSDOF 7
ENDMDL
MODEL 4
REMARK VINA RESULT:     -11.2      2.697      5.523
REMARK  Name = 11961293
REMARK  7 active torsions:
REMARK  status: ('A' for Active; 'I' for Inactive)
REMARK    1  A    between atoms: C_1  and  C_3
REMARK    2  A    between atoms: C_1  and  N_21
REMARK    3  A    between atoms: N_2  and  C_9
REMARK    4  A    between atoms: C_9  and  C_12
REMARK    5  A    between atoms: C_17  and  O_18
REMARK    6  A    between atoms: C_22  and  C_26
REMARK    7  A    between atoms: C_30  and  C_35
REMARK                            x       y       z     vdW  Elec       q    Type
REMARK                         _______ _______ _______ _____ _____    ______ ____
ROOT
ATOM      1  C   UNL     1      36.679 -19.279 -21.011  0.00  0.00    +0.089 C 
ENDROOT
BRANCH   1   3
ATOM      2  N   UNL     1      34.156 -21.963 -18.756  0.00  0.00    +0.387 N 
ATOM      3  C   UNL     1      35.822 -20.494 -20.670  0.00  0.00    +0.015 C 
ATOM      4  C   UNL     1      33.543 -21.279 -19.901  0.00  0.00    -0.077 C 
ATOM      5  C   UNL     1      35.508 -22.436 -19.082  0.00  0.00    -0.077 C 
ATOM      6  C   UNL     1      34.383 -20.078 -20.342  0.00  0.00    -0.021 C 
ATOM      7  C   UNL     1      36.416 -21.274 -19.493  0.00  0.00    -0.021 C 
ATOM      8  H   UNL     1      34.235 -21.290 -17.992  0.00  0.00    -0.080 HD
BRANCH   2   9
ATOM      9  C   UNL     1      33.317 -23.077 -18.314  0.00  0.00    -0.077 C 
BRANCH   9  12
ATOM     10  O   UNL     1      32.106 -25.744 -12.814  0.00  0.00    -0.226 OA
ATOM     11  N   UNL     1      31.927 -24.011 -14.353  0.00  0.00    -0.246 N 
ATOM     12  C   UNL     1      32.962 -22.938 -16.836  0.00  0.00    -0.017 C 
ATOM     13  C   UNL     1      33.769 -23.929 -15.984  0.00  0.00    +0.020 C 
ATOM     14  C   UNL     1      31.456 -23.152 -16.614  0.00  0.00    +0.020 C 
ATOM     15  C   UNL     1      33.371 -23.847 -14.513  0.00  0.00    +0.097 C 
ATOM     16  C   UNL     1      31.098 -23.083 -15.130  0.00  0.00    +0.097 C 
ATOM     17  C   UNL     1      31.415 -24.966 -13.469  0.00  0.00    +0.405 C 
BRANCH  17  18
ATOM     18  O   UNL     1      30.047 -24.944 -13.403  0.00  0.00    -0.430 OA
ATOM     19  C   UNL     1      29.358 -25.841 -14.284  0.00  0.00    +0.257 C 
ENDBRANCH  17  18
ENDBRANCH   9  12
ENDBRANCH   2   9
ENDBRANCH   1   3
BRANCH   1  21
ATOM     20  O   UNL     1      35.201 -16.859 -20.557  0.00  0.00    -0.270 OA
ATOM     21  N   UNL     1      36.033 -18.453 -22.020  0.00  0.00    -0.301 N 
ATOM     22  C   UNL     1      35.344 -17.302 -21.694  0.00  0.00    +0.247 C 
ATOM     23  H   UNL     1      36.090 -18.723 -22.965  0.00  0.00    +0.150 HD
BRANCH  22  26
ATOM     24  N   UNL     1      32.776 -13.569 -23.232  0.00  0.00    -0.318 N 
ATOM     25  N   UNL     1      33.713 -14.659 -21.537  0.00  0.00    -0.318 N 
ATOM     26  C   UNL     1      34.719 -16.584 -22.835  0.00  0.00    +0.068 C 
ATOM     27  C   UNL     1      34.006 -15.398 -22.653  0.00  0.00    +0.063 C 
ATOM     28  C   UNL     1      34.820 -17.064 -24.145  0.00  0.00    +0.006 C 
ATOM     29  C   UNL     1      33.411 -14.697 -23.699  0.00  0.00    +0.059 C 
ATOM     30  C   UNL     1      32.977 -13.577 -21.933  0.00  0.00    +0.144 C 
ATOM     31  C   UNL     1      34.234 -16.382 -25.214  0.00  0.00    +0.001 C 
ATOM     32  C   UNL     1      33.522 -15.194 -25.008  0.00  0.00    +0.016 C 
ATOM     33  H   UNL     1      32.279 -12.900 -23.756  0.00  0.00    +0.148 HD
ATOM     34  H   UNL     1      33.984 -14.870 -20.613  0.00  0.00    +0.148 HD
BRANCH  30  35
ATOM     35  C   UNL     1      32.453 -12.522 -21.047  0.00  0.00    +0.037 C 
ATOM     36  C   UNL     1      31.417 -11.602 -21.739  0.00  0.00    +0.003 C 
ATOM     37  C   UNL     1      31.847 -13.071 -19.732  0.00  0.00    +0.003 C 
ENDBRANCH  30  35
ENDBRANCH  22  26
ENDBRANCH   1  21
TORSDOF 7
ENDMDL
MODEL 5
REMARK VINA RESULT:     -11.1      2.609     12.265
REMARK  Name = 11961293
REMARK  7 active torsions:
REMARK  status: ('A' for Active; 'I' for Inactive)
REMARK    1  A    between atoms: C_1  and  C_3
REMARK    2  A    between atoms: C_1  and  N_21
REMARK    3  A    between atoms: N_2  and  C_9
REMARK    4  A    between atoms: C_9  and  C_12
REMARK    5  A    between atoms: C_17  and  O_18
REMARK    6  A    between atoms: C_22  and  C_26
REMARK    7  A    between atoms: C_30  and  C_35
REMARK                            x       y       z     vdW  Elec       q    Type
REMARK                         _______ _______ _______ _____ _____    ______ ____
ROOT
ATOM      1  C   UNL     1      36.789 -21.748 -19.048  0.00  0.00    +0.089 C 
ENDROOT
BRANCH   1   3
ATOM      2  N   UNL     1      35.310 -18.514 -21.501  0.00  0.00    +0.387 N 
ATOM      3  C   UNL     1      36.366 -20.967 -20.289  0.00  0.00    +0.015 C 
ATOM      4  C   UNL     1      36.731 -18.860 -21.641  0.00  0.00    -0.077 C 
ATOM      5  C   UNL     1      34.477 -19.721 -21.417  0.00  0.00    -0.077 C 
ATOM      6  C   UNL     1      37.214 -19.700 -20.457  0.00  0.00    -0.021 C 
ATOM      7  C   UNL     1      34.883 -20.590 -20.224  0.00  0.00    -0.021 C 
ATOM      8  H   UNL     1      35.197 -17.994 -20.631  0.00  0.00    -0.080 HD
BRANCH   2   9
ATOM      9  C   UNL     1      34.876 -17.669 -22.613  0.00  0.00    -0.077 C 
BRANCH   9  12
ATOM     10  O   UNL     1      31.944 -12.972 -19.756  0.00  0.00    -0.226 OA
ATOM     11  N   UNL     1      33.415 -13.830 -21.337  0.00  0.00    -0.246 N 
ATOM     12  C   UNL     1      34.840 -16.200 -22.199  0.00  0.00    -0.017 C 
ATOM     13  C   UNL     1      34.314 -16.050 -20.763  0.00  0.00    +0.020 C 
ATOM     14  C   UNL     1      33.975 -15.380 -23.169  0.00  0.00    +0.020 C 
ATOM     15  C   UNL     1      34.208 -14.581 -20.364  0.00  0.00    +0.097 C 
ATOM     16  C   UNL     1      33.875 -13.922 -22.727  0.00  0.00    +0.097 C 
ATOM     17  C   UNL     1      32.332 -13.052 -20.920  0.00  0.00    +0.405 C 
BRANCH  17  18
ATOM     18  O   UNL     1      31.739 -12.376 -21.953  0.00  0.00    -0.430 OA
ATOM     19  C   UNL     1      31.280 -11.050 -21.660  0.00  0.00    +0.257 C 
ENDBRANCH  17  18
ENDBRANCH   9  12
ENDBRANCH   2   9
ENDBRANCH   1   3
BRANCH   1  21
ATOM     20  O   UNL     1      36.775 -22.852 -16.398  0.00  0.00    -0.270 OA
ATOM     21  N   UNL     1      35.627 -22.216 -18.308  0.00  0.00    -0.301 N 
ATOM     22  C   UNL     1      35.729 -22.733 -17.032  0.00  0.00    +0.247 C 
ATOM     23  H   UNL     1      34.739 -22.162 -18.730  0.00  0.00    +0.150 HD
BRANCH  22  26
ATOM     24  N   UNL     1      33.506 -24.785 -13.326  0.00  0.00    -0.318 N 
ATOM     25  N   UNL     1      35.403 -24.098 -14.257  0.00  0.00    -0.318 N 
ATOM     26  C   UNL     1      34.455 -23.191 -16.421  0.00  0.00    +0.068 C 
ATOM     27  C   UNL     1      34.420 -23.794 -15.163  0.00  0.00    +0.063 C 
ATOM     28  C   UNL     1      33.231 -23.036 -17.080  0.00  0.00    +0.006 C 
ATOM     29  C   UNL     1      33.244 -24.232 -14.559  0.00  0.00    +0.059 C 
ATOM     30  C   UNL     1      34.808 -24.688 -13.178  0.00  0.00    +0.144 C 
ATOM     31  C   UNL     1      32.036 -23.466 -16.499  0.00  0.00    +0.001 C 
ATOM     32  C   UNL     1      32.024 -24.069 -15.235  0.00  0.00    +0.016 C 
ATOM     33  H   UNL     1      32.858 -25.170 -12.693  0.00  0.00    +0.148 HD
ATOM     34  H   UNL     1      36.366 -23.922 -14.366  0.00  0.00    +0.148 HD
BRANCH  30  35
ATOM     35  C   UNL     1      35.502 -25.172 -11.970  0.00  0.00    +0.037 C 
ATOM     36  C   UNL     1      36.795 -25.963 -12.284  0.00  0.00    +0.003 C 
ATOM     37  C   UNL     1      35.826 -24.046 -10.959  0.00  0.00    +0.003 C 
ENDBRANCH  30  35
ENDBRANCH  22  26
ENDBRANCH   1  21
TORSDOF 7
ENDMDL
MODEL 6
REMARK VINA RESULT:     -10.9      3.440     12.714
REMARK  Name = 11961293
REMARK  7 active torsions:
REMARK  status: ('A' for Active; 'I' for Inactive)
REMARK    1  A    between atoms: C_1  and  C_3
REMARK    2  A    between atoms: C_1  and  N_21
REMARK    3  A    between atoms: N_2  and  C_9
REMARK    4  A    between atoms: C_9  and  C_12
REMARK    5  A    between atoms: C_17  and  O_18
REMARK    6  A    between atoms: C_22  and  C_26
REMARK    7  A    between atoms: C_30  and  C_35
REMARK                            x       y       z     vdW  Elec       q    Type
REMARK                         _______ _______ _______ _____ _____    ______ ____
ROOT
ATOM      1  C   UNL     1      31.192 -12.309 -20.656  0.00  0.00    +0.089 C 
ENDROOT
BRANCH   1   3
ATOM      2  N   UNL     1      33.137  -8.487 -21.172  0.00  0.00    +0.387 N 
ATOM      3  C   UNL     1      31.374 -10.814 -20.902  0.00  0.00    +0.015 C 
ATOM      4  C   UNL     1      32.489  -9.069 -22.354  0.00  0.00    -0.077 C 
ATOM      5  C   UNL     1      32.302  -8.653 -19.975  0.00  0.00    -0.077 C 
ATOM      6  C   UNL     1      32.218 -10.562 -22.157  0.00  0.00    -0.021 C 
ATOM      7  C   UNL     1      32.025 -10.132 -19.695  0.00  0.00    -0.021 C 
ATOM      8  H   UNL     1      34.013  -8.985 -21.015  0.00  0.00    -0.080 HD
BRANCH   2   9
ATOM      9  C   UNL     1      33.436  -7.072 -21.395  0.00  0.00    -0.077 C 
BRANCH   9  12
ATOM     10  O   UNL     1      32.607  -2.728 -25.785  0.00  0.00    -0.226 OA
ATOM     11  N   UNL     1      31.832  -4.362 -24.325  0.00  0.00    -0.246 N 
ATOM     12  C   UNL     1      32.618  -6.521 -22.560  0.00  0.00    -0.017 C 
ATOM     13  C   UNL     1      33.538  -6.019 -23.684  0.00  0.00    +0.020 C 
ATOM     14  C   UNL     1      31.691  -5.389 -22.089  0.00  0.00    +0.020 C 
ATOM     15  C   UNL     1      32.732  -5.401 -24.824  0.00  0.00    +0.097 C 
ATOM     16  C   UNL     1      30.917  -4.783 -23.258  0.00  0.00    +0.097 C 
ATOM     17  C   UNL     1      31.843  -3.084 -24.890  0.00  0.00    +0.405 C 
BRANCH  17  18
ATOM     18  O   UNL     1      30.900  -2.256 -24.340  0.00  0.00    -0.430 OA
ATOM     19  C   UNL     1      29.864  -1.805 -25.221  0.00  0.00    +0.257 C 
ENDBRANCH  17  18
ENDBRANCH   9  12
ENDBRANCH   2   9
ENDBRANCH   1   3
BRANCH   1  21
ATOM     20  O   UNL     1      33.487 -14.023 -20.466  0.00  0.00    -0.270 OA
ATOM     21  N   UNL     1      31.784 -13.090 -21.731  0.00  0.00    -0.301 N 
ATOM     22  C   UNL     1      32.894 -13.887 -21.533  0.00  0.00    +0.247 C 
ATOM     23  H   UNL     1      31.380 -13.048 -22.629  0.00  0.00    +0.150 HD
BRANCH  22  26
ATOM     24  N   UNL     1      35.390 -17.544 -23.346  0.00  0.00    -0.318 N 
ATOM     25  N   UNL     1      34.638 -16.461 -21.557  0.00  0.00    -0.318 N 
ATOM     26  C   UNL     1      33.393 -14.600 -22.737  0.00  0.00    +0.068 C 
ATOM     27  C   UNL     1      34.172 -15.754 -22.635  0.00  0.00    +0.063 C 
ATOM     28  C   UNL     1      33.102 -14.149 -24.028  0.00  0.00    +0.006 C 
ATOM     29  C   UNL     1      34.654 -16.450 -23.741  0.00  0.00    +0.059 C 
ATOM     30  C   UNL     1      35.359 -17.520 -22.032  0.00  0.00    +0.144 C 
ATOM     31  C   UNL     1      33.572 -14.826 -25.156  0.00  0.00    +0.001 C 
ATOM     32  C   UNL     1      34.352 -15.982 -25.030  0.00  0.00    +0.016 C 
ATOM     33  H   UNL     1      35.841 -18.202 -23.923  0.00  0.00    +0.148 HD
ATOM     34  H   UNL     1      34.481 -16.244 -20.609  0.00  0.00    +0.148 HD
BRANCH  30  35
ATOM     35  C   UNL     1      36.038 -18.538 -21.210  0.00  0.00    +0.037 C 
ATOM     36  C   UNL     1      35.194 -19.820 -21.006  0.00  0.00    +0.003 C 
ATOM     37  C   UNL     1      37.435 -18.930 -21.751  0.00  0.00    +0.003 C 
ENDBRANCH  30  35
ENDBRANCH  22  26
ENDBRANCH   1  21
TORSDOF 7
ENDMDL
MODEL 7
REMARK VINA RESULT:     -10.9      2.660     12.529
REMARK  Name = 11961293
REMARK  7 active torsions:
REMARK  status: ('A' for Active; 'I' for Inactive)
REMARK    1  A    between atoms: C_1  and  C_3
REMARK    2  A    between atoms: C_1  and  N_21
REMARK    3  A    between atoms: N_2  and  C_9
REMARK    4  A    between atoms: C_9  and  C_12
REMARK    5  A    between atoms: C_17  and  O_18
REMARK    6  A    between atoms: C_22  and  C_26
REMARK    7  A    between atoms: C_30  and  C_35
REMARK                            x       y       z     vdW  Elec       q    Type
REMARK                         _______ _______ _______ _____ _____    ______ ____
ROOT
ATOM      1  C   UNL     1      34.498 -23.064 -19.269  0.00  0.00    +0.089 C 
ENDROOT
BRANCH   1   3
ATOM      2  N   UNL     1      35.722 -19.349 -21.102  0.00  0.00    +0.387 N 
ATOM      3  C   UNL     1      34.861 -21.589 -19.417  0.00  0.00    +0.015 C 
ATOM      4  C   UNL     1      34.334 -19.432 -20.630  0.00  0.00    -0.077 C 
ATOM      5  C   UNL     1      36.648 -19.950 -20.133  0.00  0.00    -0.077 C 
ATOM      6  C   UNL     1      33.916 -20.886 -20.399  0.00  0.00    -0.021 C 
ATOM      7  C   UNL     1      36.310 -21.422 -19.886  0.00  0.00    -0.021 C 
ATOM      8  H   UNL     1      35.791 -19.876 -21.972  0.00  0.00    -0.080 HD
BRANCH   2   9
ATOM      9  C   UNL     1      36.090 -17.958 -21.367  0.00  0.00    -0.077 C 
BRANCH   9  12
ATOM     10  O   UNL     1      33.995 -13.347 -24.997  0.00  0.00    -0.226 OA
ATOM     11  N   UNL     1      33.788 -14.835 -23.224  0.00  0.00    -0.246 N 
ATOM     12  C   UNL     1      34.917 -17.190 -21.969  0.00  0.00    -0.017 C 
ATOM     13  C   UNL     1      35.184 -16.852 -23.444  0.00  0.00    +0.020 C 
ATOM     14  C   UNL     1      34.639 -15.905 -21.173  0.00  0.00    +0.020 C 
ATOM     15  C   UNL     1      34.048 -16.023 -24.036  0.00  0.00    +0.097 C 
ATOM     16  C   UNL     1      33.511 -15.092 -21.806  0.00  0.00    +0.097 C 
ATOM     17  C   UNL     1      33.765 -13.566 -23.809  0.00  0.00    +0.405 C 
BRANCH  17  18
ATOM     18  O   UNL     1      33.453 -12.577 -22.914  0.00  0.00    -0.430 OA
ATOM     19  C   UNL     1      33.489 -11.236 -23.417  0.00  0.00    +0.257 C 
ENDBRANCH  17  18
ENDBRANCH   9  12
ENDBRANCH   2   9
ENDBRANCH   1   3
BRANCH   1  21
ATOM     20  O   UNL     1      32.078 -22.649 -17.782  0.00  0.00    -0.270 OA
ATOM     21  N   UNL     1      34.267 -23.405 -17.874  0.00  0.00    -0.301 N 
ATOM     22  C   UNL     1      33.060 -23.162 -17.250  0.00  0.00    +0.247 C 
ATOM     23  H   UNL     1      34.995 -23.823 -17.358  0.00  0.00    +0.150 HD
BRANCH  22  26
ATOM     24  N   UNL     1      35.146 -25.290 -13.508  0.00  0.00    -0.318 N 
ATOM     25  N   UNL     1      35.229 -24.714 -15.652  0.00  0.00    -0.318 N 
ATOM     26  C   UNL     1      32.991 -23.544 -15.816  0.00  0.00    +0.068 C 
ATOM     27  C   UNL     1      34.027 -24.243 -15.193  0.00  0.00    +0.063 C 
ATOM     28  C   UNL     1      31.886 -23.217 -15.024  0.00  0.00    +0.006 C 
ATOM     29  C   UNL     1      33.998 -24.614 -13.851  0.00  0.00    +0.059 C 
ATOM     30  C   UNL     1      35.861 -25.332 -14.610  0.00  0.00    +0.144 C 
ATOM     31  C   UNL     1      31.829 -23.577 -13.675  0.00  0.00    +0.001 C 
ATOM     32  C   UNL     1      32.880 -24.278 -13.071  0.00  0.00    +0.016 C 
ATOM     33  H   UNL     1      35.382 -25.662 -12.627  0.00  0.00    +0.148 HD
ATOM     34  H   UNL     1      35.575 -24.624 -16.570  0.00  0.00    +0.148 HD
BRANCH  30  35
ATOM     35  C   UNL     1      37.185 -25.979 -14.667  0.00  0.00    +0.037 C 
ATOM     36  C   UNL     1      38.348 -25.023 -14.305  0.00  0.00    +0.003 C 
ATOM     37  C   UNL     1      37.281 -27.252 -13.791  0.00  0.00    +0.003 C 
ENDBRANCH  30  35
ENDBRANCH  22  26
ENDBRANCH   1  21
TORSDOF 7
ENDMDL
MODEL 8
REMARK VINA RESULT:     -10.7      2.486     11.723
REMARK  Name = 11961293
REMARK  7 active torsions:
REMARK  status: ('A' for Active; 'I' for Inactive)
REMARK    1  A    between atoms: C_1  and  C_3
REMARK    2  A    between atoms: C_1  and  N_21
REMARK    3  A    between atoms: N_2  and  C_9
REMARK    4  A    between atoms: C_9  and  C_12
REMARK    5  A    between atoms: C_17  and  O_18
REMARK    6  A    between atoms: C_22  and  C_26
REMARK    7  A    between atoms: C_30  and  C_35
REMARK                            x       y       z     vdW  Elec       q    Type
REMARK                         _______ _______ _______ _____ _____    ______ ____
ROOT
ATOM      1  C   UNL     1      35.010 -22.749 -19.669  0.00  0.00    +0.089 C 
ENDROOT
BRANCH   1   3
ATOM      2  N   UNL     1      35.950 -18.902 -21.394  0.00  0.00    +0.387 N 
ATOM      3  C   UNL     1      35.263 -21.248 -19.775  0.00  0.00    +0.015 C 
ATOM      4  C   UNL     1      34.574 -19.101 -20.920  0.00  0.00    -0.077 C 
ATOM      5  C   UNL     1      36.922 -19.463 -20.446  0.00  0.00    -0.077 C 
ATOM      6  C   UNL     1      34.264 -20.588 -20.732  0.00  0.00    -0.021 C 
ATOM      7  C   UNL     1      36.693 -20.962 -20.242  0.00  0.00    -0.021 C 
ATOM      8  H   UNL     1      36.053 -19.398 -22.280  0.00  0.00    -0.080 HD
BRANCH   2   9
ATOM      9  C   UNL     1      36.214 -17.481 -21.618  0.00  0.00    -0.077 C 
BRANCH   9  12
ATOM     10  O   UNL     1      33.715 -12.869 -24.981  0.00  0.00    -0.226 OA
ATOM     11  N   UNL     1      33.650 -14.458 -23.286  0.00  0.00    -0.246 N 
ATOM     12  C   UNL     1      34.976 -16.777 -22.168  0.00  0.00    -0.017 C 
ATOM     13  C   UNL     1      35.195 -16.344 -23.626  0.00  0.00    +0.020 C 
ATOM     14  C   UNL     1      34.610 -15.561 -21.303  0.00  0.00    +0.020 C 
ATOM     15  C   UNL     1      33.989 -15.578 -24.162  0.00  0.00    +0.097 C 
ATOM     16  C   UNL     1      33.414 -14.808 -21.881  0.00  0.00    +0.097 C 
ATOM     17  C   UNL     1      33.519 -13.166 -23.804  0.00  0.00    +0.405 C 
BRANCH  17  18
ATOM     18  O   UNL     1      33.144 -12.252 -22.856  0.00  0.00    -0.430 OA
ATOM     19  C   UNL     1      33.203 -10.875 -23.247  0.00  0.00    +0.257 C 
ENDBRANCH  17  18
ENDBRANCH   9  12
ENDBRANCH   2   9
ENDBRANCH   1   3
BRANCH   1  21
ATOM     20  O   UNL     1      32.464 -22.405 -18.388  0.00  0.00    -0.270 OA
ATOM     21  N   UNL     1      34.666 -23.125 -18.306  0.00  0.00    -0.301 N 
ATOM     22  C   UNL     1      33.405 -22.915 -17.784  0.00  0.00    +0.247 C 
ATOM     23  H   UNL     1      35.354 -23.542 -17.738  0.00  0.00    +0.150 HD
BRANCH  22  26
ATOM     24  N   UNL     1      30.396 -24.051 -14.243  0.00  0.00    -0.318 N 
ATOM     25  N   UNL     1      30.692 -23.426 -16.355  0.00  0.00    -0.318 N 
ATOM     26  C   UNL     1      33.221 -23.329 -16.370  0.00  0.00    +0.068 C 
ATOM     27  C   UNL     1      31.952 -23.534 -15.825  0.00  0.00    +0.063 C 
ATOM     28  C   UNL     1      34.311 -23.536 -15.519  0.00  0.00    +0.006 C 
ATOM     29  C   UNL     1      31.741 -23.926 -14.506  0.00  0.00    +0.059 C 
ATOM     30  C   UNL     1      29.797 -23.745 -15.372  0.00  0.00    +0.144 C 
ATOM     31  C   UNL     1      34.131 -23.929 -14.191  0.00  0.00    +0.001 C 
ATOM     32  C   UNL     1      32.848 -24.129 -13.666  0.00  0.00    +0.016 C 
ATOM     33  H   UNL     1      29.974 -24.314 -13.393  0.00  0.00    +0.148 HD
ATOM     34  H   UNL     1      30.471 -23.166 -17.279  0.00  0.00    +0.148 HD
BRANCH  30  35
ATOM     35  C   UNL     1      28.330 -23.758 -15.514  0.00  0.00    +0.037 C 
ATOM     36  C   UNL     1      27.640 -22.546 -14.843  0.00  0.00    +0.003 C 
ATOM     37  C   UNL     1      27.859 -23.861 -16.986  0.00  0.00    +0.003 C 
ENDBRANCH  30  35
ENDBRANCH  22  26
ENDBRANCH   1  21
TORSDOF 7
ENDMDL
MODEL 9
REMARK VINA RESULT:     -10.7      2.660     11.620
REMARK  Name = 11961293
REMARK  7 active torsions:
REMARK  status: ('A' for Active; 'I' for Inactive)
REMARK    1  A    between atoms: C_1  and  C_3
REMARK    2  A    between atoms: C_1  and  N_21
REMARK    3  A    between atoms: N_2  and  C_9
REMARK    4  A    between atoms: C_9  and  C_12
REMARK    5  A    between atoms: C_17  and  O_18
REMARK    6  A    between atoms: C_22  and  C_26
REMARK    7  A    between atoms: C_30  and  C_35
REMARK                            x       y       z     vdW  Elec       q    Type
REMARK                         _______ _______ _______ _____ _____    ______ ____
ROOT
ATOM      1  C   UNL     1      35.286 -22.464 -19.760  0.00  0.00    +0.089 C 
ENDROOT
BRANCH   1   3
ATOM      2  N   UNL     1      35.769 -18.560 -21.542  0.00  0.00    +0.387 N 
ATOM      3  C   UNL     1      35.400 -20.948 -19.881  0.00  0.00    +0.015 C 
ATOM      4  C   UNL     1      34.451 -18.874 -20.976  0.00  0.00    -0.077 C 
ATOM      5  C   UNL     1      36.849 -19.029 -20.663  0.00  0.00    -0.077 C 
ATOM      6  C   UNL     1      34.285 -20.381 -20.768  0.00  0.00    -0.021 C 
ATOM      7  C   UNL     1      36.765 -20.542 -20.445  0.00  0.00    -0.021 C 
ATOM      8  H   UNL     1      35.854 -19.049 -22.433  0.00  0.00    -0.080 HD
BRANCH   2   9
ATOM      9  C   UNL     1      35.893 -17.122 -21.783  0.00  0.00    -0.077 C 
BRANCH   9  12
ATOM     10  O   UNL     1      32.451 -11.952 -22.284  0.00  0.00    -0.226 OA
ATOM     11  N   UNL     1      32.803 -14.138 -21.577  0.00  0.00    -0.246 N 
ATOM     12  C   UNL     1      34.520 -16.457 -21.829  0.00  0.00    -0.017 C 
ATOM     13  C   UNL     1      34.479 -15.360 -22.904  0.00  0.00    +0.020 C 
ATOM     14  C   UNL     1      34.153 -15.870 -20.457  0.00  0.00    +0.020 C 
ATOM     15  C   UNL     1      33.133 -14.641 -22.909  0.00  0.00    +0.097 C 
ATOM     16  C   UNL     1      32.811 -15.141 -20.506  0.00  0.00    +0.097 C 
ATOM     17  C   UNL     1      32.460 -12.796 -21.390  0.00  0.00    +0.405 C 
BRANCH  17  18
ATOM     18  O   UNL     1      32.128 -12.512 -20.092  0.00  0.00    -0.430 OA
ATOM     19  C   UNL     1      30.983 -11.670 -19.902  0.00  0.00    +0.257 C 
ENDBRANCH  17  18
ENDBRANCH   9  12
ENDBRANCH   2   9
ENDBRANCH   1   3
BRANCH   1  21
ATOM     20  O   UNL     1      32.747 -22.803 -18.463  0.00  0.00    -0.270 OA
ATOM     21  N   UNL     1      35.062 -22.860 -18.378  0.00  0.00    -0.301 N 
ATOM     22  C   UNL     1      33.793 -22.995 -17.849  0.00  0.00    +0.247 C 
ATOM     23  H   UNL     1      35.840 -23.038 -17.801  0.00  0.00    +0.150 HD
BRANCH  22  26
ATOM     24  N   UNL     1      31.111 -24.150 -14.060  0.00  0.00    -0.318 N 
ATOM     25  N   UNL     1      31.219 -23.568 -16.202  0.00  0.00    -0.318 N 
ATOM     26  C   UNL     1      33.734 -23.381 -16.416  0.00  0.00    +0.068 C 
ATOM     27  C   UNL     1      32.519 -23.617 -15.770  0.00  0.00    +0.063 C 
ATOM     28  C   UNL     1      34.894 -23.527 -15.649  0.00  0.00    +0.006 C 
ATOM     29  C   UNL     1      32.426 -23.984 -14.430  0.00  0.00    +0.059 C 
ATOM     30  C   UNL     1      30.416 -23.894 -15.146  0.00  0.00    +0.144 C 
ATOM     31  C   UNL     1      34.831 -23.894 -14.302  0.00  0.00    +0.001 C 
ATOM     32  C   UNL     1      33.601 -24.126 -13.675  0.00  0.00    +0.016 C 
ATOM     33  H   UNL     1      30.765 -24.407 -13.175  0.00  0.00    +0.148 HD
ATOM     34  H   UNL     1      30.918 -23.339 -17.112  0.00  0.00    +0.148 HD
BRANCH  30  35
ATOM     35  C   UNL     1      28.943 -23.963 -15.173  0.00  0.00    +0.037 C 
ATOM     36  C   UNL     1      28.266 -22.571 -15.167  0.00  0.00    +0.003 C 
ATOM     37  C   UNL     1      28.392 -24.792 -16.360  0.00  0.00    +0.003 C 
ENDBRANCH  30  35
ENDBRANCH  22  26
ENDBRANCH   1  21
TORSDOF 7
ENDMDL
