MODEL 1
REMARK VINA RESULT:     -12.3      0.000      0.000
REMARK  Name = 25174099
REMARK  5 active torsions:
REMARK  status: ('A' for Active; 'I' for Inactive)
REMARK    1  A    between atoms: C_5  and  C_33
REMARK    2  A    between atoms: C_14  and  C_18
REMARK    3  A    between atoms: N_17  and  C_20
REMARK    4  A    between atoms: C_20  and  C_24
REMARK    5  A    between atoms: C_33  and  C_36
REMARK                            x       y       z     vdW  Elec       q    Type
REMARK                         _______ _______ _______ _____ _____    ______ ____
ROOT
ATOM      1  S   UNL     1      37.430 -22.389 -16.183  0.00  0.00    -0.064 S 
ATOM      2  O   UNL     1      33.132 -22.899 -18.568  0.00  0.00    -0.274 OA
ATOM      3  N   UNL     1      36.896 -21.187 -18.515  0.00  0.00    -0.379 NA
ATOM      4  N   UNL     1      34.754 -21.552 -19.516  0.00  0.00    -0.255 N 
ATOM      5  C   UNL     1      33.843 -24.176 -15.794  0.00  0.00    +0.028 C 
ATOM      6  C   UNL     1      34.239 -25.245 -14.744  0.00  0.00    +0.005 C 
ATOM      7  C   UNL     1      35.055 -23.396 -16.244  0.00  0.00    -0.027 C 
ATOM      8  C   UNL     1      35.153 -24.677 -13.648  0.00  0.00    +0.006 C 
ATOM      9  C   UNL     1      36.462 -24.125 -14.226  0.00  0.00    +0.032 C 
ATOM     10  C   UNL     1      36.218 -23.364 -15.493  0.00  0.00    +0.002 C 
ATOM     11  C   UNL     1      35.199 -22.616 -17.439  0.00  0.00    +0.154 C 
ATOM     12  C   UNL     1      36.443 -22.003 -17.520  0.00  0.00    +0.152 C 
ATOM     13  C   UNL     1      34.249 -22.393 -18.526  0.00  0.00    +0.239 C 
ATOM     14  C   UNL     1      36.026 -21.002 -19.460  0.00  0.00    +0.240 C 
ATOM     15  H   UNL     1      34.182 -21.337 -20.288  0.00  0.00    +0.157 HD
ENDROOT
BRANCH  14  18
ATOM     16  O   UNL     1      37.526 -19.696 -20.656  0.00  0.00    -0.266 OA
ATOM     17  N   UNL     1      35.347 -19.937 -21.490  0.00  0.00    -0.294 N 
ATOM     18  C   UNL     1      36.385 -20.135 -20.606  0.00  0.00    +0.290 C 
ATOM     19  H   UNL     1      34.483 -20.368 -21.301  0.00  0.00    +0.150 HD
BRANCH  17  20
ATOM     20  C   UNL     1      35.468 -19.128 -22.681  0.00  0.00    +0.117 C 
BRANCH  20  24
ATOM     21  O   UNL     1      33.906 -13.779 -21.707  0.00  0.00    -0.464 OA
ATOM     22  O   UNL     1      33.665 -12.563 -25.101  0.00  0.00    -0.271 OA
ATOM     23  N   UNL     1      34.248 -14.665 -24.371  0.00  0.00    -0.279 N 
ATOM     24  C   UNL     1      35.041 -17.709 -22.441  0.00  0.00    -0.001 C 
ATOM     25  C   UNL     1      34.426 -15.536 -23.293  0.00  0.00    +0.085 C 
ATOM     26  C   UNL     1      34.830 -16.853 -23.522  0.00  0.00    +0.015 C 
ATOM     27  C   UNL     1      34.243 -15.073 -21.990  0.00  0.00    +0.153 C 
ATOM     28  C   UNL     1      34.861 -17.247 -21.137  0.00  0.00    +0.001 C 
ATOM     29  C   UNL     1      34.470 -15.927 -20.910  0.00  0.00    +0.038 C 
ATOM     30  C   UNL     1      33.297 -13.091 -22.783  0.00  0.00    +0.290 C 
ATOM     31  C   UNL     1      33.774 -13.386 -24.195  0.00  0.00    +0.271 C 
ATOM     32  H   UNL     1      34.466 -14.974 -25.280  0.00  0.00    +0.155 HD
ENDBRANCH  20  24
ENDBRANCH  17  20
ENDBRANCH  14  18
BRANCH   5  33
ATOM     33  C   UNL     1      32.761 -23.245 -15.236  0.00  0.00    +0.089 C 
BRANCH  33  36
ATOM     34  O   UNL     1      30.784 -24.642 -15.083  0.00  0.00    -0.275 OA
ATOM     35  N   UNL     1      30.838 -22.937 -16.626  0.00  0.00    -0.329 N 
ATOM     36  C   UNL     1      31.373 -23.703 -15.612  0.00  0.00    +0.220 C 
ATOM     37  H   UNL     1      29.935 -23.132 -16.966  0.00  0.00    +0.145 HD
ATOM     38  H   UNL     1      31.360 -22.197 -17.011  0.00  0.00    +0.145 HD
ENDBRANCH  33  36
ENDBRANCH   5  33
TORSDOF 5
ENDMDL
MODEL 2
REMARK VINA RESULT:     -11.9      2.591     10.372
REMARK  Name = 25174099
REMARK  5 active torsions:
REMARK  status: ('A' for Active; 'I' for Inactive)
REMARK    1  A    between atoms: C_5  and  C_33
REMARK    2  A    between atoms: C_14  and  C_18
REMARK    3  A    between atoms: N_17  and  C_20
REMARK    4  A    between atoms: C_20  and  C_24
REMARK    5  A    between atoms: C_33  and  C_36
REMARK                            x       y       z     vdW  Elec       q    Type
REMARK                         _______ _______ _______ _____ _____    ______ ____
ROOT
ATOM      1  S   UNL     1      34.657 -17.418 -24.895  0.00  0.00    -0.064 S 
ATOM      2  O   UNL     1      34.691 -15.060 -20.553  0.00  0.00    -0.274 OA
ATOM      3  N   UNL     1      35.536 -18.535 -22.626  0.00  0.00    -0.379 NA
ATOM      4  N   UNL     1      35.469 -17.235 -20.620  0.00  0.00    -0.255 N 
ATOM      5  C   UNL     1      33.605 -13.895 -23.255  0.00  0.00    +0.028 C 
ATOM      6  C   UNL     1      33.542 -13.054 -24.554  0.00  0.00    +0.005 C 
ATOM      7  C   UNL     1      34.109 -15.289 -23.545  0.00  0.00    -0.027 C 
ATOM      8  C   UNL     1      32.873 -13.813 -25.710  0.00  0.00    +0.006 C 
ATOM      9  C   UNL     1      33.628 -15.102 -26.058  0.00  0.00    +0.032 C 
ATOM     10  C   UNL     1      34.073 -15.821 -24.822  0.00  0.00    +0.002 C 
ATOM     11  C   UNL     1      34.669 -16.228 -22.617  0.00  0.00    +0.154 C 
ATOM     12  C   UNL     1      34.998 -17.433 -23.223  0.00  0.00    +0.152 C 
ATOM     13  C   UNL     1      34.924 -16.084 -21.186  0.00  0.00    +0.239 C 
ATOM     14  C   UNL     1      35.741 -18.380 -21.355  0.00  0.00    +0.240 C 
ATOM     15  H   UNL     1      35.669 -17.237 -19.656  0.00  0.00    +0.157 HD
ENDROOT
BRANCH  14  18
ATOM     16  O   UNL     1      37.453 -19.361 -20.133  0.00  0.00    -0.266 OA
ATOM     17  N   UNL     1      35.478 -20.582 -20.462  0.00  0.00    -0.294 N 
ATOM     18  C   UNL     1      36.322 -19.499 -20.579  0.00  0.00    +0.290 C 
ATOM     19  H   UNL     1      34.590 -20.531 -20.884  0.00  0.00    +0.150 HD
BRANCH  17  20
ATOM     20  C   UNL     1      35.833 -21.786 -19.746  0.00  0.00    +0.117 C 
BRANCH  20  24
ATOM     21  O   UNL     1      31.738 -23.371 -16.181  0.00  0.00    -0.464 OA
ATOM     22  O   UNL     1      33.720 -24.944 -13.601  0.00  0.00    -0.271 OA
ATOM     23  N   UNL     1      34.433 -23.950 -15.549  0.00  0.00    -0.279 N 
ATOM     24  C   UNL     1      34.759 -22.203 -18.783  0.00  0.00    -0.001 C 
ATOM     25  C   UNL     1      34.099 -23.249 -16.711  0.00  0.00    +0.085 C 
ATOM     26  C   UNL     1      35.100 -22.871 -17.607  0.00  0.00    +0.015 C 
ATOM     27  C   UNL     1      32.762 -22.972 -16.993  0.00  0.00    +0.153 C 
ATOM     28  C   UNL     1      33.422 -21.927 -19.068  0.00  0.00    +0.001 C 
ATOM     29  C   UNL     1      32.422 -22.318 -18.177  0.00  0.00    +0.038 C 
ATOM     30  C   UNL     1      32.127 -23.640 -14.848  0.00  0.00    +0.290 C 
ATOM     31  C   UNL     1      33.487 -24.271 -14.603  0.00  0.00    +0.271 C 
ATOM     32  H   UNL     1      35.368 -24.221 -15.403  0.00  0.00    +0.155 HD
ENDBRANCH  20  24
ENDBRANCH  17  20
ENDBRANCH  14  18
BRANCH   5  33
ATOM     33  C   UNL     1      32.235 -13.933 -22.568  0.00  0.00    +0.089 C 
BRANCH  33  36
ATOM     34  O   UNL     1      31.906 -11.674 -21.748  0.00  0.00    -0.275 OA
ATOM     35  N   UNL     1      32.228 -13.381 -20.240  0.00  0.00    -0.329 N 
ATOM     36  C   UNL     1      32.103 -12.864 -21.511  0.00  0.00    +0.220 C 
ATOM     37  H   UNL     1      32.161 -12.787 -19.458  0.00  0.00    +0.145 HD
ATOM     38  H   UNL     1      32.385 -14.344 -20.114  0.00  0.00    +0.145 HD
ENDBRANCH  33  36
ENDBRANCH   5  33
TORSDOF 5
ENDMDL
MODEL 3
REMARK VINA RESULT:     -11.7      1.388      1.946
REMARK  Name = 25174099
REMARK  5 active torsions:
REMARK  status: ('A' for Active; 'I' for Inactive)
REMARK    1  A    between atoms: C_5  and  C_33
REMARK    2  A    between atoms: C_14  and  C_18
REMARK    3  A    between atoms: N_17  and  C_20
REMARK    4  A    between atoms: C_20  and  C_24
REMARK    5  A    between atoms: C_33  and  C_36
REMARK                            x       y       z     vdW  Elec       q    Type
REMARK                         _______ _______ _______ _____ _____    ______ ____
ROOT
ATOM      1  S   UNL     1      37.261 -22.036 -16.894  0.00  0.00    -0.064 S 
ATOM      2  O   UNL     1      32.669 -22.989 -18.450  0.00  0.00    -0.274 OA
ATOM      3  N   UNL     1      36.242 -21.032 -19.157  0.00  0.00    -0.379 NA
ATOM      4  N   UNL     1      33.995 -21.604 -19.742  0.00  0.00    -0.255 N 
ATOM      5  C   UNL     1      33.944 -24.027 -15.779  0.00  0.00    +0.028 C 
ATOM      6  C   UNL     1      34.596 -24.993 -14.760  0.00  0.00    +0.005 C 
ATOM      7  C   UNL     1      34.997 -23.200 -16.479  0.00  0.00    -0.027 C 
ATOM      8  C   UNL     1      35.638 -24.294 -13.875  0.00  0.00    +0.006 C 
ATOM      9  C   UNL     1      36.782 -23.696 -14.705  0.00  0.00    +0.032 C 
ATOM     10  C   UNL     1      36.265 -23.040 -15.948  0.00  0.00    +0.002 C 
ATOM     11  C   UNL     1      34.872 -22.494 -17.722  0.00  0.00    +0.154 C 
ATOM     12  C   UNL     1      36.032 -21.807 -18.054  0.00  0.00    +0.152 C 
ATOM     13  C   UNL     1      33.735 -22.409 -18.634  0.00  0.00    +0.239 C 
ATOM     14  C   UNL     1      35.212 -20.969 -19.942  0.00  0.00    +0.240 C 
ATOM     15  H   UNL     1      33.284 -21.480 -20.411  0.00  0.00    +0.157 HD
ENDROOT
BRANCH  14  18
ATOM     16  O   UNL     1      34.428 -20.309 -22.025  0.00  0.00    -0.266 OA
ATOM     17  N   UNL     1      36.392 -19.320 -21.208  0.00  0.00    -0.294 N 
ATOM     18  C   UNL     1      35.300 -20.160 -21.179  0.00  0.00    +0.290 C 
ATOM     19  H   UNL     1      37.004 -19.321 -20.438  0.00  0.00    +0.150 HD
BRANCH  17  20
ATOM     20  C   UNL     1      36.679 -18.437 -22.315  0.00  0.00    +0.117 C 
BRANCH  20  24
ATOM     21  O   UNL     1      32.800 -14.356 -22.857  0.00  0.00    -0.464 OA
ATOM     22  O   UNL     1      32.025 -13.754 -19.379  0.00  0.00    -0.271 OA
ATOM     23  N   UNL     1      33.515 -15.261 -20.274  0.00  0.00    -0.279 N 
ATOM     24  C   UNL     1      35.657 -17.344 -22.440  0.00  0.00    -0.001 C 
ATOM     25  C   UNL     1      34.128 -15.782 -21.417  0.00  0.00    +0.085 C 
ATOM     26  C   UNL     1      35.073 -16.802 -21.295  0.00  0.00    +0.015 C 
ATOM     27  C   UNL     1      33.761 -15.310 -22.677  0.00  0.00    +0.153 C 
ATOM     28  C   UNL     1      35.288 -16.876 -23.702  0.00  0.00    +0.001 C 
ATOM     29  C   UNL     1      34.335 -15.865 -23.822  0.00  0.00    +0.038 C 
ATOM     30  C   UNL     1      32.561 -13.554 -21.716  0.00  0.00    +0.290 C 
ATOM     31  C   UNL     1      32.640 -14.202 -20.345  0.00  0.00    +0.271 C 
ATOM     32  H   UNL     1      33.713 -15.661 -19.397  0.00  0.00    +0.155 HD
ENDBRANCH  20  24
ENDBRANCH  17  20
ENDBRANCH  14  18
BRANCH   5  33
ATOM     33  C   UNL     1      32.906 -23.133 -15.091  0.00  0.00    +0.089 C 
BRANCH  33  36
ATOM     34  O   UNL     1      30.998 -24.518 -14.517  0.00  0.00    -0.275 OA
ATOM     35  N   UNL     1      30.852 -23.095 -16.319  0.00  0.00    -0.329 N 
ATOM     36  C   UNL     1      31.504 -23.671 -15.249  0.00  0.00    +0.220 C 
ATOM     37  H   UNL     1      29.928 -23.359 -16.532  0.00  0.00    +0.145 HD
ATOM     38  H   UNL     1      31.311 -22.421 -16.869  0.00  0.00    +0.145 HD
ENDBRANCH  33  36
ENDBRANCH   5  33
TORSDOF 5
ENDMDL
MODEL 4
REMARK VINA RESULT:     -11.5      2.571     10.674
REMARK  Name = 25174099
REMARK  5 active torsions:
REMARK  status: ('A' for Active; 'I' for Inactive)
REMARK    1  A    between atoms: C_5  and  C_33
REMARK    2  A    between atoms: C_14  and  C_18
REMARK    3  A    between atoms: N_17  and  C_20
REMARK    4  A    between atoms: C_20  and  C_24
REMARK    5  A    between atoms: C_33  and  C_36
REMARK                            x       y       z     vdW  Elec       q    Type
REMARK                         _______ _______ _______ _____ _____    ______ ____
ROOT
ATOM      1  S   UNL     1      33.177 -15.218 -19.602  0.00  0.00    -0.064 S 
ATOM      2  O   UNL     1      34.718 -15.249 -24.297  0.00  0.00    -0.274 OA
ATOM      3  N   UNL     1      34.738 -17.140 -20.620  0.00  0.00    -0.379 NA
ATOM      4  N   UNL     1      35.386 -16.979 -22.917  0.00  0.00    -0.255 N 
ATOM      5  C   UNL     1      32.968 -13.014 -22.965  0.00  0.00    +0.028 C 
ATOM      6  C   UNL     1      31.723 -12.167 -22.599  0.00  0.00    +0.005 C 
ATOM      7  C   UNL     1      33.233 -14.057 -21.905  0.00  0.00    -0.027 C 
ATOM      8  C   UNL     1      31.748 -11.691 -21.139  0.00  0.00    +0.006 C 
ATOM      9  C   UNL     1      31.781 -12.868 -20.156  0.00  0.00    +0.032 C 
ATOM     10  C   UNL     1      32.709 -13.945 -20.629  0.00  0.00    +0.002 C 
ATOM     11  C   UNL     1      34.013 -15.254 -22.032  0.00  0.00    +0.154 C 
ATOM     12  C   UNL     1      34.074 -15.970 -20.844  0.00  0.00    +0.152 C 
ATOM     13  C   UNL     1      34.719 -15.787 -23.194  0.00  0.00    +0.239 C 
ATOM     14  C   UNL     1      35.362 -17.582 -21.668  0.00  0.00    +0.240 C 
ATOM     15  H   UNL     1      35.897 -17.412 -23.639  0.00  0.00    +0.157 HD
ENDROOT
BRANCH  14  18
ATOM     16  O   UNL     1      36.980 -19.068 -22.418  0.00  0.00    -0.266 OA
ATOM     17  N   UNL     1      35.762 -19.625 -20.493  0.00  0.00    -0.294 N 
ATOM     18  C   UNL     1      36.128 -18.846 -21.568  0.00  0.00    +0.290 C 
ATOM     19  H   UNL     1      35.050 -19.297 -19.897  0.00  0.00    +0.150 HD
BRANCH  17  20
ATOM     20  C   UNL     1      36.375 -20.900 -20.196  0.00  0.00    +0.117 C 
BRANCH  20  24
ATOM     21  O   UNL     1      33.390 -23.840 -16.396  0.00  0.00    -0.464 OA
ATOM     22  O   UNL     1      36.000 -24.647 -14.030  0.00  0.00    -0.271 OA
ATOM     23  N   UNL     1      36.162 -23.452 -15.988  0.00  0.00    -0.279 N 
ATOM     24  C   UNL     1      35.595 -21.672 -19.171  0.00  0.00    -0.001 C 
ATOM     25  C   UNL     1      35.511 -22.900 -17.096  0.00  0.00    +0.085 C 
ATOM     26  C   UNL     1      36.242 -22.190 -18.049  0.00  0.00    +0.015 C 
ATOM     27  C   UNL     1      34.142 -23.102 -17.266  0.00  0.00    +0.153 C 
ATOM     28  C   UNL     1      34.226 -21.875 -19.345  0.00  0.00    +0.001 C 
ATOM     29  C   UNL     1      33.500 -22.597 -18.397  0.00  0.00    +0.038 C 
ATOM     30  C   UNL     1      33.957 -23.968 -15.106  0.00  0.00    +0.290 C 
ATOM     31  C   UNL     1      35.467 -24.089 -14.987  0.00  0.00    +0.271 C 
ATOM     32  H   UNL     1      37.141 -23.382 -15.923  0.00  0.00    +0.155 HD
ENDBRANCH  20  24
ENDBRANCH  17  20
ENDBRANCH  14  18
BRANCH   5  33
ATOM     33  C   UNL     1      34.192 -12.115 -23.175  0.00  0.00    +0.089 C 
BRANCH  33  36
ATOM     34  O   UNL     1      33.766 -12.244 -25.560  0.00  0.00    -0.275 OA
ATOM     35  N   UNL     1      35.265 -10.690 -24.769  0.00  0.00    -0.329 N 
ATOM     36  C   UNL     1      34.360 -11.719 -24.622  0.00  0.00    +0.220 C 
ATOM     37  H   UNL     1      35.466 -10.336 -25.665  0.00  0.00    +0.145 HD
ATOM     38  H   UNL     1      35.710 -10.309 -23.978  0.00  0.00    +0.145 HD
ENDBRANCH  33  36
ENDBRANCH   5  33
TORSDOF 5
ENDMDL
MODEL 5
REMARK VINA RESULT:     -11.4      2.079      3.046
REMARK  Name = 25174099
REMARK  5 active torsions:
REMARK  status: ('A' for Active; 'I' for Inactive)
REMARK    1  A    between atoms: C_5  and  C_33
REMARK    2  A    between atoms: C_14  and  C_18
REMARK    3  A    between atoms: N_17  and  C_20
REMARK    4  A    between atoms: C_20  and  C_24
REMARK    5  A    between atoms: C_33  and  C_36
REMARK                            x       y       z     vdW  Elec       q    Type
REMARK                         _______ _______ _______ _____ _____    ______ ____
ROOT
ATOM      1  S   UNL     1      33.157 -23.111 -17.608  0.00  0.00    -0.064 S 
ATOM      2  O   UNL     1      37.791 -22.026 -16.278  0.00  0.00    -0.274 OA
ATOM      3  N   UNL     1      34.832 -21.701 -19.148  0.00  0.00    -0.379 NA
ATOM      4  N   UNL     1      37.041 -21.281 -18.334  0.00  0.00    -0.255 N 
ATOM      5  C   UNL     1      35.766 -23.743 -14.608  0.00  0.00    +0.028 C 
ATOM      6  C   UNL     1      34.748 -24.124 -13.504  0.00  0.00    +0.005 C 
ATOM      7  C   UNL     1      35.051 -23.321 -15.869  0.00  0.00    -0.027 C 
ATOM      8  C   UNL     1      33.641 -25.052 -14.024  0.00  0.00    +0.006 C 
ATOM      9  C   UNL     1      32.836 -24.400 -15.156  0.00  0.00    +0.032 C 
ATOM     10  C   UNL     1      33.731 -23.664 -16.105  0.00  0.00    +0.002 C 
ATOM     11  C   UNL     1      35.578 -22.547 -16.956  0.00  0.00    +0.154 C 
ATOM     12  C   UNL     1      34.650 -22.372 -17.975  0.00  0.00    +0.152 C 
ATOM     13  C   UNL     1      36.901 -21.952 -17.120  0.00  0.00    +0.239 C 
ATOM     14  C   UNL     1      36.020 -21.192 -19.267  0.00  0.00    +0.240 C 
ATOM     15  H   UNL     1      37.904 -20.852 -18.538  0.00  0.00    +0.157 HD
ENDROOT
BRANCH  14  18
ATOM     16  O   UNL     1      37.533 -20.164 -20.696  0.00  0.00    -0.266 OA
ATOM     17  N   UNL     1      35.259 -20.131 -21.270  0.00  0.00    -0.294 N 
ATOM     18  C   UNL     1      36.356 -20.436 -20.495  0.00  0.00    +0.290 C 
ATOM     19  H   UNL     1      34.372 -20.426 -20.962  0.00  0.00    +0.150 HD
BRANCH  17  20
ATOM     20  C   UNL     1      35.348 -19.399 -22.513  0.00  0.00    +0.117 C 
BRANCH  20  24
ATOM     21  O   UNL     1      34.053 -13.941 -21.792  0.00  0.00    -0.464 OA
ATOM     22  O   UNL     1      33.632 -12.930 -25.236  0.00  0.00    -0.271 OA
ATOM     23  N   UNL     1      34.184 -15.005 -24.409  0.00  0.00    -0.279 N 
ATOM     24  C   UNL     1      34.991 -17.952 -22.339  0.00  0.00    -0.001 C 
ATOM     25  C   UNL     1      34.401 -15.813 -23.289  0.00  0.00    +0.085 C 
ATOM     26  C   UNL     1      34.740 -17.157 -23.458  0.00  0.00    +0.015 C 
ATOM     27  C   UNL     1      34.322 -15.262 -22.011  0.00  0.00    +0.153 C 
ATOM     28  C   UNL     1      34.916 -17.402 -21.059  0.00  0.00    +0.001 C 
ATOM     29  C   UNL     1      34.589 -16.055 -20.894  0.00  0.00    +0.038 C 
ATOM     30  C   UNL     1      33.400 -13.297 -22.869  0.00  0.00    +0.290 C 
ATOM     31  C   UNL     1      33.770 -13.699 -24.286  0.00  0.00    +0.271 C 
ATOM     32  H   UNL     1      34.330 -15.379 -25.307  0.00  0.00    +0.155 HD
ENDBRANCH  20  24
ENDBRANCH  17  20
ENDBRANCH  14  18
BRANCH   5  33
ATOM     33  C   UNL     1      36.730 -24.904 -14.879  0.00  0.00    +0.089 C 
BRANCH  33  36
ATOM     34  O   UNL     1      38.340 -24.509 -13.109  0.00  0.00    -0.275 OA
ATOM     35  N   UNL     1      39.064 -24.579 -15.291  0.00  0.00    -0.329 N 
ATOM     36  C   UNL     1      38.102 -24.645 -14.306  0.00  0.00    +0.220 C 
ATOM     37  H   UNL     1      40.004 -24.415 -15.050  0.00  0.00    +0.145 HD
ATOM     38  H   UNL     1      38.811 -24.696 -16.235  0.00  0.00    +0.145 HD
ENDBRANCH  33  36
ENDBRANCH   5  33
TORSDOF 5
ENDMDL
MODEL 6
REMARK VINA RESULT:     -11.3      3.434     11.381
REMARK  Name = 25174099
REMARK  5 active torsions:
REMARK  status: ('A' for Active; 'I' for Inactive)
REMARK    1  A    between atoms: C_5  and  C_33
REMARK    2  A    between atoms: C_14  and  C_18
REMARK    3  A    between atoms: N_17  and  C_20
REMARK    4  A    between atoms: C_20  and  C_24
REMARK    5  A    between atoms: C_33  and  C_36
REMARK                            x       y       z     vdW  Elec       q    Type
REMARK                         _______ _______ _______ _____ _____    ______ ____
ROOT
ATOM      1  S   UNL     1      32.343 -13.450 -20.723  0.00  0.00    -0.064 S 
ATOM      2  O   UNL     1      33.791 -11.812 -25.154  0.00  0.00    -0.274 OA
ATOM      3  N   UNL     1      33.523 -15.011 -22.549  0.00  0.00    -0.379 NA
ATOM      4  N   UNL     1      34.158 -14.035 -24.638  0.00  0.00    -0.255 N 
ATOM      5  C   UNL     1      32.485 -10.066 -22.899  0.00  0.00    +0.028 C 
ATOM      6  C   UNL     1      31.416  -9.257 -22.123  0.00  0.00    +0.005 C 
ATOM      7  C   UNL     1      32.574 -11.478 -22.369  0.00  0.00    -0.027 C 
ATOM      8  C   UNL     1      31.544  -9.426 -20.603  0.00  0.00    +0.006 C 
ATOM      9  C   UNL     1      31.381 -10.890 -20.175  0.00  0.00    +0.032 C 
ATOM     10  C   UNL     1      32.095 -11.813 -21.114  0.00  0.00    +0.002 C 
ATOM     11  C   UNL     1      33.127 -12.626 -23.027  0.00  0.00    +0.154 C 
ATOM     12  C   UNL     1      33.075 -13.763 -22.232  0.00  0.00    +0.152 C 
ATOM     13  C   UNL     1      33.711 -12.744 -24.361  0.00  0.00    +0.239 C 
ATOM     14  C   UNL     1      34.044 -15.081 -23.735  0.00  0.00    +0.240 C 
ATOM     15  H   UNL     1      34.574 -14.211 -25.513  0.00  0.00    +0.157 HD
ENDROOT
BRANCH  14  18
ATOM     16  O   UNL     1      34.608 -16.577 -25.419  0.00  0.00    -0.266 OA
ATOM     17  N   UNL     1      34.971 -17.217 -23.192  0.00  0.00    -0.294 N 
ATOM     18  C   UNL     1      34.574 -16.380 -24.211  0.00  0.00    +0.290 C 
ATOM     19  H   UNL     1      34.877 -16.902 -22.264  0.00  0.00    +0.150 HD
BRANCH  17  20
ATOM     20  C   UNL     1      35.521 -18.534 -23.420  0.00  0.00    +0.117 C 
BRANCH  20  24
ATOM     21  O   UNL     1      36.009 -21.446 -18.595  0.00  0.00    -0.464 OA
ATOM     22  O   UNL     1      32.620 -22.650 -18.238  0.00  0.00    -0.271 OA
ATOM     23  N   UNL     1      33.505 -21.335 -19.906  0.00  0.00    -0.279 N 
ATOM     24  C   UNL     1      35.636 -19.322 -22.147  0.00  0.00    -0.001 C 
ATOM     25  C   UNL     1      34.631 -20.710 -20.448  0.00  0.00    +0.085 C 
ATOM     26  C   UNL     1      34.517 -19.974 -21.628  0.00  0.00    +0.015 C 
ATOM     27  C   UNL     1      35.855 -20.788 -19.783  0.00  0.00    +0.153 C 
ATOM     28  C   UNL     1      36.860 -19.396 -21.482  0.00  0.00    +0.001 C 
ATOM     29  C   UNL     1      36.969 -20.122 -20.296  0.00  0.00    +0.038 C 
ATOM     30  C   UNL     1      35.014 -22.418 -18.339  0.00  0.00    +0.290 C 
ATOM     31  C   UNL     1      33.591 -22.136 -18.790  0.00  0.00    +0.271 C 
ATOM     32  H   UNL     1      32.628 -21.200 -20.332  0.00  0.00    +0.155 HD
ENDBRANCH  20  24
ENDBRANCH  17  20
ENDBRANCH  14  18
BRANCH   5  33
ATOM     33  C   UNL     1      33.846  -9.364 -22.837  0.00  0.00    +0.089 C 
BRANCH  33  36
ATOM     34  O   UNL     1      33.385  -7.285 -23.999  0.00  0.00    -0.275 OA
ATOM     35  N   UNL     1      34.013  -7.221 -21.787  0.00  0.00    -0.329 N 
ATOM     36  C   UNL     1      33.716  -7.866 -22.968  0.00  0.00    +0.220 C 
ATOM     37  H   UNL     1      33.966  -6.239 -21.737  0.00  0.00    +0.145 HD
ATOM     38  H   UNL     1      34.272  -7.743 -20.994  0.00  0.00    +0.145 HD
ENDBRANCH  33  36
ENDBRANCH   5  33
TORSDOF 5
ENDMDL
MODEL 7
REMARK VINA RESULT:     -10.9      1.795      2.530
REMARK  Name = 25174099
REMARK  5 active torsions:
REMARK  status: ('A' for Active; 'I' for Inactive)
REMARK    1  A    between atoms: C_5  and  C_33
REMARK    2  A    between atoms: C_14  and  C_18
REMARK    3  A    between atoms: N_17  and  C_20
REMARK    4  A    between atoms: C_20  and  C_24
REMARK    5  A    between atoms: C_33  and  C_36
REMARK                            x       y       z     vdW  Elec       q    Type
REMARK                         _______ _______ _______ _____ _____    ______ ____
ROOT
ATOM      1  S   UNL     1      35.663 -23.637 -14.995  0.00  0.00    -0.064 S 
ATOM      2  O   UNL     1      32.159 -22.783 -18.374  0.00  0.00    -0.274 OA
ATOM      3  N   UNL     1      36.159 -22.496 -17.365  0.00  0.00    -0.379 NA
ATOM      4  N   UNL     1      34.329 -22.159 -18.869  0.00  0.00    -0.255 N 
ATOM      5  C   UNL     1      31.692 -24.025 -15.532  0.00  0.00    +0.028 C 
ATOM      6  C   UNL     1      31.421 -25.086 -14.437  0.00  0.00    +0.005 C 
ATOM      7  C   UNL     1      33.172 -23.753 -15.657  0.00  0.00    -0.027 C 
ATOM      8  C   UNL     1      32.190 -24.796 -13.140  0.00  0.00    +0.006 C 
ATOM      9  C   UNL     1      33.707 -24.779 -13.368  0.00  0.00    +0.032 C 
ATOM     10  C   UNL     1      34.056 -24.075 -14.642  0.00  0.00    +0.002 C 
ATOM     11  C   UNL     1      33.862 -23.160 -16.766  0.00  0.00    +0.154 C 
ATOM     12  C   UNL     1      35.224 -23.028 -16.527  0.00  0.00    +0.152 C 
ATOM     13  C   UNL     1      33.340 -22.698 -18.049  0.00  0.00    +0.239 C 
ATOM     14  C   UNL     1      35.662 -22.087 -18.492  0.00  0.00    +0.240 C 
ATOM     15  H   UNL     1      34.072 -21.814 -19.754  0.00  0.00    +0.157 HD
ENDROOT
BRANCH  14  18
ATOM     16  O   UNL     1      37.502 -22.161 -19.905  0.00  0.00    -0.266 OA
ATOM     17  N   UNL     1      36.216 -20.200 -19.852  0.00  0.00    -0.294 N 
ATOM     18  C   UNL     1      36.566 -21.485 -19.499  0.00  0.00    +0.290 C 
ATOM     19  H   UNL     1      35.425 -19.797 -19.427  0.00  0.00    +0.150 HD
BRANCH  17  20
ATOM     20  C   UNL     1      36.953 -19.418 -20.818  0.00  0.00    +0.117 C 
BRANCH  20  24
ATOM     21  O   UNL     1      33.620 -17.760 -25.077  0.00  0.00    -0.464 OA
ATOM     22  O   UNL     1      33.686 -14.182 -24.575  0.00  0.00    -0.271 OA
ATOM     23  N   UNL     1      34.740 -15.820 -23.350  0.00  0.00    -0.279 N 
ATOM     24  C   UNL     1      36.081 -18.960 -21.951  0.00  0.00    -0.001 C 
ATOM     25  C   UNL     1      35.024 -17.179 -23.189  0.00  0.00    +0.085 C 
ATOM     26  C   UNL     1      35.829 -17.599 -22.130  0.00  0.00    +0.015 C 
ATOM     27  C   UNL     1      34.463 -18.112 -24.061  0.00  0.00    +0.153 C 
ATOM     28  C   UNL     1      35.519 -19.896 -22.820  0.00  0.00    +0.001 C 
ATOM     29  C   UNL     1      34.703 -19.473 -23.870  0.00  0.00    +0.038 C 
ATOM     30  C   UNL     1      33.736 -16.410 -25.483  0.00  0.00    +0.290 C 
ATOM     31  C   UNL     1      34.018 -15.356 -24.426  0.00  0.00    +0.271 C 
ATOM     32  H   UNL     1      35.065 -15.178 -22.679  0.00  0.00    +0.155 HD
ENDBRANCH  20  24
ENDBRANCH  17  20
ENDBRANCH  14  18
BRANCH   5  33
ATOM     33  C   UNL     1      30.914 -22.736 -15.242  0.00  0.00    +0.089 C 
BRANCH  33  36
ATOM     34  O   UNL     1      28.519 -22.450 -14.980  0.00  0.00    -0.275 OA
ATOM     35  N   UNL     1      29.329 -23.444 -16.889  0.00  0.00    -0.329 N 
ATOM     36  C   UNL     1      29.466 -22.845 -15.655  0.00  0.00    +0.220 C 
ATOM     37  H   UNL     1      28.433 -23.576 -17.275  0.00  0.00    +0.145 HD
ATOM     38  H   UNL     1      30.126 -23.740 -17.383  0.00  0.00    +0.145 HD
ENDBRANCH  33  36
ENDBRANCH   5  33
TORSDOF 5
ENDMDL
MODEL 8
REMARK VINA RESULT:     -10.8      2.660      9.963
REMARK  Name = 25174099
REMARK  5 active torsions:
REMARK  status: ('A' for Active; 'I' for Inactive)
REMARK    1  A    between atoms: C_5  and  C_33
REMARK    2  A    between atoms: C_14  and  C_18
REMARK    3  A    between atoms: N_17  and  C_20
REMARK    4  A    between atoms: C_20  and  C_24
REMARK    5  A    between atoms: C_33  and  C_36
REMARK                            x       y       z     vdW  Elec       q    Type
REMARK                         _______ _______ _______ _____ _____    ______ ____
ROOT
ATOM      1  S   UNL     1      34.680 -17.189 -24.733  0.00  0.00    -0.064 S 
ATOM      2  O   UNL     1      34.657 -15.310 -20.163  0.00  0.00    -0.274 OA
ATOM      3  N   UNL     1      35.616 -18.510 -22.600  0.00  0.00    -0.379 NA
ATOM      4  N   UNL     1      35.514 -17.436 -20.466  0.00  0.00    -0.255 N 
ATOM      5  C   UNL     1      33.510 -13.905 -22.721  0.00  0.00    +0.028 C 
ATOM      6  C   UNL     1      33.407 -12.932 -23.922  0.00  0.00    +0.005 C 
ATOM      7  C   UNL     1      34.063 -15.239 -23.161  0.00  0.00    -0.027 C 
ATOM      8  C   UNL     1      32.759 -13.587 -25.151  0.00  0.00    +0.006 C 
ATOM      9  C   UNL     1      33.558 -14.802 -25.638  0.00  0.00    +0.032 C 
ATOM     10  C   UNL     1      34.038 -15.633 -24.488  0.00  0.00    +0.002 C 
ATOM     11  C   UNL     1      34.664 -16.251 -22.341  0.00  0.00    +0.154 C 
ATOM     12  C   UNL     1      35.033 -17.371 -23.074  0.00  0.00    +0.152 C 
ATOM     13  C   UNL     1      34.923 -16.252 -20.904  0.00  0.00    +0.239 C 
ATOM     14  C   UNL     1      35.824 -18.484 -21.320  0.00  0.00    +0.240 C 
ATOM     15  H   UNL     1      35.721 -17.533 -19.508  0.00  0.00    +0.157 HD
ENDROOT
BRANCH  14  18
ATOM     16  O   UNL     1      37.547 -19.504 -20.146  0.00  0.00    -0.266 OA
ATOM     17  N   UNL     1      35.687 -20.801 -20.749  0.00  0.00    -0.294 N 
ATOM     18  C   UNL     1      36.451 -19.657 -20.671  0.00  0.00    +0.290 C 
ATOM     19  H   UNL     1      34.819 -20.753 -21.210  0.00  0.00    +0.150 HD
BRANCH  17  20
ATOM     20  C   UNL     1      36.098 -22.066 -20.184  0.00  0.00    +0.117 C 
BRANCH  20  24
ATOM     21  O   UNL     1      33.543 -23.091 -15.243  0.00  0.00    -0.464 OA
ATOM     22  O   UNL     1      30.098 -23.221 -16.328  0.00  0.00    -0.271 OA
ATOM     23  N   UNL     1      31.984 -22.846 -17.590  0.00  0.00    -0.279 N 
ATOM     24  C   UNL     1      35.405 -22.350 -18.883  0.00  0.00    -0.001 C 
ATOM     25  C   UNL     1      33.378 -22.751 -17.636  0.00  0.00    +0.085 C 
ATOM     26  C   UNL     1      34.016 -22.480 -18.847  0.00  0.00    +0.015 C 
ATOM     27  C   UNL     1      34.121 -22.884 -16.464  0.00  0.00    +0.153 C 
ATOM     28  C   UNL     1      36.150 -22.479 -17.710  0.00  0.00    +0.001 C 
ATOM     29  C   UNL     1      35.508 -22.739 -16.499  0.00  0.00    +0.038 C 
ATOM     30  C   UNL     1      32.237 -23.633 -15.305  0.00  0.00    +0.290 C 
ATOM     31  C   UNL     1      31.322 -23.192 -16.435  0.00  0.00    +0.271 C 
ATOM     32  H   UNL     1      31.463 -22.662 -18.405  0.00  0.00    +0.155 HD
ENDBRANCH  20  24
ENDBRANCH  17  20
ENDBRANCH  14  18
BRANCH   5  33
ATOM     33  C   UNL     1      32.147 -14.068 -22.038  0.00  0.00    +0.089 C 
BRANCH  33  36
ATOM     34  O   UNL     1      32.500 -12.871 -19.958  0.00  0.00    -0.275 OA
ATOM     35  N   UNL     1      30.890 -12.127 -21.422  0.00  0.00    -0.329 N 
ATOM     36  C   UNL     1      31.892 -12.984 -21.019  0.00  0.00    +0.220 C 
ATOM     37  H   UNL     1      30.626 -11.374 -20.847  0.00  0.00    +0.145 HD
ATOM     38  H   UNL     1      30.440 -12.269 -22.286  0.00  0.00    +0.145 HD
ENDBRANCH  33  36
ENDBRANCH   5  33
TORSDOF 5
ENDMDL
MODEL 9
REMARK VINA RESULT:     -10.6      3.415     11.297
REMARK  Name = 25174099
REMARK  5 active torsions:
REMARK  status: ('A' for Active; 'I' for Inactive)
REMARK    1  A    between atoms: C_5  and  C_33
REMARK    2  A    between atoms: C_14  and  C_18
REMARK    3  A    between atoms: N_17  and  C_20
REMARK    4  A    between atoms: C_20  and  C_24
REMARK    5  A    between atoms: C_33  and  C_36
REMARK                            x       y       z     vdW  Elec       q    Type
REMARK                         _______ _______ _______ _____ _____    ______ ____
ROOT
ATOM      1  S   UNL     1      32.378 -13.615 -20.329  0.00  0.00    -0.064 S 
ATOM      2  O   UNL     1      33.842 -12.263 -24.851  0.00  0.00    -0.274 OA
ATOM      3  N   UNL     1      33.686 -15.251 -21.997  0.00  0.00    -0.379 NA
ATOM      4  N   UNL     1      34.318 -14.412 -24.146  0.00  0.00    -0.255 N 
ATOM      5  C   UNL     1      32.387 -10.417 -22.774  0.00  0.00    +0.028 C 
ATOM      6  C   UNL     1      31.257  -9.609 -22.089  0.00  0.00    +0.005 C 
ATOM      7  C   UNL     1      32.541 -11.773 -22.128  0.00  0.00    -0.027 C 
ATOM      8  C   UNL     1      31.357  -9.646 -20.558  0.00  0.00    +0.006 C 
ATOM      9  C   UNL     1      31.263 -11.078 -20.014  0.00  0.00    +0.032 C 
ATOM     10  C   UNL     1      32.050 -12.032 -20.860  0.00  0.00    +0.002 C 
ATOM     11  C   UNL     1      33.171 -12.938 -22.678  0.00  0.00    +0.154 C 
ATOM     12  C   UNL     1      33.162 -14.008 -21.793  0.00  0.00    +0.152 C 
ATOM     13  C   UNL     1      33.793 -13.131 -23.985  0.00  0.00    +0.239 C 
ATOM     14  C   UNL     1      34.239 -15.387 -23.162  0.00  0.00    +0.240 C 
ATOM     15  H   UNL     1      34.764 -14.635 -24.995  0.00  0.00    +0.157 HD
ENDROOT
BRANCH  14  18
ATOM     16  O   UNL     1      34.878 -17.003 -24.701  0.00  0.00    -0.266 OA
ATOM     17  N   UNL     1      35.322 -17.389 -22.431  0.00  0.00    -0.294 N 
ATOM     18  C   UNL     1      34.851 -16.688 -23.519  0.00  0.00    +0.290 C 
ATOM     19  H   UNL     1      35.221 -16.990 -21.537  0.00  0.00    +0.150 HD
BRANCH  17  20
ATOM     20  C   UNL     1      35.958 -18.682 -22.539  0.00  0.00    +0.117 C 
BRANCH  20  24
ATOM     21  O   UNL     1      34.165 -22.274 -18.555  0.00  0.00    -0.464 OA
ATOM     22  O   UNL     1      37.258 -22.838 -16.774  0.00  0.00    -0.271 OA
ATOM     23  N   UNL     1      36.886 -21.506 -18.612  0.00  0.00    -0.279 N 
ATOM     24  C   UNL     1      35.497 -19.626 -21.468  0.00  0.00    -0.001 C 
ATOM     25  C   UNL     1      35.971 -20.987 -19.532  0.00  0.00    +0.085 C 
ATOM     26  C   UNL     1      36.407 -20.114 -20.530  0.00  0.00    +0.015 C 
ATOM     27  C   UNL     1      34.634 -21.378 -19.474  0.00  0.00    +0.153 C 
ATOM     28  C   UNL     1      34.159 -20.019 -21.414  0.00  0.00    +0.001 C 
ATOM     29  C   UNL     1      33.728 -20.901 -20.423  0.00  0.00    +0.038 C 
ATOM     30  C   UNL     1      34.977 -22.400 -17.404  0.00  0.00    +0.290 C 
ATOM     31  C   UNL     1      36.485 -22.304 -17.566  0.00  0.00    +0.271 C 
ATOM     32  H   UNL     1      37.843 -21.296 -18.715  0.00  0.00    +0.155 HD
ENDBRANCH  20  24
ENDBRANCH  17  20
ENDBRANCH  14  18
BRANCH   5  33
ATOM     33  C   UNL     1      33.706  -9.636 -22.743  0.00  0.00    +0.089 C 
BRANCH  33  36
ATOM     34  O   UNL     1      32.967  -7.603 -23.841  0.00  0.00    -0.275 OA
ATOM     35  N   UNL     1      33.936  -7.468 -21.759  0.00  0.00    -0.329 N 
ATOM     36  C   UNL     1      33.485  -8.149 -22.870  0.00  0.00    +0.220 C 
ATOM     37  H   UNL     1      33.851  -6.488 -21.715  0.00  0.00    +0.145 HD
ATOM     38  H   UNL     1      34.343  -7.961 -21.011  0.00  0.00    +0.145 HD
ENDBRANCH  33  36
ENDBRANCH   5  33
TORSDOF 5
ENDMDL
