MODEL 1
REMARK VINA RESULT:     -11.0      0.000      0.000
REMARK  Name = 25114442
REMARK  7 active torsions:
REMARK  status: ('A' for Active; 'I' for Inactive)
REMARK    1  A    between atoms: C_3  and  C_15
REMARK    2  A    between atoms: C_3  and  C_18
REMARK    3  A    between atoms: C_6  and  C_8
REMARK    4  A    between atoms: C_15  and  O_16
REMARK    5  A    between atoms: C_18  and  O_19
REMARK    6  A    between atoms: O_19  and  C_20
REMARK    7  A    between atoms: C_28  and  O_30
REMARK                            x       y       z     vdW  Elec       q    Type
REMARK                         _______ _______ _______ _____ _____    ______ ____
ROOT
ATOM      1  O   UNL     1      32.050 -23.431 -12.247  0.00  0.00    -0.270 OA
ATOM      2  N   UNL     1      33.473 -24.272 -13.849  0.00  0.00    -0.275 N 
ATOM      3  C   UNL     1      35.328 -24.277 -14.710  0.00  0.00    +0.166 C 
ATOM      4  C   UNL     1      33.953 -24.834 -15.097  0.00  0.00    +0.110 C 
ATOM      5  C   UNL     1      34.797 -24.086 -13.285  0.00  0.00    +0.110 C 
ATOM      6  C   UNL     1      32.245 -23.901 -13.364  0.00  0.00    +0.249 C 
ENDROOT
BRANCH   6   8
ATOM      7  F   UNL     1      27.866 -24.520 -16.807  0.00  0.00    -0.204 F 
ATOM      8  C   UNL     1      31.092 -24.063 -14.270  0.00  0.00    +0.054 C 
ATOM      9  C   UNL     1      30.828 -23.100 -15.243  0.00  0.00    +0.007 C 
ATOM     10  C   UNL     1      30.266 -25.182 -14.154  0.00  0.00    +0.007 C 
ATOM     11  C   UNL     1      29.739 -23.254 -16.100  0.00  0.00    +0.030 C 
ATOM     12  C   UNL     1      29.176 -25.335 -15.011  0.00  0.00    +0.030 C 
ATOM     13  C   UNL     1      28.913 -24.372 -15.984  0.00  0.00    +0.140 C 
ENDBRANCH   6   8
BRANCH   3  15
ATOM     14  O   UNL     1      36.463 -26.467 -14.960  0.00  0.00    -0.250 OA
ATOM     15  C   UNL     1      36.530 -25.243 -14.873  0.00  0.00    +0.320 C 
BRANCH  15  16
ATOM     16  O   UNL     1      37.721 -24.584 -14.914  0.00  0.00    -0.480 OA
ATOM     17  H   UNL     1      37.841 -23.868 -15.506  0.00  0.00    +0.295 HD
ENDBRANCH  15  16
ENDBRANCH   3  15
BRANCH   3  18
ATOM     18  C   UNL     1      35.610 -22.950 -15.387  0.00  0.00    +0.219 C 
BRANCH  18  19
ATOM     19  O   UNL     1      36.199 -23.204 -16.661  0.00  0.00    -0.475 OA
BRANCH  19  20
ATOM     20  C   UNL     1      35.706 -22.508 -17.722  0.00  0.00    +0.139 C 
ATOM     21  C   UNL     1      36.549 -21.680 -18.463  0.00  0.00    +0.037 C 
ATOM     22  C   UNL     1      34.361 -22.620 -18.064  0.00  0.00    +0.037 C 
ATOM     23  C   UNL     1      36.056 -20.954 -19.560  0.00  0.00    +0.003 C 
ATOM     24  C   UNL     1      34.689 -21.068 -19.909  0.00  0.00    +0.003 C 
ATOM     25  C   UNL     1      33.855 -21.906 -19.151  0.00  0.00    +0.003 C 
ATOM     26  C   UNL     1      36.891 -20.116 -20.319  0.00  0.00    +0.003 C 
ATOM     27  C   UNL     1      34.197 -20.342 -21.005  0.00  0.00    +0.037 C 
ATOM     28  C   UNL     1      35.040 -19.515 -21.748  0.00  0.00    +0.139 C 
ATOM     29  C   UNL     1      36.384 -19.401 -21.405  0.00  0.00    +0.037 C 
BRANCH  28  30
ATOM     30  O   UNL     1      34.546 -18.816 -22.806  0.00  0.00    -0.471 OA
ATOM     31  C   UNL     1      35.296 -17.683 -23.242  0.00  0.00    +0.252 C 
ENDBRANCH  28  30
ENDBRANCH  19  20
ENDBRANCH  18  19
ENDBRANCH   3  18
TORSDOF 7
ENDMDL
MODEL 2
REMARK VINA RESULT:     -10.7      4.278      9.427
REMARK  Name = 25114442
REMARK  7 active torsions:
REMARK  status: ('A' for Active; 'I' for Inactive)
REMARK    1  A    between atoms: C_3  and  C_15
REMARK    2  A    between atoms: C_3  and  C_18
REMARK    3  A    between atoms: C_6  and  C_8
REMARK    4  A    between atoms: C_15  and  O_16
REMARK    5  A    between atoms: C_18  and  O_19
REMARK    6  A    between atoms: O_19  and  C_20
REMARK    7  A    between atoms: C_28  and  O_30
REMARK                            x       y       z     vdW  Elec       q    Type
REMARK                         _______ _______ _______ _____ _____    ______ ____
ROOT
ATOM      1  O   UNL     1      33.819 -15.670 -24.121  0.00  0.00    -0.270 OA
ATOM      2  N   UNL     1      34.917 -16.599 -22.323  0.00  0.00    -0.275 N 
ATOM      3  C   UNL     1      35.771 -18.242 -21.455  0.00  0.00    +0.166 C 
ATOM      4  C   UNL     1      35.343 -16.855 -20.961  0.00  0.00    +0.110 C 
ATOM      5  C   UNL     1      35.650 -17.716 -22.889  0.00  0.00    +0.110 C 
ATOM      6  C   UNL     1      34.042 -15.725 -22.915  0.00  0.00    +0.249 C 
ENDROOT
BRANCH   6   8
ATOM      7  F   UNL     1      31.254 -12.238 -19.526  0.00  0.00    -0.204 F 
ATOM      8  C   UNL     1      33.307 -14.808 -22.023  0.00  0.00    +0.054 C 
ATOM      9  C   UNL     1      32.970 -15.211 -20.731  0.00  0.00    +0.007 C 
ATOM     10  C   UNL     1      32.951 -13.535 -22.471  0.00  0.00    +0.007 C 
ATOM     11  C   UNL     1      32.277 -14.344 -19.887  0.00  0.00    +0.030 C 
ATOM     12  C   UNL     1      32.257 -12.668 -21.627  0.00  0.00    +0.030 C 
ATOM     13  C   UNL     1      31.920 -13.071 -20.336  0.00  0.00    +0.140 C 
ENDBRANCH   6   8
BRANCH   3  15
ATOM     14  O   UNL     1      37.562 -18.854 -19.854  0.00  0.00    -0.250 OA
ATOM     15  C   UNL     1      37.177 -18.724 -21.014  0.00  0.00    +0.320 C 
BRANCH  15  16
ATOM     16  O   UNL     1      37.984 -19.004 -22.074  0.00  0.00    -0.480 OA
ATOM     17  H   UNL     1      37.643 -19.469 -22.812  0.00  0.00    +0.295 HD
ENDBRANCH  15  16
ENDBRANCH   3  15
BRANCH   3  18
ATOM     18  C   UNL     1      34.723 -19.295 -21.153  0.00  0.00    +0.219 C 
BRANCH  18  19
ATOM     19  O   UNL     1      35.380 -20.544 -20.942  0.00  0.00    -0.475 OA
BRANCH  19  20
ATOM     20  C   UNL     1      34.999 -21.268 -19.853  0.00  0.00    +0.139 C 
ATOM     21  C   UNL     1      35.943 -21.625 -18.890  0.00  0.00    +0.037 C 
ATOM     22  C   UNL     1      33.669 -21.652 -19.703  0.00  0.00    +0.037 C 
ATOM     23  C   UNL     1      35.567 -22.372 -17.762  0.00  0.00    +0.003 C 
ATOM     24  C   UNL     1      34.215 -22.762 -17.608  0.00  0.00    +0.003 C 
ATOM     25  C   UNL     1      33.278 -22.394 -18.588  0.00  0.00    +0.003 C 
ATOM     26  C   UNL     1      36.504 -22.740 -16.782  0.00  0.00    +0.003 C 
ATOM     27  C   UNL     1      33.840 -23.508 -16.479  0.00  0.00    +0.037 C 
ATOM     28  C   UNL     1      34.783 -23.865 -15.516  0.00  0.00    +0.139 C 
ATOM     29  C   UNL     1      36.113 -23.483 -15.666  0.00  0.00    +0.037 C 
BRANCH  28  30
ATOM     30  O   UNL     1      34.403 -24.592 -14.429  0.00  0.00    -0.471 OA
ATOM     31  C   UNL     1      35.244 -24.525 -13.278  0.00  0.00    +0.252 C 
ENDBRANCH  28  30
ENDBRANCH  19  20
ENDBRANCH  18  19
ENDBRANCH   3  18
TORSDOF 7
ENDMDL
MODEL 3
REMARK VINA RESULT:     -10.2      4.330      9.453
REMARK  Name = 25114442
REMARK  7 active torsions:
REMARK  status: ('A' for Active; 'I' for Inactive)
REMARK    1  A    between atoms: C_3  and  C_15
REMARK    2  A    between atoms: C_3  and  C_18
REMARK    3  A    between atoms: C_6  and  C_8
REMARK    4  A    between atoms: C_15  and  O_16
REMARK    5  A    between atoms: C_18  and  O_19
REMARK    6  A    between atoms: O_19  and  C_20
REMARK    7  A    between atoms: C_28  and  O_30
REMARK                            x       y       z     vdW  Elec       q    Type
REMARK                         _______ _______ _______ _____ _____    ______ ____
ROOT
ATOM      1  O   UNL     1      33.642 -15.716 -24.091  0.00  0.00    -0.270 OA
ATOM      2  N   UNL     1      34.807 -16.588 -22.308  0.00  0.00    -0.275 N 
ATOM      3  C   UNL     1      35.681 -18.206 -21.414  0.00  0.00    +0.166 C 
ATOM      4  C   UNL     1      35.290 -16.796 -20.956  0.00  0.00    +0.110 C 
ATOM      5  C   UNL     1      35.503 -17.734 -22.861  0.00  0.00    +0.110 C 
ATOM      6  C   UNL     1      33.916 -15.727 -22.894  0.00  0.00    +0.249 C 
ENDROOT
BRANCH   6   8
ATOM      7  F   UNL     1      31.304 -12.086 -19.528  0.00  0.00    -0.204 F 
ATOM      8  C   UNL     1      33.230 -14.768 -22.008  0.00  0.00    +0.054 C 
ATOM      9  C   UNL     1      32.960 -13.475 -22.455  0.00  0.00    +0.007 C 
ATOM     10  C   UNL     1      32.848 -15.156 -20.723  0.00  0.00    +0.007 C 
ATOM     11  C   UNL     1      32.309 -12.569 -21.618  0.00  0.00    +0.030 C 
ATOM     12  C   UNL     1      32.198 -14.249 -19.885  0.00  0.00    +0.030 C 
ATOM     13  C   UNL     1      31.928 -12.956 -20.332  0.00  0.00    +0.140 C 
ENDBRANCH   6   8
BRANCH   3  15
ATOM     14  O   UNL     1      37.541 -18.759 -19.871  0.00  0.00    -0.250 OA
ATOM     15  C   UNL     1      37.100 -18.687 -21.016  0.00  0.00    +0.320 C 
BRANCH  15  16
ATOM     16  O   UNL     1      37.849 -19.041 -22.097  0.00  0.00    -0.480 OA
ATOM     17  H   UNL     1      37.844 -19.926 -22.401  0.00  0.00    +0.295 HD
ENDBRANCH  15  16
ENDBRANCH   3  15
BRANCH   3  18
ATOM     18  C   UNL     1      34.637 -19.235 -21.027  0.00  0.00    +0.219 C 
BRANCH  18  19
ATOM     19  O   UNL     1      35.249 -20.524 -21.017  0.00  0.00    -0.475 OA
BRANCH  19  20
ATOM     20  C   UNL     1      35.159 -21.243 -19.864  0.00  0.00    +0.139 C 
ATOM     21  C   UNL     1      33.908 -21.631 -19.382  0.00  0.00    +0.037 C 
ATOM     22  C   UNL     1      36.313 -21.589 -19.167  0.00  0.00    +0.037 C 
ATOM     23  C   UNL     1      33.797 -22.373 -18.194  0.00  0.00    +0.003 C 
ATOM     24  C   UNL     1      34.970 -22.725 -17.486  0.00  0.00    +0.003 C 
ATOM     25  C   UNL     1      36.221 -22.326 -17.986  0.00  0.00    +0.003 C 
ATOM     26  C   UNL     1      32.546 -22.772 -17.695  0.00  0.00    +0.003 C 
ATOM     27  C   UNL     1      34.858 -23.467 -16.299  0.00  0.00    +0.037 C 
ATOM     28  C   UNL     1      33.608 -23.855 -15.817  0.00  0.00    +0.139 C 
ATOM     29  C   UNL     1      32.454 -23.508 -16.513  0.00  0.00    +0.037 C 
BRANCH  28  30
ATOM     30  O   UNL     1      33.517 -24.572 -14.663  0.00  0.00    -0.471 OA
ATOM     31  C   UNL     1      34.214 -24.062 -13.527  0.00  0.00    +0.252 C 
ENDBRANCH  28  30
ENDBRANCH  19  20
ENDBRANCH  18  19
ENDBRANCH   3  18
TORSDOF 7
ENDMDL
MODEL 4
REMARK VINA RESULT:     -10.1      1.393      2.390
REMARK  Name = 25114442
REMARK  7 active torsions:
REMARK  status: ('A' for Active; 'I' for Inactive)
REMARK    1  A    between atoms: C_3  and  C_15
REMARK    2  A    between atoms: C_3  and  C_18
REMARK    3  A    between atoms: C_6  and  C_8
REMARK    4  A    between atoms: C_15  and  O_16
REMARK    5  A    between atoms: C_18  and  O_19
REMARK    6  A    between atoms: O_19  and  C_20
REMARK    7  A    between atoms: C_28  and  O_30
REMARK                            x       y       z     vdW  Elec       q    Type
REMARK                         _______ _______ _______ _____ _____    ______ ____
ROOT
ATOM      1  O   UNL     1      34.202 -23.978 -11.664  0.00  0.00    -0.270 OA
ATOM      2  N   UNL     1      35.303 -25.115 -13.334  0.00  0.00    -0.275 N 
ATOM      3  C   UNL     1      37.029 -25.444 -14.381  0.00  0.00    +0.166 C 
ATOM      4  C   UNL     1      35.555 -25.818 -14.578  0.00  0.00    +0.110 C 
ATOM      5  C   UNL     1      36.695 -25.088 -12.928  0.00  0.00    +0.110 C 
ATOM      6  C   UNL     1      34.202 -24.540 -12.755  0.00  0.00    +0.249 C 
ENDROOT
BRANCH   6   8
ATOM      7  F   UNL     1      29.411 -24.722 -15.657  0.00  0.00    -0.204 F 
ATOM      8  C   UNL     1      32.941 -24.589 -13.520  0.00  0.00    +0.054 C 
ATOM      9  C   UNL     1      31.962 -25.527 -13.191  0.00  0.00    +0.007 C 
ATOM     10  C   UNL     1      32.727 -23.696 -14.570  0.00  0.00    +0.007 C 
ATOM     11  C   UNL     1      30.769 -25.572 -13.913  0.00  0.00    +0.030 C 
ATOM     12  C   UNL     1      31.534 -23.742 -15.292  0.00  0.00    +0.030 C 
ATOM     13  C   UNL     1      30.555 -24.679 -14.963  0.00  0.00    +0.140 C 
ENDBRANCH   6   8
BRANCH   3  15
ATOM     14  O   UNL     1      37.885 -27.769 -14.328  0.00  0.00    -0.250 OA
ATOM     15  C   UNL     1      38.060 -26.582 -14.593  0.00  0.00    +0.320 C 
BRANCH  15  16
ATOM     16  O   UNL     1      39.230 -26.129 -15.123  0.00  0.00    -0.480 OA
ATOM     17  H   UNL     1      39.640 -26.599 -15.821  0.00  0.00    +0.295 HD
ENDBRANCH  15  16
ENDBRANCH   3  15
BRANCH   3  18
ATOM     18  C   UNL     1      37.411 -24.217 -15.186  0.00  0.00    +0.219 C 
BRANCH  18  19
ATOM     19  O   UNL     1      36.247 -23.414 -15.374  0.00  0.00    -0.475 OA
BRANCH  19  20
ATOM     20  C   UNL     1      36.134 -22.755 -16.559  0.00  0.00    +0.139 C 
ATOM     21  C   UNL     1      34.890 -22.650 -17.183  0.00  0.00    +0.037 C 
ATOM     22  C   UNL     1      37.260 -22.186 -17.149  0.00  0.00    +0.037 C 
ATOM     23  C   UNL     1      34.757 -21.973 -18.406  0.00  0.00    +0.003 C 
ATOM     24  C   UNL     1      35.901 -21.395 -19.006  0.00  0.00    +0.003 C 
ATOM     25  C   UNL     1      37.145 -21.510 -18.364  0.00  0.00    +0.003 C 
ATOM     26  C   UNL     1      33.513 -21.858 -19.047  0.00  0.00    +0.003 C 
ATOM     27  C   UNL     1      35.767 -20.718 -20.229  0.00  0.00    +0.037 C 
ATOM     28  C   UNL     1      34.524 -20.614 -20.852  0.00  0.00    +0.139 C 
ATOM     29  C   UNL     1      33.398 -21.183 -20.263  0.00  0.00    +0.037 C 
BRANCH  28  30
ATOM     30  O   UNL     1      34.411 -19.956 -22.039  0.00  0.00    -0.471 OA
ATOM     31  C   UNL     1      35.218 -18.793 -22.215  0.00  0.00    +0.252 C 
ENDBRANCH  28  30
ENDBRANCH  19  20
ENDBRANCH  18  19
ENDBRANCH   3  18
TORSDOF 7
ENDMDL
MODEL 5
REMARK VINA RESULT:      -9.2      9.521     14.749
REMARK  Name = 25114442
REMARK  7 active torsions:
REMARK  status: ('A' for Active; 'I' for Inactive)
REMARK    1  A    between atoms: C_3  and  C_15
REMARK    2  A    between atoms: C_3  and  C_18
REMARK    3  A    between atoms: C_6  and  C_8
REMARK    4  A    between atoms: C_15  and  O_16
REMARK    5  A    between atoms: C_18  and  O_19
REMARK    6  A    between atoms: O_19  and  C_20
REMARK    7  A    between atoms: C_28  and  O_30
REMARK                            x       y       z     vdW  Elec       q    Type
REMARK                         _______ _______ _______ _____ _____    ______ ____
ROOT
ATOM      1  O   UNL     1      33.247  -6.579 -20.024  0.00  0.00    -0.270 OA
ATOM      2  N   UNL     1      32.091  -8.316 -20.996  0.00  0.00    -0.275 N 
ATOM      3  C   UNL     1      31.730 -10.325 -21.116  0.00  0.00    +0.166 C 
ATOM      4  C   UNL     1      31.384  -9.109 -21.984  0.00  0.00    +0.110 C 
ATOM      5  C   UNL     1      32.090  -9.356 -19.985  0.00  0.00    +0.110 C 
ATOM      6  C   UNL     1      32.686  -7.081 -20.994  0.00  0.00    +0.249 C 
ENDROOT
BRANCH   6   8
ATOM      7  F   UNL     1      32.591  -4.210 -25.806  0.00  0.00    -0.204 F 
ATOM      8  C   UNL     1      32.662  -6.324 -22.261  0.00  0.00    +0.054 C 
ATOM      9  C   UNL     1      33.587  -6.613 -23.263  0.00  0.00    +0.007 C 
ATOM     10  C   UNL     1      31.712  -5.322 -22.456  0.00  0.00    +0.007 C 
ATOM     11  C   UNL     1      33.564  -5.900 -24.461  0.00  0.00    +0.030 C 
ATOM     12  C   UNL     1      31.689  -4.607 -23.654  0.00  0.00    +0.030 C 
ATOM     13  C   UNL     1      32.614  -4.896 -24.656  0.00  0.00    +0.140 C 
ENDBRANCH   6   8
BRANCH   3  15
ATOM     14  O   UNL     1      30.252 -11.751 -19.728  0.00  0.00    -0.250 OA
ATOM     15  C   UNL     1      30.572 -11.317 -20.832  0.00  0.00    +0.320 C 
BRANCH  15  16
ATOM     16  O   UNL     1      29.911 -11.679 -21.966  0.00  0.00    -0.480 OA
ATOM     17  H   UNL     1      29.225 -12.315 -21.925  0.00  0.00    +0.295 HD
ENDBRANCH  15  16
ENDBRANCH   3  15
BRANCH   3  18
ATOM     18  C   UNL     1      32.951 -11.060 -21.635  0.00  0.00    +0.219 C 
BRANCH  18  19
ATOM     19  O   UNL     1      32.517 -12.223 -22.340  0.00  0.00    -0.475 OA
BRANCH  19  20
ATOM     20  C   UNL     1      33.103 -13.405 -22.004  0.00  0.00    +0.139 C 
ATOM     21  C   UNL     1      33.604 -14.242 -23.001  0.00  0.00    +0.037 C 
ATOM     22  C   UNL     1      33.201 -13.778 -20.666  0.00  0.00    +0.037 C 
ATOM     23  C   UNL     1      34.211 -15.465 -22.671  0.00  0.00    +0.003 C 
ATOM     24  C   UNL     1      34.311 -15.844 -21.311  0.00  0.00    +0.003 C 
ATOM     25  C   UNL     1      33.801 -14.989 -20.321  0.00  0.00    +0.003 C 
ATOM     26  C   UNL     1      34.721 -16.320 -23.662  0.00  0.00    +0.003 C 
ATOM     27  C   UNL     1      34.918 -17.067 -20.983  0.00  0.00    +0.037 C 
ATOM     28  C   UNL     1      35.419 -17.904 -21.980  0.00  0.00    +0.139 C 
ATOM     29  C   UNL     1      35.320 -17.532 -23.317  0.00  0.00    +0.037 C 
BRANCH  28  30
ATOM     30  O   UNL     1      36.002 -19.088 -21.644  0.00  0.00    -0.471 OA
ATOM     31  C   UNL     1      35.170 -20.069 -21.027  0.00  0.00    +0.252 C 
ENDBRANCH  28  30
ENDBRANCH  19  20
ENDBRANCH  18  19
ENDBRANCH   3  18
TORSDOF 7
ENDMDL
MODEL 6
REMARK VINA RESULT:      -9.1      9.483     14.651
REMARK  Name = 25114442
REMARK  7 active torsions:
REMARK  status: ('A' for Active; 'I' for Inactive)
REMARK    1  A    between atoms: C_3  and  C_15
REMARK    2  A    between atoms: C_3  and  C_18
REMARK    3  A    between atoms: C_6  and  C_8
REMARK    4  A    between atoms: C_15  and  O_16
REMARK    5  A    between atoms: C_18  and  O_19
REMARK    6  A    between atoms: O_19  and  C_20
REMARK    7  A    between atoms: C_28  and  O_30
REMARK                            x       y       z     vdW  Elec       q    Type
REMARK                         _______ _______ _______ _____ _____    ______ ____
ROOT
ATOM      1  O   UNL     1      33.427  -6.567 -19.757  0.00  0.00    -0.270 OA
ATOM      2  N   UNL     1      32.147  -8.325 -20.508  0.00  0.00    -0.275 N 
ATOM      3  C   UNL     1      31.688 -10.317 -20.422  0.00  0.00    +0.166 C 
ATOM      4  C   UNL     1      31.357  -9.170 -21.384  0.00  0.00    +0.110 C 
ATOM      5  C   UNL     1      32.148  -9.266 -19.404  0.00  0.00    +0.110 C 
ATOM      6  C   UNL     1      32.797  -7.127 -20.649  0.00  0.00    +0.249 C 
ENDROOT
BRANCH   6   8
ATOM      7  F   UNL     1      32.607  -4.706 -25.700  0.00  0.00    -0.204 F 
ATOM      8  C   UNL     1      32.746  -6.490 -21.979  0.00  0.00    +0.054 C 
ATOM      9  C   UNL     1      31.771  -5.533 -22.257  0.00  0.00    +0.007 C 
ATOM     10  C   UNL     1      33.676  -6.844 -22.958  0.00  0.00    +0.007 C 
ATOM     11  C   UNL     1      31.724  -4.930 -23.514  0.00  0.00    +0.030 C 
ATOM     12  C   UNL     1      33.628  -6.241 -24.215  0.00  0.00    +0.030 C 
ATOM     13  C   UNL     1      32.653  -5.284 -24.493  0.00  0.00    +0.140 C 
ENDBRANCH   6   8
BRANCH   3  15
ATOM     14  O   UNL     1      30.002 -11.265 -18.872  0.00  0.00    -0.250 OA
ATOM     15  C   UNL     1      30.502 -11.218 -19.994  0.00  0.00    +0.320 C 
BRANCH  15  16
ATOM     16  O   UNL     1      30.039 -11.987 -21.018  0.00  0.00    -0.480 OA
ATOM     17  H   UNL     1      30.633 -12.522 -21.507  0.00  0.00    +0.295 HD
ENDBRANCH  15  16
ENDBRANCH   3  15
BRANCH   3  18
ATOM     18  C   UNL     1      32.847 -11.157 -20.923  0.00  0.00    +0.219 C 
BRANCH  18  19
ATOM     19  O   UNL     1      32.454 -11.797 -22.136  0.00  0.00    -0.475 OA
BRANCH  19  20
ATOM     20  C   UNL     1      33.071 -12.971 -22.444  0.00  0.00    +0.139 C 
ATOM     21  C   UNL     1      33.374 -13.884 -21.434  0.00  0.00    +0.037 C 
ATOM     22  C   UNL     1      33.401 -13.258 -23.766  0.00  0.00    +0.037 C 
ATOM     23  C   UNL     1      34.011 -15.100 -21.735  0.00  0.00    +0.003 C 
ATOM     24  C   UNL     1      34.346 -15.392 -23.079  0.00  0.00    +0.003 C 
ATOM     25  C   UNL     1      34.033 -14.461 -24.083  0.00  0.00    +0.003 C 
ATOM     26  C   UNL     1      34.322 -16.031 -20.731  0.00  0.00    +0.003 C 
ATOM     27  C   UNL     1      34.982 -16.607 -23.378  0.00  0.00    +0.037 C 
ATOM     28  C   UNL     1      35.284 -17.521 -22.369  0.00  0.00    +0.139 C 
ATOM     29  C   UNL     1      34.956 -17.234 -21.047  0.00  0.00    +0.037 C 
BRANCH  28  30
ATOM     30  O   UNL     1      35.904 -18.694 -22.677  0.00  0.00    -0.471 OA
ATOM     31  C   UNL     1      35.069 -19.828 -22.903  0.00  0.00    +0.252 C 
ENDBRANCH  28  30
ENDBRANCH  19  20
ENDBRANCH  18  19
ENDBRANCH   3  18
TORSDOF 7
ENDMDL
MODEL 7
REMARK VINA RESULT:      -9.0      3.710      7.180
REMARK  Name = 25114442
REMARK  7 active torsions:
REMARK  status: ('A' for Active; 'I' for Inactive)
REMARK    1  A    between atoms: C_3  and  C_15
REMARK    2  A    between atoms: C_3  and  C_18
REMARK    3  A    between atoms: C_6  and  C_8
REMARK    4  A    between atoms: C_15  and  O_16
REMARK    5  A    between atoms: C_18  and  O_19
REMARK    6  A    between atoms: O_19  and  C_20
REMARK    7  A    between atoms: C_28  and  O_30
REMARK                            x       y       z     vdW  Elec       q    Type
REMARK                         _______ _______ _______ _____ _____    ______ ____
ROOT
ATOM      1  O   UNL     1      36.603 -26.182 -15.065  0.00  0.00    -0.270 OA
ATOM      2  N   UNL     1      36.391 -24.738 -13.286  0.00  0.00    -0.275 N 
ATOM      3  C   UNL     1      35.573 -24.324 -11.457  0.00  0.00    +0.166 C 
ATOM      4  C   UNL     1      36.318 -23.508 -12.520  0.00  0.00    +0.110 C 
ATOM      5  C   UNL     1      36.053 -25.596 -12.166  0.00  0.00    +0.110 C 
ATOM      6  C   UNL     1      36.574 -25.042 -14.610  0.00  0.00    +0.249 C 
ENDROOT
BRANCH   6   8
ATOM      7  F   UNL     1      37.135 -20.742 -18.160  0.00  0.00    -0.204 F 
ATOM      8  C   UNL     1      36.721 -23.909 -15.543  0.00  0.00    +0.054 C 
ATOM      9  C   UNL     1      37.946 -23.253 -15.655  0.00  0.00    +0.007 C 
ATOM     10  C   UNL     1      35.636 -23.497 -16.317  0.00  0.00    +0.007 C 
ATOM     11  C   UNL     1      38.086 -22.183 -16.538  0.00  0.00    +0.030 C 
ATOM     12  C   UNL     1      35.776 -22.426 -17.200  0.00  0.00    +0.030 C 
ATOM     13  C   UNL     1      37.001 -21.770 -17.311  0.00  0.00    +0.140 C 
ENDBRANCH   6   8
BRANCH   3  15
ATOM     14  O   UNL     1      36.909 -23.351  -9.610  0.00  0.00    -0.250 OA
ATOM     15  C   UNL     1      36.042 -24.134  -9.992  0.00  0.00    +0.320 C 
BRANCH  15  16
ATOM     16  O   UNL     1      35.377 -24.947  -9.125  0.00  0.00    -0.480 OA
ATOM     17  H   UNL     1      34.578 -24.658  -8.731  0.00  0.00    +0.295 HD
ENDBRANCH  15  16
ENDBRANCH   3  15
BRANCH   3  18
ATOM     18  C   UNL     1      34.071 -24.155 -11.567  0.00  0.00    +0.219 C 
BRANCH  18  19
ATOM     19  O   UNL     1      33.570 -25.116 -12.495  0.00  0.00    -0.475 OA
BRANCH  19  20
ATOM     20  C   UNL     1      32.665 -24.677 -13.412  0.00  0.00    +0.139 C 
ATOM     21  C   UNL     1      31.421 -25.300 -13.515  0.00  0.00    +0.037 C 
ATOM     22  C   UNL     1      32.981 -23.610 -14.248  0.00  0.00    +0.037 C 
ATOM     23  C   UNL     1      30.475 -24.861 -14.457  0.00  0.00    +0.003 C 
ATOM     24  C   UNL     1      30.797 -23.775 -15.306  0.00  0.00    +0.003 C 
ATOM     25  C   UNL     1      32.054 -23.160 -15.189  0.00  0.00    +0.003 C 
ATOM     26  C   UNL     1      29.218 -25.475 -14.574  0.00  0.00    +0.003 C 
ATOM     27  C   UNL     1      29.851 -23.337 -16.247  0.00  0.00    +0.037 C 
ATOM     28  C   UNL     1      28.607 -23.958 -16.350  0.00  0.00    +0.139 C 
ATOM     29  C   UNL     1      28.291 -25.027 -15.515  0.00  0.00    +0.037 C 
BRANCH  28  30
ATOM     30  O   UNL     1      27.703 -23.522 -17.269  0.00  0.00    -0.471 OA
ATOM     31  C   UNL     1      26.902 -22.398 -16.908  0.00  0.00    +0.252 C 
ENDBRANCH  28  30
ENDBRANCH  19  20
ENDBRANCH  18  19
ENDBRANCH   3  18
TORSDOF 7
ENDMDL
MODEL 8
REMARK VINA RESULT:      -8.5      2.991      5.326
REMARK  Name = 25114442
REMARK  7 active torsions:
REMARK  status: ('A' for Active; 'I' for Inactive)
REMARK    1  A    between atoms: C_3  and  C_15
REMARK    2  A    between atoms: C_3  and  C_18
REMARK    3  A    between atoms: C_6  and  C_8
REMARK    4  A    between atoms: C_15  and  O_16
REMARK    5  A    between atoms: C_18  and  O_19
REMARK    6  A    between atoms: O_19  and  C_20
REMARK    7  A    between atoms: C_28  and  O_30
REMARK                            x       y       z     vdW  Elec       q    Type
REMARK                         _______ _______ _______ _____ _____    ______ ____
ROOT
ATOM      1  O   UNL     1      35.533 -26.606 -15.011  0.00  0.00    -0.270 OA
ATOM      2  N   UNL     1      33.948 -25.280 -13.998  0.00  0.00    -0.275 N 
ATOM      3  C   UNL     1      32.186 -24.249 -14.131  0.00  0.00    +0.166 C 
ATOM      4  C   UNL     1      33.341 -24.295 -13.123  0.00  0.00    +0.110 C 
ATOM      5  C   UNL     1      32.730 -25.546 -14.740  0.00  0.00    +0.110 C 
ATOM      6  C   UNL     1      35.223 -25.742 -14.195  0.00  0.00    +0.249 C 
ENDROOT
BRANCH   6   8
ATOM      7  F   UNL     1      39.272 -23.425 -11.089  0.00  0.00    -0.204 F 
ATOM      8  C   UNL     1      36.290 -25.132 -13.379  0.00  0.00    +0.054 C 
ATOM      9  C   UNL     1      36.632 -23.793 -13.566  0.00  0.00    +0.007 C 
ATOM     10  C   UNL     1      36.954 -25.894 -12.417  0.00  0.00    +0.007 C 
ATOM     11  C   UNL     1      37.640 -23.216 -12.793  0.00  0.00    +0.030 C 
ATOM     12  C   UNL     1      37.963 -25.317 -11.645  0.00  0.00    +0.030 C 
ATOM     13  C   UNL     1      38.305 -23.979 -11.832  0.00  0.00    +0.140 C 
ENDBRANCH   6   8
BRANCH   3  15
ATOM     14  O   UNL     1      30.457 -24.735 -12.422  0.00  0.00    -0.250 OA
ATOM     15  C   UNL     1      30.755 -24.314 -13.538  0.00  0.00    +0.320 C 
BRANCH  15  16
ATOM     16  O   UNL     1      29.815 -23.841 -14.402  0.00  0.00    -0.480 OA
ATOM     17  H   UNL     1      28.963 -24.229 -14.425  0.00  0.00    +0.295 HD
ENDBRANCH  15  16
ENDBRANCH   3  15
BRANCH   3  18
ATOM     18  C   UNL     1      32.319 -23.081 -15.087  0.00  0.00    +0.219 C 
BRANCH  18  19
ATOM     19  O   UNL     1      32.361 -23.586 -16.421  0.00  0.00    -0.475 OA
BRANCH  19  20
ATOM     20  C   UNL     1      33.201 -22.964 -17.293  0.00  0.00    +0.139 C 
ATOM     21  C   UNL     1      32.682 -22.146 -18.296  0.00  0.00    +0.037 C 
ATOM     22  C   UNL     1      34.577 -23.146 -17.184  0.00  0.00    +0.037 C 
ATOM     23  C   UNL     1      33.535 -21.497 -19.204  0.00  0.00    +0.003 C 
ATOM     24  C   UNL     1      34.934 -21.681 -19.093  0.00  0.00    +0.003 C 
ATOM     25  C   UNL     1      35.439 -22.509 -18.077  0.00  0.00    +0.003 C 
ATOM     26  C   UNL     1      33.030 -20.669 -20.220  0.00  0.00    +0.003 C 
ATOM     27  C   UNL     1      35.786 -21.032 -20.001  0.00  0.00    +0.037 C 
ATOM     28  C   UNL     1      35.267 -20.214 -21.004  0.00  0.00    +0.139 C 
ATOM     29  C   UNL     1      33.892 -20.033 -21.115  0.00  0.00    +0.037 C 
BRANCH  28  30
ATOM     30  O   UNL     1      36.108 -19.594 -21.878  0.00  0.00    -0.471 OA
ATOM     31  C   UNL     1      35.712 -18.311 -22.359  0.00  0.00    +0.252 C 
ENDBRANCH  28  30
ENDBRANCH  19  20
ENDBRANCH  18  19
ENDBRANCH   3  18
TORSDOF 7
ENDMDL
MODEL 9
REMARK VINA RESULT:      -8.5      2.934      4.824
REMARK  Name = 25114442
REMARK  7 active torsions:
REMARK  status: ('A' for Active; 'I' for Inactive)
REMARK    1  A    between atoms: C_3  and  C_15
REMARK    2  A    between atoms: C_3  and  C_18
REMARK    3  A    between atoms: C_6  and  C_8
REMARK    4  A    between atoms: C_15  and  O_16
REMARK    5  A    between atoms: C_18  and  O_19
REMARK    6  A    between atoms: O_19  and  C_20
REMARK    7  A    between atoms: C_28  and  O_30
REMARK                            x       y       z     vdW  Elec       q    Type
REMARK                         _______ _______ _______ _____ _____    ______ ____
ROOT
ATOM      1  O   UNL     1      36.164 -26.297 -14.577  0.00  0.00    -0.270 OA
ATOM      2  N   UNL     1      34.386 -24.844 -14.740  0.00  0.00    -0.275 N 
ATOM      3  C   UNL     1      33.114 -23.763 -15.921  0.00  0.00    +0.166 C 
ATOM      4  C   UNL     1      33.456 -23.777 -14.427  0.00  0.00    +0.110 C 
ATOM      5  C   UNL     1      33.817 -25.120 -16.045  0.00  0.00    +0.110 C 
ATOM      6  C   UNL     1      35.500 -25.365 -14.133  0.00  0.00    +0.249 C 
ENDROOT
BRANCH   6   8
ATOM      7  F   UNL     1      37.128 -22.971  -9.334  0.00  0.00    -0.204 F 
ATOM      8  C   UNL     1      35.929 -24.736 -12.869  0.00  0.00    +0.054 C 
ATOM      9  C   UNL     1      36.957 -23.794 -12.874  0.00  0.00    +0.007 C 
ATOM     10  C   UNL     1      35.305 -25.081 -11.671  0.00  0.00    +0.007 C 
ATOM     11  C   UNL     1      37.363 -23.197 -11.680  0.00  0.00    +0.030 C 
ATOM     12  C   UNL     1      35.711 -24.486 -10.476  0.00  0.00    +0.030 C 
ATOM     13  C   UNL     1      36.739 -23.543 -10.481  0.00  0.00    +0.140 C 
ENDBRANCH   6   8
BRANCH   3  15
ATOM     14  O   UNL     1      30.764 -24.553 -15.920  0.00  0.00    -0.250 OA
ATOM     15  C   UNL     1      31.606 -23.733 -16.280  0.00  0.00    +0.320 C 
BRANCH  15  16
ATOM     16  O   UNL     1      31.282 -22.669 -17.065  0.00  0.00    -0.480 OA
ATOM     17  H   UNL     1      31.888 -21.963 -17.170  0.00  0.00    +0.295 HD
ENDBRANCH  15  16
ENDBRANCH   3  15
BRANCH   3  18
ATOM     18  C   UNL     1      33.864 -22.674 -16.662  0.00  0.00    +0.219 C 
BRANCH  18  19
ATOM     19  O   UNL     1      33.985 -23.054 -18.032  0.00  0.00    -0.475 OA
BRANCH  19  20
ATOM     20  C   UNL     1      34.138 -22.052 -18.941  0.00  0.00    +0.139 C 
ATOM     21  C   UNL     1      35.414 -21.584 -19.254  0.00  0.00    +0.037 C 
ATOM     22  C   UNL     1      33.021 -21.495 -19.557  0.00  0.00    +0.037 C 
ATOM     23  C   UNL     1      35.589 -20.551 -20.189  0.00  0.00    +0.003 C 
ATOM     24  C   UNL     1      34.454 -19.985 -20.816  0.00  0.00    +0.003 C 
ATOM     25  C   UNL     1      33.176 -20.468 -20.489  0.00  0.00    +0.003 C 
ATOM     26  C   UNL     1      36.867 -20.069 -20.517  0.00  0.00    +0.003 C 
ATOM     27  C   UNL     1      34.630 -18.952 -21.751  0.00  0.00    +0.037 C 
ATOM     28  C   UNL     1      35.906 -18.485 -22.064  0.00  0.00    +0.139 C 
ATOM     29  C   UNL     1      37.023 -19.041 -21.448  0.00  0.00    +0.037 C 
BRANCH  28  30
ATOM     30  O   UNL     1      36.058 -17.481 -22.971  0.00  0.00    -0.471 OA
ATOM     31  C   UNL     1      34.915 -17.132 -23.751  0.00  0.00    +0.252 C 
ENDBRANCH  28  30
ENDBRANCH  19  20
ENDBRANCH  18  19
ENDBRANCH   3  18
TORSDOF 7
ENDMDL
