MODEL 1
REMARK VINA RESULT:     -12.7      0.000      0.000
REMARK  Name = 58212050
REMARK  2 active torsions:
REMARK  status: ('A' for Active; 'I' for Inactive)
REMARK    1  A    between atoms: C_2  and  C_13
REMARK    2  A    between atoms: C_10  and  C_26
REMARK                            x       y       z     vdW  Elec       q    Type
REMARK                         _______ _______ _______ _____ _____    ______ ____
ROOT
ATOM      1  N   UNL     1      37.148 -23.225 -16.697  0.00  0.00    +0.389 N 
ATOM      2  C   UNL     1      34.695 -23.472 -16.927  0.00  0.00    +0.023 C 
ATOM      3  C   UNL     1      35.891 -23.363 -15.951  0.00  0.00    -0.068 C 
ATOM      4  C   UNL     1      34.761 -22.456 -18.060  0.00  0.00    -0.026 C 
ATOM      5  C   UNL     1      35.955 -21.749 -18.301  0.00  0.00    -0.047 C 
ATOM      6  C   UNL     1      37.160 -21.938 -17.410  0.00  0.00    -0.050 C 
ATOM      7  C   UNL     1      33.674 -22.270 -18.931  0.00  0.00    -0.004 C 
ATOM      8  C   UNL     1      36.016 -20.823 -19.354  0.00  0.00    -0.005 C 
ATOM      9  C   UNL     1      38.297 -23.319 -15.797  0.00  0.00    -0.100 C 
ATOM     10  C   UNL     1      34.918 -20.629 -20.190  0.00  0.00    +0.019 C 
ATOM     11  C   UNL     1      33.750 -21.357 -19.983  0.00  0.00    +0.001 C 
ATOM     12  H   UNL     1      37.214 -23.985 -17.375  0.00  0.00    -0.079 HD
ENDROOT
BRANCH   2  13
ATOM     13  C   UNL     1      33.395 -23.442 -16.133  0.00  0.00    -0.020 C 
ATOM     14  C   UNL     1      32.179 -23.254 -16.791  0.00  0.00    -0.004 C 
ATOM     15  C   UNL     1      33.421 -23.600 -14.751  0.00  0.00    -0.004 C 
ATOM     16  C   UNL     1      30.973 -23.223 -16.074  0.00  0.00    -0.000 C 
ATOM     17  C   UNL     1      31.000 -23.383 -14.668  0.00  0.00    -0.000 C 
ATOM     18  C   UNL     1      32.231 -23.571 -14.022  0.00  0.00    -0.000 C 
ATOM     19  C   UNL     1      29.741 -23.034 -16.722  0.00  0.00    -0.000 C 
ATOM     20  C   UNL     1      29.793 -23.351 -13.950  0.00  0.00    -0.000 C 
ATOM     21  C   UNL     1      28.551 -23.005 -15.993  0.00  0.00    -0.000 C 
ATOM     22  C   UNL     1      28.577 -23.163 -14.610  0.00  0.00    -0.000 C 
ENDBRANCH   2  13
BRANCH  10  26
ATOM     23  N   UNL     1      35.303 -18.412 -20.919  0.00  0.00    -0.147 NA
ATOM     24  N   UNL     1      35.395 -17.454 -21.880  0.00  0.00    -0.133 NA
ATOM     25  N   UNL     1      35.271 -16.798 -24.169  0.00  0.00    -0.341 N 
ATOM     26  C   UNL     1      34.994 -19.677 -21.277  0.00  0.00    +0.103 C 
ATOM     27  C   UNL     1      34.765 -20.052 -22.586  0.00  0.00    +0.024 C 
ATOM     28  C   UNL     1      34.859 -19.078 -23.564  0.00  0.00    +0.037 C 
ATOM     29  C   UNL     1      35.176 -17.794 -23.169  0.00  0.00    +0.147 C 
ATOM     30  H   UNL     1      35.495 -15.872 -23.922  0.00  0.00    +0.144 HD
ATOM     31  H   UNL     1      35.113 -17.031 -25.112  0.00  0.00    +0.144 HD
ENDBRANCH  10  26
TORSDOF 2
ENDMDL
MODEL 2
REMARK VINA RESULT:     -11.9      0.722      1.585
REMARK  Name = 58212050
REMARK  2 active torsions:
REMARK  status: ('A' for Active; 'I' for Inactive)
REMARK    1  A    between atoms: C_2  and  C_13
REMARK    2  A    between atoms: C_10  and  C_26
REMARK                            x       y       z     vdW  Elec       q    Type
REMARK                         _______ _______ _______ _____ _____    ______ ____
ROOT
ATOM      1  N   UNL     1      37.178 -23.051 -16.830  0.00  0.00    +0.389 N 
ATOM      2  C   UNL     1      34.768 -23.473 -17.208  0.00  0.00    +0.023 C 
ATOM      3  C   UNL     1      35.897 -23.308 -16.162  0.00  0.00    -0.068 C 
ATOM      4  C   UNL     1      34.818 -22.416 -18.304  0.00  0.00    -0.026 C 
ATOM      5  C   UNL     1      35.965 -21.613 -18.455  0.00  0.00    -0.047 C 
ATOM      6  C   UNL     1      37.131 -21.742 -17.502  0.00  0.00    -0.050 C 
ATOM      7  C   UNL     1      33.769 -22.282 -19.230  0.00  0.00    -0.004 C 
ATOM      8  C   UNL     1      36.012 -20.651 -19.474  0.00  0.00    -0.005 C 
ATOM      9  C   UNL     1      38.280 -23.089 -15.868  0.00  0.00    -0.100 C 
ATOM     10  C   UNL     1      34.950 -20.510 -20.366  0.00  0.00    +0.019 C 
ATOM     11  C   UNL     1      33.833 -21.331 -20.248  0.00  0.00    +0.001 C 
ATOM     12  H   UNL     1      37.340 -23.779 -17.526  0.00  0.00    -0.079 HD
ENDROOT
BRANCH   2  13
ATOM     13  C   UNL     1      33.427 -23.567 -16.489  0.00  0.00    -0.020 C 
ATOM     14  C   UNL     1      33.325 -24.285 -15.297  0.00  0.00    -0.004 C 
ATOM     15  C   UNL     1      32.307 -22.939 -17.022  0.00  0.00    -0.004 C 
ATOM     16  C   UNL     1      32.097 -24.382 -14.623  0.00  0.00    -0.000 C 
ATOM     17  C   UNL     1      30.957 -23.743 -15.165  0.00  0.00    -0.000 C 
ATOM     18  C   UNL     1      31.078 -23.026 -16.366  0.00  0.00    -0.000 C 
ATOM     19  C   UNL     1      31.976 -25.101 -13.422  0.00  0.00    -0.000 C 
ATOM     20  C   UNL     1      29.729 -23.841 -14.491  0.00  0.00    -0.000 C 
ATOM     21  C   UNL     1      30.748 -25.188 -12.765  0.00  0.00    -0.000 C 
ATOM     22  C   UNL     1      29.627 -24.560 -13.299  0.00  0.00    -0.000 C 
ENDBRANCH   2  13
BRANCH  10  26
ATOM     23  N   UNL     1      35.252 -18.254 -21.007  0.00  0.00    -0.147 NA
ATOM     24  N   UNL     1      35.327 -17.260 -21.933  0.00  0.00    -0.133 NA
ATOM     25  N   UNL     1      35.238 -16.531 -24.202  0.00  0.00    -0.341 N 
ATOM     26  C   UNL     1      35.013 -19.518 -21.417  0.00  0.00    +0.103 C 
ATOM     27  C   UNL     1      34.839 -19.857 -22.744  0.00  0.00    +0.024 C 
ATOM     28  C   UNL     1      34.915 -18.847 -23.686  0.00  0.00    +0.037 C 
ATOM     29  C   UNL     1      35.160 -17.564 -23.238  0.00  0.00    +0.147 C 
ATOM     30  H   UNL     1      35.411 -15.604 -23.916  0.00  0.00    +0.144 HD
ATOM     31  H   UNL     1      35.117 -16.738 -25.156  0.00  0.00    +0.144 HD
ENDBRANCH  10  26
TORSDOF 2
ENDMDL
MODEL 3
REMARK VINA RESULT:     -11.7      1.008      1.119
REMARK  Name = 58212050
REMARK  2 active torsions:
REMARK  status: ('A' for Active; 'I' for Inactive)
REMARK    1  A    between atoms: C_2  and  C_13
REMARK    2  A    between atoms: C_10  and  C_26
REMARK                            x       y       z     vdW  Elec       q    Type
REMARK                         _______ _______ _______ _____ _____    ______ ____
ROOT
ATOM      1  N   UNL     1      36.792 -23.860 -16.021  0.00  0.00    +0.389 N 
ATOM      2  C   UNL     1      34.352 -23.944 -16.435  0.00  0.00    +0.023 C 
ATOM      3  C   UNL     1      35.476 -23.911 -15.372  0.00  0.00    -0.068 C 
ATOM      4  C   UNL     1      34.571 -22.938 -17.559  0.00  0.00    -0.026 C 
ATOM      5  C   UNL     1      35.824 -22.313 -17.708  0.00  0.00    -0.047 C 
ATOM      6  C   UNL     1      36.943 -22.578 -16.729  0.00  0.00    -0.050 C 
ATOM      7  C   UNL     1      33.567 -22.683 -18.508  0.00  0.00    -0.004 C 
ATOM      8  C   UNL     1      36.025 -21.397 -18.752  0.00  0.00    -0.005 C 
ATOM      9  C   UNL     1      37.861 -24.026 -15.037  0.00  0.00    -0.100 C 
ATOM     10  C   UNL     1      35.008 -21.133 -19.668  0.00  0.00    +0.019 C 
ATOM     11  C   UNL     1      33.783 -21.781 -19.550  0.00  0.00    +0.001 C 
ATOM     12  H   UNL     1      36.858 -24.624 -16.693  0.00  0.00    -0.079 HD
ENDROOT
BRANCH   2  13
ATOM     13  C   UNL     1      33.001 -23.824 -15.741  0.00  0.00    -0.020 C 
ATOM     14  C   UNL     1      31.852 -23.571 -16.490  0.00  0.00    -0.004 C 
ATOM     15  C   UNL     1      32.914 -23.967 -14.359  0.00  0.00    -0.004 C 
ATOM     16  C   UNL     1      30.600 -23.457 -15.866  0.00  0.00    -0.000 C 
ATOM     17  C   UNL     1      30.512 -23.601 -14.461  0.00  0.00    -0.000 C 
ATOM     18  C   UNL     1      31.678 -23.857 -13.722  0.00  0.00    -0.000 C 
ATOM     19  C   UNL     1      29.433 -23.201 -16.605  0.00  0.00    -0.000 C 
ATOM     20  C   UNL     1      29.259 -23.487 -13.835  0.00  0.00    -0.000 C 
ATOM     21  C   UNL     1      28.197 -23.090 -15.968  0.00  0.00    -0.000 C 
ATOM     22  C   UNL     1      28.110 -23.232 -14.586  0.00  0.00    -0.000 C 
ENDBRANCH   2  13
BRANCH  10  26
ATOM     23  N   UNL     1      34.270 -20.162 -21.694  0.00  0.00    -0.147 NA
ATOM     24  N   UNL     1      34.401 -19.305 -22.742  0.00  0.00    -0.133 NA
ATOM     25  N   UNL     1      35.624 -17.613 -23.895  0.00  0.00    -0.341 N 
ATOM     26  C   UNL     1      35.229 -20.192 -20.745  0.00  0.00    +0.103 C 
ATOM     27  C   UNL     1      36.350 -19.387 -20.784  0.00  0.00    +0.024 C 
ATOM     28  C   UNL     1      36.483 -18.515 -21.850  0.00  0.00    +0.037 C 
ATOM     29  C   UNL     1      35.487 -18.505 -22.805  0.00  0.00    +0.147 C 
ATOM     30  H   UNL     1      34.932 -17.581 -24.594  0.00  0.00    +0.144 HD
ATOM     31  H   UNL     1      36.411 -17.026 -23.954  0.00  0.00    +0.144 HD
ENDBRANCH  10  26
TORSDOF 2
ENDMDL
MODEL 4
REMARK VINA RESULT:     -11.2      7.928     13.196
REMARK  Name = 58212050
REMARK  2 active torsions:
REMARK  status: ('A' for Active; 'I' for Inactive)
REMARK    1  A    between atoms: C_2  and  C_13
REMARK    2  A    between atoms: C_10  and  C_26
REMARK                            x       y       z     vdW  Elec       q    Type
REMARK                         _______ _______ _______ _____ _____    ______ ____
ROOT
ATOM      1  N   UNL     1      30.894 -11.387 -19.505  0.00  0.00    +0.389 N 
ATOM      2  C   UNL     1      31.612 -10.615 -21.744  0.00  0.00    +0.023 C 
ATOM      3  C   UNL     1      31.376 -10.228 -20.265  0.00  0.00    -0.068 C 
ATOM      4  C   UNL     1      32.344 -11.942 -21.899  0.00  0.00    -0.026 C 
ATOM      5  C   UNL     1      32.476 -12.805 -20.795  0.00  0.00    -0.047 C 
ATOM      6  C   UNL     1      31.953 -12.406 -19.434  0.00  0.00    -0.050 C 
ATOM      7  C   UNL     1      32.820 -12.365 -23.152  0.00  0.00    -0.004 C 
ATOM      8  C   UNL     1      33.139 -14.032 -20.945  0.00  0.00    -0.005 C 
ATOM      9  C   UNL     1      30.481 -10.989 -18.159  0.00  0.00    -0.100 C 
ATOM     10  C   UNL     1      33.632 -14.423 -22.188  0.00  0.00    +0.019 C 
ATOM     11  C   UNL     1      33.467 -13.593 -23.292  0.00  0.00    +0.001 C 
ATOM     12  H   UNL     1      30.082 -11.780 -19.981  0.00  0.00    -0.079 HD
ENDROOT
BRANCH   2  13
ATOM     13  C   UNL     1      32.271  -9.447 -22.469  0.00  0.00    -0.020 C 
ATOM     14  C   UNL     1      31.562  -8.262 -22.670  0.00  0.00    -0.004 C 
ATOM     15  C   UNL     1      33.578  -9.563 -22.930  0.00  0.00    -0.004 C 
ATOM     16  C   UNL     1      32.154  -7.177 -23.337  0.00  0.00    -0.000 C 
ATOM     17  C   UNL     1      33.484  -7.296 -23.806  0.00  0.00    -0.000 C 
ATOM     18  C   UNL     1      34.182  -8.495 -23.595  0.00  0.00    -0.000 C 
ATOM     19  C   UNL     1      31.455  -5.978 -23.548  0.00  0.00    -0.000 C 
ATOM     20  C   UNL     1      34.076  -6.211 -24.474  0.00  0.00    -0.000 C 
ATOM     21  C   UNL     1      32.059  -4.910 -24.213  0.00  0.00    -0.000 C 
ATOM     22  C   UNL     1      33.366  -5.026 -24.675  0.00  0.00    -0.000 C 
ENDBRANCH   2  13
BRANCH  10  26
ATOM     23  N   UNL     1      34.622 -16.318 -21.176  0.00  0.00    -0.147 NA
ATOM     24  N   UNL     1      35.259 -17.518 -21.223  0.00  0.00    -0.133 NA
ATOM     25  N   UNL     1      36.226 -19.304 -22.474  0.00  0.00    -0.341 N 
ATOM     26  C   UNL     1      34.309 -15.694 -22.332  0.00  0.00    +0.103 C 
ATOM     27  C   UNL     1      34.606 -16.219 -23.574  0.00  0.00    +0.024 C 
ATOM     28  C   UNL     1      35.255 -17.440 -23.621  0.00  0.00    +0.037 C 
ATOM     29  C   UNL     1      35.562 -18.055 -22.425  0.00  0.00    +0.147 C 
ATOM     30  H   UNL     1      36.460 -19.770 -21.638  0.00  0.00    +0.144 HD
ATOM     31  H   UNL     1      36.453 -19.707 -23.343  0.00  0.00    +0.144 HD
ENDBRANCH  10  26
TORSDOF 2
ENDMDL
MODEL 5
REMARK VINA RESULT:     -10.0      5.553     11.139
REMARK  Name = 58212050
REMARK  2 active torsions:
REMARK  status: ('A' for Active; 'I' for Inactive)
REMARK    1  A    between atoms: C_2  and  C_13
REMARK    2  A    between atoms: C_10  and  C_26
REMARK                            x       y       z     vdW  Elec       q    Type
REMARK                         _______ _______ _______ _____ _____    ______ ____
ROOT
ATOM      1  N   UNL     1      33.992 -14.533 -25.990  0.00  0.00    +0.389 N 
ATOM      2  C   UNL     1      34.131 -13.304 -23.845  0.00  0.00    +0.023 C 
ATOM      3  C   UNL     1      33.404 -13.441 -25.205  0.00  0.00    -0.068 C 
ATOM      4  C   UNL     1      34.368 -14.646 -23.163  0.00  0.00    -0.026 C 
ATOM      5  C   UNL     1      34.201 -15.842 -23.888  0.00  0.00    -0.047 C 
ATOM      6  C   UNL     1      33.728 -15.818 -25.323  0.00  0.00    -0.050 C 
ATOM      7  C   UNL     1      34.835 -14.713 -21.840  0.00  0.00    -0.004 C 
ATOM      8  C   UNL     1      34.433 -17.075 -23.260  0.00  0.00    -0.005 C 
ATOM      9  C   UNL     1      33.448 -14.545 -27.348  0.00  0.00    -0.100 C 
ATOM     10  C   UNL     1      34.867 -17.125 -21.936  0.00  0.00    +0.019 C 
ATOM     11  C   UNL     1      35.075 -15.944 -21.230  0.00  0.00    +0.001 C 
ATOM     12  H   UNL     1      35.000 -14.388 -26.054  0.00  0.00    -0.079 HD
ENDROOT
BRANCH   2  13
ATOM     13  C   UNL     1      33.397 -12.284 -22.984  0.00  0.00    -0.020 C 
ATOM     14  C   UNL     1      33.637 -10.921 -23.160  0.00  0.00    -0.004 C 
ATOM     15  C   UNL     1      32.487 -12.712 -22.022  0.00  0.00    -0.004 C 
ATOM     16  C   UNL     1      32.970  -9.968 -22.374  0.00  0.00    -0.000 C 
ATOM     17  C   UNL     1      32.045 -10.404 -21.396  0.00  0.00    -0.000 C 
ATOM     18  C   UNL     1      31.815 -11.779 -21.232  0.00  0.00    -0.000 C 
ATOM     19  C   UNL     1      33.201  -8.592 -22.538  0.00  0.00    -0.000 C 
ATOM     20  C   UNL     1      31.377  -9.451 -20.609  0.00  0.00    -0.000 C 
ATOM     21  C   UNL     1      32.528  -7.659 -21.747  0.00  0.00    -0.000 C 
ATOM     22  C   UNL     1      31.619  -8.088 -20.785  0.00  0.00    -0.000 C 
ENDBRANCH   2  13
BRANCH  10  26
ATOM     23  N   UNL     1      36.363 -18.589 -20.836  0.00  0.00    -0.147 NA
ATOM     24  N   UNL     1      36.675 -19.763 -20.225  0.00  0.00    -0.133 NA
ATOM     25  N   UNL     1      36.046 -21.934 -19.463  0.00  0.00    -0.341 N 
ATOM     26  C   UNL     1      35.110 -18.402 -21.301  0.00  0.00    +0.103 C 
ATOM     27  C   UNL     1      34.116 -19.354 -21.186  0.00  0.00    +0.024 C 
ATOM     28  C   UNL     1      34.433 -20.548 -20.564  0.00  0.00    +0.037 C 
ATOM     29  C   UNL     1      35.722 -20.712 -20.098  0.00  0.00    +0.147 C 
ATOM     30  H   UNL     1      36.956 -22.083 -19.119  0.00  0.00    +0.144 HD
ATOM     31  H   UNL     1      35.361 -22.634 -19.365  0.00  0.00    +0.144 HD
ENDBRANCH  10  26
TORSDOF 2
ENDMDL
MODEL 6
REMARK VINA RESULT:     -10.0      5.089     10.328
REMARK  Name = 58212050
REMARK  2 active torsions:
REMARK  status: ('A' for Active; 'I' for Inactive)
REMARK    1  A    between atoms: C_2  and  C_13
REMARK    2  A    between atoms: C_10  and  C_26
REMARK                            x       y       z     vdW  Elec       q    Type
REMARK                         _______ _______ _______ _____ _____    ______ ____
ROOT
ATOM      1  N   UNL     1      33.987 -14.866 -25.777  0.00  0.00    +0.389 N 
ATOM      2  C   UNL     1      34.130 -13.635 -23.633  0.00  0.00    +0.023 C 
ATOM      3  C   UNL     1      33.394 -13.780 -24.987  0.00  0.00    -0.068 C 
ATOM      4  C   UNL     1      34.386 -14.974 -22.952  0.00  0.00    -0.026 C 
ATOM      5  C   UNL     1      34.226 -16.172 -23.675  0.00  0.00    -0.047 C 
ATOM      6  C   UNL     1      33.742 -16.154 -25.107  0.00  0.00    -0.050 C 
ATOM      7  C   UNL     1      34.864 -15.035 -21.633  0.00  0.00    -0.004 C 
ATOM      8  C   UNL     1      34.476 -17.402 -23.048  0.00  0.00    -0.005 C 
ATOM      9  C   UNL     1      33.433 -14.885 -27.130  0.00  0.00    -0.100 C 
ATOM     10  C   UNL     1      34.921 -17.446 -21.728  0.00  0.00    +0.019 C 
ATOM     11  C   UNL     1      35.122 -16.263 -21.024  0.00  0.00    +0.001 C 
ATOM     12  H   UNL     1      34.993 -14.711 -25.848  0.00  0.00    -0.079 HD
ENDROOT
BRANCH   2  13
ATOM     13  C   UNL     1      33.390 -12.622 -22.767  0.00  0.00    -0.020 C 
ATOM     14  C   UNL     1      32.900 -13.000 -21.517  0.00  0.00    -0.004 C 
ATOM     15  C   UNL     1      33.205 -11.321 -23.224  0.00  0.00    -0.004 C 
ATOM     16  C   UNL     1      32.216 -12.080 -20.707  0.00  0.00    -0.000 C 
ATOM     17  C   UNL     1      32.027 -10.756 -21.172  0.00  0.00    -0.000 C 
ATOM     18  C   UNL     1      32.527 -10.393 -22.432  0.00  0.00    -0.000 C 
ATOM     19  C   UNL     1      31.715 -12.444 -19.447  0.00  0.00    -0.000 C 
ATOM     20  C   UNL     1      31.342  -9.835 -20.362  0.00  0.00    -0.000 C 
ATOM     21  C   UNL     1      31.037 -11.516 -18.655  0.00  0.00    -0.000 C 
ATOM     22  C   UNL     1      30.851 -10.214 -19.112  0.00  0.00    -0.000 C 
ENDBRANCH   2  13
BRANCH  10  26
ATOM     23  N   UNL     1      36.450 -18.907 -20.670  0.00  0.00    -0.147 NA
ATOM     24  N   UNL     1      36.780 -20.079 -20.063  0.00  0.00    -0.133 NA
ATOM     25  N   UNL     1      36.172 -22.244 -19.268  0.00  0.00    -0.341 N 
ATOM     26  C   UNL     1      35.182 -18.720 -21.095  0.00  0.00    +0.103 C 
ATOM     27  C   UNL     1      34.192 -19.669 -20.942  0.00  0.00    +0.024 C 
ATOM     28  C   UNL     1      34.527 -20.861 -20.324  0.00  0.00    +0.037 C 
ATOM     29  C   UNL     1      35.830 -21.025 -19.900  0.00  0.00    +0.147 C 
ATOM     30  H   UNL     1      37.094 -22.393 -18.954  0.00  0.00    +0.144 HD
ATOM     31  H   UNL     1      35.490 -22.942 -19.144  0.00  0.00    +0.144 HD
ENDBRANCH  10  26
TORSDOF 2
ENDMDL
MODEL 7
REMARK VINA RESULT:      -9.8      2.361      5.725
REMARK  Name = 58212050
REMARK  2 active torsions:
REMARK  status: ('A' for Active; 'I' for Inactive)
REMARK    1  A    between atoms: C_2  and  C_13
REMARK    2  A    between atoms: C_10  and  C_26
REMARK                            x       y       z     vdW  Elec       q    Type
REMARK                         _______ _______ _______ _____ _____    ______ ____
ROOT
ATOM      1  N   UNL     1      32.430 -23.795 -15.591  0.00  0.00    +0.389 N 
ATOM      2  C   UNL     1      34.881 -23.848 -15.246  0.00  0.00    +0.023 C 
ATOM      3  C   UNL     1      33.554 -24.640 -15.171  0.00  0.00    -0.068 C 
ATOM      4  C   UNL     1      35.018 -23.043 -16.533  0.00  0.00    -0.026 C 
ATOM      5  C   UNL     1      33.895 -22.844 -17.360  0.00  0.00    -0.047 C 
ATOM      6  C   UNL     1      32.563 -23.472 -17.021  0.00  0.00    -0.050 C 
ATOM      7  C   UNL     1      36.229 -22.418 -16.871  0.00  0.00    -0.004 C 
ATOM      8  C   UNL     1      34.022 -22.091 -18.536  0.00  0.00    -0.005 C 
ATOM      9  C   UNL     1      31.155 -24.465 -15.338  0.00  0.00    -0.100 C 
ATOM     10  C   UNL     1      35.239 -21.502 -18.873  0.00  0.00    +0.019 C 
ATOM     11  C   UNL     1      36.341 -21.660 -18.037  0.00  0.00    +0.001 C 
ATOM     12  H   UNL     1      32.447 -22.931 -15.049  0.00  0.00    -0.079 HD
ENDROOT
BRANCH   2  13
ATOM     13  C   UNL     1      36.045 -24.792 -14.971  0.00  0.00    -0.020 C 
ATOM     14  C   UNL     1      37.337 -24.284 -14.831  0.00  0.00    -0.004 C 
ATOM     15  C   UNL     1      35.819 -26.161 -14.861  0.00  0.00    -0.004 C 
ATOM     16  C   UNL     1      38.420 -25.141 -14.578  0.00  0.00    -0.000 C 
ATOM     17  C   UNL     1      38.190 -26.533 -14.467  0.00  0.00    -0.000 C 
ATOM     18  C   UNL     1      36.884 -27.027 -14.611  0.00  0.00    -0.000 C 
ATOM     19  C   UNL     1      39.727 -24.646 -14.435  0.00  0.00    -0.000 C 
ATOM     20  C   UNL     1      39.274 -27.390 -14.215  0.00  0.00    -0.000 C 
ATOM     21  C   UNL     1      40.792 -25.512 -14.184  0.00  0.00    -0.000 C 
ATOM     22  C   UNL     1      40.566 -26.881 -14.075  0.00  0.00    -0.000 C 
ENDBRANCH   2  13
BRANCH  10  26
ATOM     23  N   UNL     1      36.537 -20.089 -20.256  0.00  0.00    -0.147 NA
ATOM     24  N   UNL     1      36.730 -19.334 -21.370  0.00  0.00    -0.133 NA
ATOM     25  N   UNL     1      35.935 -18.451 -23.438  0.00  0.00    -0.341 N 
ATOM     26  C   UNL     1      35.357 -20.722 -20.086  0.00  0.00    +0.103 C 
ATOM     27  C   UNL     1      34.323 -20.641 -20.997  0.00  0.00    +0.024 C 
ATOM     28  C   UNL     1      34.519 -19.872 -22.131  0.00  0.00    +0.037 C 
ATOM     29  C   UNL     1      35.735 -19.237 -22.278  0.00  0.00    +0.147 C 
ATOM     30  H   UNL     1      36.791 -17.984 -23.574  0.00  0.00    +0.144 HD
ATOM     31  H   UNL     1      35.218 -18.371 -24.108  0.00  0.00    +0.144 HD
ENDBRANCH  10  26
TORSDOF 2
ENDMDL
