MODEL 1
REMARK VINA RESULT:     -13.1      0.000      0.000
REMARK  Name = 76958312
REMARK  3 active torsions:
REMARK  status: ('A' for Active; 'I' for Inactive)
REMARK    1  A    between atoms: C_16  and  C_21
REMARK    2  A    between atoms: C_26  and  N_28
REMARK    3  A    between atoms: N_29  and  C_34
REMARK                            x       y       z     vdW  Elec       q    Type
REMARK                         _______ _______ _______ _____ _____    ______ ____
ROOT
ATOM      1  O   UNL     1      30.725 -23.298 -12.991  0.00  0.00    -0.350 OA
ATOM      2  O   UNL     1      38.684 -25.416 -12.633  0.00  0.00    -0.350 OA
ATOM      3  N   UNL     1      31.925 -24.786 -15.078  0.00  0.00    -0.231 N 
ATOM      4  N   UNL     1      34.189 -24.835 -14.652  0.00  0.00    -0.246 NA
ATOM      5  N   UNL     1      33.294 -23.621 -16.519  0.00  0.00    -0.260 NA
ATOM      6  N   UNL     1      36.496 -24.827 -14.296  0.00  0.00    -0.228 N 
ATOM      7  N   UNL     1      35.661 -23.636 -16.120  0.00  0.00    -0.260 NA
ATOM      8  C   UNL     1      31.636 -25.433 -13.798  0.00  0.00    +0.114 C 
ATOM      9  C   UNL     1      30.749 -23.960 -15.357  0.00  0.00    +0.114 C 
ATOM     10  C   UNL     1      30.188 -25.909 -14.010  0.00  0.00    +0.025 C 
ATOM     11  C   UNL     1      29.603 -24.936 -15.041  0.00  0.00    +0.025 C 
ATOM     12  C   UNL     1      30.783 -22.804 -14.339  0.00  0.00    +0.163 C 
ATOM     13  C   UNL     1      31.698 -24.324 -12.731  0.00  0.00    +0.163 C 
ATOM     14  C   UNL     1      33.185 -24.400 -15.431  0.00  0.00    +0.224 C 
ATOM     15  C   UNL     1      35.398 -24.413 -15.057  0.00  0.00    +0.224 C 
ATOM     16  C   UNL     1      34.561 -23.278 -16.803  0.00  0.00    +0.163 C 
ATOM     17  C   UNL     1      37.849 -24.407 -14.676  0.00  0.00    +0.135 C 
ATOM     18  C   UNL     1      36.295 -25.066 -12.860  0.00  0.00    +0.135 C 
ATOM     19  C   UNL     1      37.403 -25.966 -12.328  0.00  0.00    +0.164 C 
ATOM     20  C   UNL     1      38.875 -25.343 -14.045  0.00  0.00    +0.164 C 
ENDROOT
BRANCH  16  21
ATOM     21  C   UNL     1      34.762 -22.442 -17.957  0.00  0.00    +0.087 C 
ATOM     22  C   UNL     1      36.051 -22.053 -18.321  0.00  0.00    +0.013 C 
ATOM     23  C   UNL     1      33.667 -22.021 -18.712  0.00  0.00    +0.013 C 
ATOM     24  C   UNL     1      36.245 -21.243 -19.440  0.00  0.00    +0.015 C 
ATOM     25  C   UNL     1      33.862 -21.211 -19.831  0.00  0.00    +0.015 C 
ATOM     26  C   UNL     1      35.151 -20.822 -20.195  0.00  0.00    +0.052 C 
BRANCH  26  28
ATOM     27  O   UNL     1      33.918 -18.198 -20.912  0.00  0.00    -0.252 OA
ATOM     28  N   UNL     1      35.345 -20.012 -21.314  0.00  0.00    -0.268 N 
ATOM     29  N   UNL     1      35.221 -18.293 -22.852  0.00  0.00    -0.268 N 
ATOM     30  C   UNL     1      34.741 -18.769 -21.621  0.00  0.00    +0.308 C 
ATOM     31  H   UNL     1      35.988 -20.350 -21.979  0.00  0.00    +0.156 HD
ATOM     32  H   UNL     1      35.881 -18.864 -23.308  0.00  0.00    +0.156 HD
BRANCH  29  34
ATOM     33  N   UNL     1      34.187 -14.723 -24.829  0.00  0.00    -0.242 NA
ATOM     34  C   UNL     1      34.874 -17.093 -23.517  0.00  0.00    +0.055 C 
ATOM     35  C   UNL     1      34.962 -15.876 -22.851  0.00  0.00    +0.035 C 
ATOM     36  C   UNL     1      34.443 -17.127 -24.838  0.00  0.00    +0.035 C 
ATOM     37  C   UNL     1      34.610 -14.730 -23.545  0.00  0.00    +0.100 C 
ATOM     38  C   UNL     1      34.114 -15.924 -25.444  0.00  0.00    +0.100 C 
ENDBRANCH  29  34
ENDBRANCH  26  28
ENDBRANCH  16  21
TORSDOF 3
ENDMDL
MODEL 2
REMARK VINA RESULT:     -12.6      1.030      4.606
REMARK  Name = 76958312
REMARK  3 active torsions:
REMARK  status: ('A' for Active; 'I' for Inactive)
REMARK    1  A    between atoms: C_16  and  C_21
REMARK    2  A    between atoms: C_26  and  N_28
REMARK    3  A    between atoms: N_29  and  C_34
REMARK                            x       y       z     vdW  Elec       q    Type
REMARK                         _______ _______ _______ _____ _____    ______ ____
ROOT
ATOM      1  O   UNL     1      37.836 -27.350 -14.054  0.00  0.00    -0.350 OA
ATOM      2  O   UNL     1      29.873 -25.321 -13.400  0.00  0.00    -0.350 OA
ATOM      3  N   UNL     1      37.050 -24.652 -13.711  0.00  0.00    -0.231 N 
ATOM      4  N   UNL     1      34.755 -24.593 -13.903  0.00  0.00    -0.246 NA
ATOM      5  N   UNL     1      36.175 -23.591 -15.559  0.00  0.00    -0.260 NA
ATOM      6  N   UNL     1      32.440 -24.485 -14.182  0.00  0.00    -0.228 N 
ATOM      7  N   UNL     1      33.790 -23.501 -15.811  0.00  0.00    -0.260 NA
ATOM      8  C   UNL     1      36.965 -25.583 -12.584  0.00  0.00    +0.114 C 
ATOM      9  C   UNL     1      38.326 -24.961 -14.359  0.00  0.00    +0.114 C 
ATOM     10  C   UNL     1      38.374 -25.467 -11.978  0.00  0.00    +0.025 C 
ATOM     11  C   UNL     1      39.273 -25.056 -13.150  0.00  0.00    +0.025 C 
ATOM     12  C   UNL     1      38.148 -26.339 -15.026  0.00  0.00    +0.163 C 
ATOM     13  C   UNL     1      36.744 -26.979 -13.195  0.00  0.00    +0.163 C 
ATOM     14  C   UNL     1      35.951 -24.263 -14.418  0.00  0.00    +0.224 C 
ATOM     15  C   UNL     1      33.720 -24.180 -14.654  0.00  0.00    +0.224 C 
ATOM     16  C   UNL     1      35.049 -23.243 -16.201  0.00  0.00    +0.163 C 
ATOM     17  C   UNL     1      31.260 -24.067 -14.946  0.00  0.00    +0.135 C 
ATOM     18  C   UNL     1      32.267 -25.706 -13.382  0.00  0.00    +0.135 C 
ATOM     19  C   UNL     1      30.990 -25.605 -12.558  0.00  0.00    +0.164 C 
ATOM     20  C   UNL     1      30.035 -24.055 -14.038  0.00  0.00    +0.164 C 
ENDROOT
BRANCH  16  21
ATOM     21  C   UNL     1      35.205 -22.519 -17.436  0.00  0.00    +0.087 C 
ATOM     22  C   UNL     1      36.455 -22.013 -17.794  0.00  0.00    +0.013 C 
ATOM     23  C   UNL     1      34.106 -22.324 -18.273  0.00  0.00    +0.013 C 
ATOM     24  C   UNL     1      36.605 -21.311 -18.991  0.00  0.00    +0.015 C 
ATOM     25  C   UNL     1      34.258 -21.621 -19.469  0.00  0.00    +0.015 C 
ATOM     26  C   UNL     1      35.507 -21.116 -19.827  0.00  0.00    +0.052 C 
BRANCH  26  28
ATOM     27  O   UNL     1      34.195 -18.603 -20.767  0.00  0.00    -0.252 OA
ATOM     28  N   UNL     1      35.658 -20.414 -21.024  0.00  0.00    -0.268 N 
ATOM     29  N   UNL     1      35.460 -18.856 -22.718  0.00  0.00    -0.268 N 
ATOM     30  C   UNL     1      35.017 -19.221 -21.436  0.00  0.00    +0.308 C 
ATOM     31  H   UNL     1      36.295 -20.800 -21.668  0.00  0.00    +0.156 HD
ATOM     32  H   UNL     1      36.124 -19.453 -23.131  0.00  0.00    +0.156 HD
BRANCH  29  34
ATOM     33  N   UNL     1      34.296 -15.520 -25.007  0.00  0.00    -0.242 NA
ATOM     34  C   UNL     1      35.068 -17.735 -23.488  0.00  0.00    +0.055 C 
ATOM     35  C   UNL     1      35.301 -16.448 -23.015  0.00  0.00    +0.035 C 
ATOM     36  C   UNL     1      34.449 -17.916 -24.719  0.00  0.00    +0.035 C 
ATOM     37  C   UNL     1      34.899 -15.384 -23.805  0.00  0.00    +0.100 C 
ATOM     38  C   UNL     1      34.086 -16.785 -25.434  0.00  0.00    +0.100 C 
ENDBRANCH  29  34
ENDBRANCH  26  28
ENDBRANCH  16  21
TORSDOF 3
ENDMDL
MODEL 3
REMARK VINA RESULT:     -12.4      0.511      1.228
REMARK  Name = 76958312
REMARK  3 active torsions:
REMARK  status: ('A' for Active; 'I' for Inactive)
REMARK    1  A    between atoms: C_16  and  C_21
REMARK    2  A    between atoms: C_26  and  N_28
REMARK    3  A    between atoms: N_29  and  C_34
REMARK                            x       y       z     vdW  Elec       q    Type
REMARK                         _______ _______ _______ _____ _____    ______ ____
ROOT
ATOM      1  O   UNL     1      31.341 -23.003 -12.897  0.00  0.00    -0.350 OA
ATOM      2  O   UNL     1      39.281 -25.220 -12.983  0.00  0.00    -0.350 OA
ATOM      3  N   UNL     1      32.400 -24.522 -15.038  0.00  0.00    -0.231 N 
ATOM      4  N   UNL     1      34.684 -24.597 -14.743  0.00  0.00    -0.246 NA
ATOM      5  N   UNL     1      33.698 -23.385 -16.565  0.00  0.00    -0.260 NA
ATOM      6  N   UNL     1      37.007 -24.616 -14.521  0.00  0.00    -0.228 N 
ATOM      7  N   UNL     1      36.083 -23.427 -16.303  0.00  0.00    -0.260 NA
ATOM      8  C   UNL     1      32.177 -25.156 -13.738  0.00  0.00    +0.114 C 
ATOM      9  C   UNL     1      31.220 -23.683 -15.255  0.00  0.00    +0.114 C 
ATOM     10  C   UNL     1      30.714 -25.615 -13.863  0.00  0.00    +0.025 C 
ATOM     11  C   UNL     1      30.082 -24.642 -14.866  0.00  0.00    +0.025 C 
ATOM     12  C   UNL     1      31.327 -22.520 -14.251  0.00  0.00    +0.163 C 
ATOM     13  C   UNL     1      32.315 -24.040 -12.685  0.00  0.00    +0.163 C 
ATOM     14  C   UNL     1      33.642 -24.154 -15.466  0.00  0.00    +0.224 C 
ATOM     15  C   UNL     1      35.873 -24.194 -15.220  0.00  0.00    +0.224 C 
ATOM     16  C   UNL     1      34.950 -23.060 -16.924  0.00  0.00    +0.163 C 
ATOM     17  C   UNL     1      38.342 -24.216 -14.982  0.00  0.00    +0.135 C 
ATOM     18  C   UNL     1      36.887 -24.841 -13.074  0.00  0.00    +0.135 C 
ATOM     19  C   UNL     1      38.013 -25.752 -12.600  0.00  0.00    +0.164 C 
ATOM     20  C   UNL     1      39.391 -25.160 -14.404  0.00  0.00    +0.164 C 
ENDROOT
BRANCH  16  21
ATOM     21  C   UNL     1      35.094 -22.235 -18.095  0.00  0.00    +0.087 C 
ATOM     22  C   UNL     1      33.969 -21.865 -18.831  0.00  0.00    +0.013 C 
ATOM     23  C   UNL     1      36.361 -21.807 -18.493  0.00  0.00    +0.013 C 
ATOM     24  C   UNL     1      34.110 -21.066 -19.966  0.00  0.00    +0.015 C 
ATOM     25  C   UNL     1      36.501 -21.007 -19.628  0.00  0.00    +0.015 C 
ATOM     26  C   UNL     1      35.375 -20.637 -20.364  0.00  0.00    +0.052 C 
BRANCH  26  28
ATOM     27  O   UNL     1      33.911 -18.163 -21.173  0.00  0.00    -0.252 OA
ATOM     28  N   UNL     1      35.516 -19.838 -21.499  0.00  0.00    -0.268 N 
ATOM     29  N   UNL     1      35.263 -18.175 -23.082  0.00  0.00    -0.268 N 
ATOM     30  C   UNL     1      34.802 -18.667 -21.850  0.00  0.00    +0.308 C 
ATOM     31  H   UNL     1      36.204 -20.127 -22.141  0.00  0.00    +0.156 HD
ATOM     32  H   UNL     1      35.985 -18.689 -23.509  0.00  0.00    +0.156 HD
BRANCH  29  34
ATOM     33  N   UNL     1      33.934 -14.771 -25.173  0.00  0.00    -0.242 NA
ATOM     34  C   UNL     1      34.816 -17.030 -23.784  0.00  0.00    +0.055 C 
ATOM     35  C   UNL     1      34.117 -17.173 -24.978  0.00  0.00    +0.035 C 
ATOM     36  C   UNL     1      35.075 -15.759 -23.285  0.00  0.00    +0.035 C 
ATOM     37  C   UNL     1      33.702 -16.023 -25.628  0.00  0.00    +0.100 C 
ATOM     38  C   UNL     1      34.616 -14.672 -24.011  0.00  0.00    +0.100 C 
ENDBRANCH  29  34
ENDBRANCH  26  28
ENDBRANCH  16  21
TORSDOF 3
ENDMDL
