MODEL 1
REMARK VINA RESULT:     -12.1      0.000      0.000
REMARK  Name = 45268539
REMARK  6 active torsions:
REMARK  status: ('A' for Active; 'I' for Inactive)
REMARK    1  A    between atoms: N_2  and  C_22
REMARK    2  A    between atoms: N_3  and  C_7
REMARK    3  A    between atoms: N_3  and  O_12
REMARK    4  A    between atoms: C_8  and  C_14
REMARK    5  A    between atoms: C_15  and  C_16
REMARK    6  A    between atoms: C_22  and  C_26
REMARK                            x       y       z     vdW  Elec       q    Type
REMARK                         _______ _______ _______ _____ _____    ______ ____
ROOT
ATOM      1  O   UNL     1      32.024 -23.966 -16.691  0.00  0.00    -0.273 OA
ATOM      2  N   UNL     1      34.210 -23.556 -15.853  0.00  0.00    -0.253 N 
ATOM      3  C   UNL     1      35.343 -22.916 -16.392  0.00  0.00    +0.052 C 
ATOM      4  C   UNL     1      35.072 -22.448 -17.678  0.00  0.00    +0.018 C 
ATOM      5  C   UNL     1      33.157 -23.536 -16.751  0.00  0.00    +0.252 C 
ATOM      6  C   UNL     1      33.698 -22.813 -17.961  0.00  0.00    +0.202 C 
ATOM      7  C   UNL     1      36.003 -21.781 -18.446  0.00  0.00    -0.001 C 
ATOM      8  C   UNL     1      36.588 -22.723 -15.823  0.00  0.00    +0.015 C 
ATOM      9  C   UNL     1      37.262 -21.582 -17.877  0.00  0.00    -0.000 C 
ATOM     10  C   UNL     1      37.552 -22.048 -16.580  0.00  0.00    +0.001 C 
ENDROOT
BRANCH   7  11
ATOM     11  C   UNL     1      35.728 -21.293 -19.785  0.00  0.00    -0.000 C 
ATOM     12  C   UNL     1      35.575 -19.989 -20.127  0.00  0.00    -0.000 C 
BRANCH  12  13
ATOM     13  C   UNL     1      35.312 -19.492 -21.490  0.00  0.00    -0.000 C 
ATOM     14  C   UNL     1      34.835 -20.363 -22.469  0.00  0.00    -0.000 C 
ATOM     15  C   UNL     1      35.540 -18.151 -21.799  0.00  0.00    -0.000 C 
ATOM     16  C   UNL     1      34.586 -19.892 -23.759  0.00  0.00    +0.000 C 
ATOM     17  C   UNL     1      35.292 -17.681 -23.088  0.00  0.00    +0.000 C 
ATOM     18  C   UNL     1      34.816 -18.551 -24.069  0.00  0.00    +0.000 C 
ENDBRANCH  12  13
ENDBRANCH   7  11
BRANCH   6  19
ATOM     19  N   UNL     1      33.010 -22.593 -19.025  0.00  0.00    -0.075 NA
BRANCH  19  20
ATOM     20  O   UNL     1      32.479 -21.302 -18.951  0.00  0.00    -0.294 OA
ATOM     21  H   UNL     1      32.291 -20.920 -18.116  0.00  0.00    +0.238 HD
ENDBRANCH  19  20
ENDBRANCH   6  19
BRANCH   2  22
ATOM     22  C   UNL     1      34.182 -24.144 -14.536  0.00  0.00    +0.128 C 
BRANCH  22  26
ATOM     23  F   UNL     1      36.924 -27.953 -15.807  0.00  0.00    -0.204 F 
ATOM     24  O   UNL     1      35.939 -23.758 -12.394  0.00  0.00    -0.448 OA
ATOM     25  O   UNL     1      37.564 -24.622 -10.853  0.00  0.00    -0.311 OA
ATOM     26  C   UNL     1      35.364 -25.036 -14.292  0.00  0.00    +0.034 C 
ATOM     27  C   UNL     1      36.225 -24.819 -13.216  0.00  0.00    +0.138 C 
ATOM     28  C   UNL     1      37.314 -25.671 -12.993  0.00  0.00    +0.043 C 
ATOM     29  C   UNL     1      35.602 -26.098 -15.166  0.00  0.00    +0.030 C 
ATOM     30  C   UNL     1      38.226 -25.423 -11.832  0.00  0.00    +0.176 C 
ATOM     31  C   UNL     1      37.551 -26.725 -13.881  0.00  0.00    +0.031 C 
ATOM     32  C   UNL     1      36.696 -26.939 -14.963  0.00  0.00    +0.140 C 
ATOM     33  C   UNL     1      36.989 -23.470 -11.464  0.00  0.00    +0.361 C 
ENDBRANCH  22  26
ENDBRANCH   2  22
TORSDOF 6
ENDMDL
MODEL 2
REMARK VINA RESULT:     -11.5      7.084     13.020
REMARK  Name = 45268539
REMARK  6 active torsions:
REMARK  status: ('A' for Active; 'I' for Inactive)
REMARK    1  A    between atoms: N_2  and  C_22
REMARK    2  A    between atoms: N_3  and  C_7
REMARK    3  A    between atoms: N_3  and  O_12
REMARK    4  A    between atoms: C_8  and  C_14
REMARK    5  A    between atoms: C_15  and  C_16
REMARK    6  A    between atoms: C_22  and  C_26
REMARK                            x       y       z     vdW  Elec       q    Type
REMARK                         _______ _______ _______ _____ _____    ______ ____
ROOT
ATOM      1  O   UNL     1      32.748 -13.087 -20.803  0.00  0.00    -0.273 OA
ATOM      2  N   UNL     1      33.072 -13.718 -23.071  0.00  0.00    -0.253 N 
ATOM      3  C   UNL     1      33.666 -14.840 -23.682  0.00  0.00    +0.052 C 
ATOM      4  C   UNL     1      34.143 -15.725 -22.715  0.00  0.00    +0.018 C 
ATOM      5  C   UNL     1      33.132 -13.817 -21.691  0.00  0.00    +0.252 C 
ATOM      6  C   UNL     1      33.833 -15.128 -21.431  0.00  0.00    +0.202 C 
ATOM      7  C   UNL     1      34.774 -16.910 -23.029  0.00  0.00    -0.001 C 
ATOM      8  C   UNL     1      33.810 -15.124 -25.027  0.00  0.00    +0.015 C 
ATOM      9  C   UNL     1      34.923 -17.205 -24.385  0.00  0.00    -0.000 C 
ATOM     10  C   UNL     1      34.446 -16.322 -25.374  0.00  0.00    +0.001 C 
ENDROOT
BRANCH   7  11
ATOM     11  C   UNL     1      35.274 -17.835 -22.028  0.00  0.00    -0.000 C 
ATOM     12  C   UNL     1      34.765 -19.066 -21.775  0.00  0.00    -0.000 C 
BRANCH  12  13
ATOM     13  C   UNL     1      35.284 -20.012 -20.771  0.00  0.00    -0.000 C 
ATOM     14  C   UNL     1      34.419 -20.913 -20.150  0.00  0.00    -0.000 C 
ATOM     15  C   UNL     1      36.639 -20.007 -20.443  0.00  0.00    -0.000 C 
ATOM     16  C   UNL     1      34.910 -21.809 -19.199  0.00  0.00    +0.000 C 
ATOM     17  C   UNL     1      37.130 -20.902 -19.493  0.00  0.00    +0.000 C 
ATOM     18  C   UNL     1      36.266 -21.802 -18.870  0.00  0.00    +0.000 C 
ENDBRANCH  12  13
ENDBRANCH   7  11
BRANCH   6  19
ATOM     19  N   UNL     1      34.082 -15.580 -20.253  0.00  0.00    -0.075 NA
BRANCH  19  20
ATOM     20  O   UNL     1      32.887 -15.616 -19.529  0.00  0.00    -0.294 OA
ATOM     21  H   UNL     1      32.069 -15.489 -19.969  0.00  0.00    +0.238 HD
ENDBRANCH  19  20
ENDBRANCH   6  19
BRANCH   2  22
ATOM     22  C   UNL     1      32.486 -12.628 -23.812  0.00  0.00    +0.128 C 
BRANCH  22  26
ATOM     23  F   UNL     1      36.399 -10.391 -25.635  0.00  0.00    -0.204 F 
ATOM     24  O   UNL     1      32.057 -10.339 -22.265  0.00  0.00    -0.448 OA
ATOM     25  O   UNL     1      32.897  -8.356 -21.204  0.00  0.00    -0.311 OA
ATOM     26  C   UNL     1      33.394 -11.435 -23.871  0.00  0.00    +0.034 C 
ATOM     27  C   UNL     1      33.154 -10.305 -23.089  0.00  0.00    +0.138 C 
ATOM     28  C   UNL     1      34.021  -9.206 -23.142  0.00  0.00    +0.043 C 
ATOM     29  C   UNL     1      34.492 -11.461 -24.730  0.00  0.00    +0.030 C 
ATOM     30  C   UNL     1      33.748  -8.002 -22.294  0.00  0.00    +0.176 C 
ATOM     31  C   UNL     1      35.113  -9.237 -24.015  0.00  0.00    +0.031 C 
ATOM     32  C   UNL     1      35.349 -10.363 -24.805  0.00  0.00    +0.140 C 
ATOM     33  C   UNL     1      31.757  -9.068 -21.678  0.00  0.00    +0.361 C 
ENDBRANCH  22  26
ENDBRANCH   2  22
TORSDOF 6
ENDMDL
MODEL 3
REMARK VINA RESULT:     -11.1      4.279     10.570
REMARK  Name = 45268539
REMARK  6 active torsions:
REMARK  status: ('A' for Active; 'I' for Inactive)
REMARK    1  A    between atoms: N_2  and  C_22
REMARK    2  A    between atoms: N_3  and  C_7
REMARK    3  A    between atoms: N_3  and  O_12
REMARK    4  A    between atoms: C_8  and  C_14
REMARK    5  A    between atoms: C_15  and  C_16
REMARK    6  A    between atoms: C_22  and  C_26
REMARK                            x       y       z     vdW  Elec       q    Type
REMARK                         _______ _______ _______ _____ _____    ______ ____
ROOT
ATOM      1  O   UNL     1      37.935 -18.632 -21.738  0.00  0.00    -0.273 OA
ATOM      2  N   UNL     1      35.609 -19.076 -21.948  0.00  0.00    -0.253 N 
ATOM      3  C   UNL     1      34.713 -19.875 -21.211  0.00  0.00    +0.052 C 
ATOM      4  C   UNL     1      35.375 -20.509 -20.160  0.00  0.00    +0.018 C 
ATOM      5  C   UNL     1      36.887 -19.150 -21.418  0.00  0.00    +0.252 C 
ATOM      6  C   UNL     1      36.760 -20.087 -20.240  0.00  0.00    +0.202 C 
ATOM      7  C   UNL     1      34.741 -21.355 -19.275  0.00  0.00    -0.001 C 
ATOM      8  C   UNL     1      33.359 -20.074 -21.410  0.00  0.00    +0.015 C 
ATOM      9  C   UNL     1      33.374 -21.561 -19.469  0.00  0.00    -0.000 C 
ATOM     10  C   UNL     1      32.691 -20.928 -20.525  0.00  0.00    +0.001 C 
ENDROOT
BRANCH   7  11
ATOM     11  C   UNL     1      35.425 -22.019 -18.180  0.00  0.00    -0.000 C 
ATOM     12  C   UNL     1      34.822 -22.743 -17.205  0.00  0.00    -0.000 C 
BRANCH  12  13
ATOM     13  C   UNL     1      35.518 -23.433 -16.103  0.00  0.00    -0.000 C 
ATOM     14  C   UNL     1      36.855 -23.141 -15.831  0.00  0.00    -0.000 C 
ATOM     15  C   UNL     1      34.839 -24.375 -15.331  0.00  0.00    -0.000 C 
ATOM     16  C   UNL     1      37.513 -23.793 -14.788  0.00  0.00    +0.000 C 
ATOM     17  C   UNL     1      35.497 -25.027 -14.289  0.00  0.00    +0.000 C 
ATOM     18  C   UNL     1      36.834 -24.737 -14.018  0.00  0.00    +0.000 C 
ENDBRANCH  12  13
ENDBRANCH   7  11
BRANCH   6  19
ATOM     19  N   UNL     1      37.746 -20.415 -19.483  0.00  0.00    -0.075 NA
BRANCH  19  20
ATOM     20  O   UNL     1      38.144 -19.287 -18.760  0.00  0.00    -0.294 OA
ATOM     21  H   UNL     1      37.506 -18.657 -18.486  0.00  0.00    +0.238 HD
ENDBRANCH  19  20
ENDBRANCH   6  19
BRANCH   2  22
ATOM     22  C   UNL     1      35.218 -18.296 -23.096  0.00  0.00    +0.128 C 
BRANCH  22  26
ATOM     23  F   UNL     1      34.519 -14.874 -19.712  0.00  0.00    -0.204 F 
ATOM     24  O   UNL     1      34.199 -16.478 -24.960  0.00  0.00    -0.448 OA
ATOM     25  O   UNL     1      32.861 -14.552 -25.473  0.00  0.00    -0.311 OA
ATOM     26  C   UNL     1      34.760 -16.919 -22.711  0.00  0.00    +0.034 C 
ATOM     27  C   UNL     1      34.257 -16.032 -23.664  0.00  0.00    +0.138 C 
ATOM     28  C   UNL     1      33.818 -14.758 -23.286  0.00  0.00    +0.043 C 
ATOM     29  C   UNL     1      34.846 -16.526 -21.376  0.00  0.00    +0.030 C 
ATOM     30  C   UNL     1      33.280 -13.819 -24.322  0.00  0.00    +0.176 C 
ATOM     31  C   UNL     1      33.919 -14.367 -21.947  0.00  0.00    +0.031 C 
ATOM     32  C   UNL     1      34.429 -15.250 -20.994  0.00  0.00    +0.140 C 
ATOM     33  C   UNL     1      33.894 -15.439 -25.897  0.00  0.00    +0.361 C 
ENDBRANCH  22  26
ENDBRANCH   2  22
TORSDOF 6
ENDMDL
MODEL 4
REMARK VINA RESULT:     -10.3      1.728      2.421
REMARK  Name = 45268539
REMARK  6 active torsions:
REMARK  status: ('A' for Active; 'I' for Inactive)
REMARK    1  A    between atoms: N_2  and  C_22
REMARK    2  A    between atoms: N_3  and  C_7
REMARK    3  A    between atoms: N_3  and  O_12
REMARK    4  A    between atoms: C_8  and  C_14
REMARK    5  A    between atoms: C_15  and  C_16
REMARK    6  A    between atoms: C_22  and  C_26
REMARK                            x       y       z     vdW  Elec       q    Type
REMARK                         _______ _______ _______ _____ _____    ______ ____
ROOT
ATOM      1  O   UNL     1      31.926 -23.971 -16.752  0.00  0.00    -0.273 OA
ATOM      2  N   UNL     1      34.102 -23.729 -15.827  0.00  0.00    -0.253 N 
ATOM      3  C   UNL     1      35.287 -23.133 -16.300  0.00  0.00    +0.052 C 
ATOM      4  C   UNL     1      35.088 -22.594 -17.571  0.00  0.00    +0.018 C 
ATOM      5  C   UNL     1      33.083 -23.607 -16.756  0.00  0.00    +0.252 C 
ATOM      6  C   UNL     1      33.705 -22.864 -17.914  0.00  0.00    +0.202 C 
ATOM      7  C   UNL     1      36.082 -21.949 -18.277  0.00  0.00    -0.001 C 
ATOM      8  C   UNL     1      36.521 -23.039 -15.683  0.00  0.00    +0.015 C 
ATOM      9  C   UNL     1      37.330 -21.850 -17.661  0.00  0.00    -0.000 C 
ATOM     10  C   UNL     1      37.548 -22.389 -16.378  0.00  0.00    +0.001 C 
ENDROOT
BRANCH   7  11
ATOM     11  C   UNL     1      35.881 -21.387 -19.600  0.00  0.00    -0.000 C 
ATOM     12  C   UNL     1      35.558 -20.096 -19.862  0.00  0.00    -0.000 C 
BRANCH  12  13
ATOM     13  C   UNL     1      35.371 -19.521 -21.206  0.00  0.00    -0.000 C 
ATOM     14  C   UNL     1      35.641 -18.171 -21.431  0.00  0.00    -0.000 C 
ATOM     15  C   UNL     1      34.925 -20.327 -22.253  0.00  0.00    -0.000 C 
ATOM     16  C   UNL     1      35.464 -17.627 -22.703  0.00  0.00    +0.000 C 
ATOM     17  C   UNL     1      34.748 -19.783 -23.525  0.00  0.00    +0.000 C 
ATOM     18  C   UNL     1      35.017 -18.432 -23.750  0.00  0.00    +0.000 C 
ENDBRANCH  12  13
ENDBRANCH   7  11
BRANCH   6  19
ATOM     19  N   UNL     1      33.068 -22.557 -18.987  0.00  0.00    -0.075 NA
BRANCH  19  20
ATOM     20  O   UNL     1      32.411 -21.341 -18.780  0.00  0.00    -0.294 OA
ATOM     21  H   UNL     1      32.642 -20.802 -18.049  0.00  0.00    +0.238 HD
ENDBRANCH  19  20
ENDBRANCH   6  19
BRANCH   2  22
ATOM     22  C   UNL     1      33.996 -24.371 -14.540  0.00  0.00    +0.128 C 
BRANCH  22  26
ATOM     23  F   UNL     1      37.163 -22.606 -11.300  0.00  0.00    -0.204 F 
ATOM     24  O   UNL     1      35.855 -26.393 -15.063  0.00  0.00    -0.448 OA
ATOM     25  O   UNL     1      38.118 -27.195 -15.051  0.00  0.00    -0.311 OA
ATOM     26  C   UNL     1      35.320 -24.449 -13.838  0.00  0.00    +0.034 C 
ATOM     27  C   UNL     1      36.227 -25.471 -14.117  0.00  0.00    +0.138 C 
ATOM     28  C   UNL     1      37.466 -25.520 -13.466  0.00  0.00    +0.043 C 
ATOM     29  C   UNL     1      35.640 -23.481 -12.886  0.00  0.00    +0.030 C 
ATOM     30  C   UNL     1      38.429 -26.624 -13.781  0.00  0.00    +0.176 C 
ATOM     31  C   UNL     1      37.773 -24.552 -12.505  0.00  0.00    +0.031 C 
ATOM     32  C   UNL     1      36.862 -23.534 -12.217  0.00  0.00    +0.140 C 
ATOM     33  C   UNL     1      36.732 -27.523 -15.120  0.00  0.00    +0.361 C 
ENDBRANCH  22  26
ENDBRANCH   2  22
TORSDOF 6
ENDMDL
MODEL 5
REMARK VINA RESULT:     -10.2      6.724     12.601
REMARK  Name = 45268539
REMARK  6 active torsions:
REMARK  status: ('A' for Active; 'I' for Inactive)
REMARK    1  A    between atoms: N_2  and  C_22
REMARK    2  A    between atoms: N_3  and  C_7
REMARK    3  A    between atoms: N_3  and  O_12
REMARK    4  A    between atoms: C_8  and  C_14
REMARK    5  A    between atoms: C_15  and  C_16
REMARK    6  A    between atoms: C_22  and  C_26
REMARK                            x       y       z     vdW  Elec       q    Type
REMARK                         _______ _______ _______ _____ _____    ______ ____
ROOT
ATOM      1  O   UNL     1      34.421 -13.573 -20.797  0.00  0.00    -0.273 OA
ATOM      2  N   UNL     1      34.256 -14.290 -23.057  0.00  0.00    -0.253 N 
ATOM      3  C   UNL     1      34.374 -15.549 -23.677  0.00  0.00    +0.052 C 
ATOM      4  C   UNL     1      34.642 -16.536 -22.729  0.00  0.00    +0.018 C 
ATOM      5  C   UNL     1      34.438 -14.394 -21.688  0.00  0.00    +0.252 C 
ATOM      6  C   UNL     1      34.694 -15.863 -21.446  0.00  0.00    +0.202 C 
ATOM      7  C   UNL     1      34.807 -17.866 -23.056  0.00  0.00    -0.001 C 
ATOM      8  C   UNL     1      34.260 -15.874 -25.016  0.00  0.00    +0.015 C 
ATOM      9  C   UNL     1      34.693 -18.202 -24.406  0.00  0.00    -0.000 C 
ATOM     10  C   UNL     1      34.423 -17.217 -25.376  0.00  0.00    +0.001 C 
ENDROOT
BRANCH   7  11
ATOM     11  C   UNL     1      35.087 -18.898 -22.074  0.00  0.00    -0.000 C 
ATOM     12  C   UNL     1      34.159 -19.521 -21.307  0.00  0.00    -0.000 C 
BRANCH  12  13
ATOM     13  C   UNL     1      34.441 -20.581 -20.322  0.00  0.00    -0.000 C 
ATOM     14  C   UNL     1      35.760 -20.901 -20.001  0.00  0.00    -0.000 C 
ATOM     15  C   UNL     1      33.389 -21.262 -19.710  0.00  0.00    -0.000 C 
ATOM     16  C   UNL     1      36.027 -21.904 -19.069  0.00  0.00    +0.000 C 
ATOM     17  C   UNL     1      33.656 -22.265 -18.778  0.00  0.00    +0.000 C 
ATOM     18  C   UNL     1      34.975 -22.587 -18.458  0.00  0.00    +0.000 C 
ENDBRANCH  12  13
ENDBRANCH   7  11
BRANCH   6  19
ATOM     19  N   UNL     1      34.915 -16.364 -20.283  0.00  0.00    -0.075 NA
BRANCH  19  20
ATOM     20  O   UNL     1      33.859 -16.009 -19.439  0.00  0.00    -0.294 OA
ATOM     21  H   UNL     1      33.647 -16.548 -18.702  0.00  0.00    +0.238 HD
ENDBRANCH  19  20
ENDBRANCH   6  19
BRANCH   2  22
ATOM     22  C   UNL     1      33.980 -13.072 -23.779  0.00  0.00    +0.128 C 
BRANCH  22  26
ATOM     23  F   UNL     1      30.357 -12.249 -20.641  0.00  0.00    -0.204 F 
ATOM     24  O   UNL     1      34.400 -10.308 -23.820  0.00  0.00    -0.448 OA
ATOM     25  O   UNL     1      33.583  -8.073 -23.504  0.00  0.00    -0.311 OA
ATOM     26  C   UNL     1      33.145 -12.118 -22.975  0.00  0.00    +0.034 C 
ATOM     27  C   UNL     1      33.379 -10.744 -23.013  0.00  0.00    +0.138 C 
ATOM     28  C   UNL     1      32.580  -9.865 -22.270  0.00  0.00    +0.043 C 
ATOM     29  C   UNL     1      32.122 -12.624 -22.173  0.00  0.00    +0.030 C 
ATOM     30  C   UNL     1      32.845  -8.392 -22.325  0.00  0.00    +0.176 C 
ATOM     31  C   UNL     1      31.564 -10.383 -21.460  0.00  0.00    +0.031 C 
ATOM     32  C   UNL     1      31.335 -11.759 -21.414  0.00  0.00    +0.140 C 
ATOM     33  C   UNL     1      34.719  -8.926 -23.623  0.00  0.00    +0.361 C 
ENDBRANCH  22  26
ENDBRANCH   2  22
TORSDOF 6
ENDMDL
MODEL 6
REMARK VINA RESULT:      -9.5      7.821     13.292
REMARK  Name = 45268539
REMARK  6 active torsions:
REMARK  status: ('A' for Active; 'I' for Inactive)
REMARK    1  A    between atoms: N_2  and  C_22
REMARK    2  A    between atoms: N_3  and  C_7
REMARK    3  A    between atoms: N_3  and  O_12
REMARK    4  A    between atoms: C_8  and  C_14
REMARK    5  A    between atoms: C_15  and  C_16
REMARK    6  A    between atoms: C_22  and  C_26
REMARK                            x       y       z     vdW  Elec       q    Type
REMARK                         _______ _______ _______ _____ _____    ______ ____
ROOT
ATOM      1  O   UNL     1      31.219 -12.975 -19.732  0.00  0.00    -0.273 OA
ATOM      2  N   UNL     1      32.141 -12.784 -21.915  0.00  0.00    -0.253 N 
ATOM      3  C   UNL     1      33.053 -13.569 -22.646  0.00  0.00    +0.052 C 
ATOM      4  C   UNL     1      33.467 -14.667 -21.890  0.00  0.00    +0.018 C 
ATOM      5  C   UNL     1      31.917 -13.325 -20.660  0.00  0.00    +0.252 C 
ATOM      6  C   UNL     1      32.778 -14.565 -20.618  0.00  0.00    +0.202 C 
ATOM      7  C   UNL     1      34.361 -15.606 -22.357  0.00  0.00    -0.001 C 
ATOM      8  C   UNL     1      33.537 -13.377 -23.926  0.00  0.00    +0.015 C 
ATOM      9  C   UNL     1      34.854 -15.419 -23.649  0.00  0.00    -0.000 C 
ATOM     10  C   UNL     1      34.447 -14.316 -24.426  0.00  0.00    +0.001 C 
ENDROOT
BRANCH   7  11
ATOM     11  C   UNL     1      34.796 -16.749 -21.575  0.00  0.00    -0.000 C 
ATOM     12  C   UNL     1      34.632 -18.048 -21.928  0.00  0.00    -0.000 C 
BRANCH  12  13
ATOM     13  C   UNL     1      35.089 -19.208 -21.142  0.00  0.00    -0.000 C 
ATOM     14  C   UNL     1      34.161 -20.121 -20.642  0.00  0.00    -0.000 C 
ATOM     15  C   UNL     1      36.450 -19.394 -20.901  0.00  0.00    -0.000 C 
ATOM     16  C   UNL     1      34.593 -21.219 -19.898  0.00  0.00    +0.000 C 
ATOM     17  C   UNL     1      36.883 -20.492 -20.157  0.00  0.00    +0.000 C 
ATOM     18  C   UNL     1      35.954 -21.404 -19.655  0.00  0.00    +0.000 C 
ENDBRANCH  12  13
ENDBRANCH   7  11
BRANCH   6  19
ATOM     19  N   UNL     1      32.845 -15.350 -19.602  0.00  0.00    -0.075 NA
BRANCH  19  20
ATOM     20  O   UNL     1      31.626 -16.021 -19.478  0.00  0.00    -0.294 OA
ATOM     21  H   UNL     1      31.182 -16.038 -18.652  0.00  0.00    +0.238 HD
ENDBRANCH  19  20
ENDBRANCH   6  19
BRANCH   2  22
ATOM     22  C   UNL     1      31.537 -11.581 -22.433  0.00  0.00    +0.128 C 
BRANCH  22  26
ATOM     23  F   UNL     1      31.427  -9.030 -18.294  0.00  0.00    -0.204 F 
ATOM     24  O   UNL     1      33.121  -9.538 -23.499  0.00  0.00    -0.448 OA
ATOM     25  O   UNL     1      33.855  -7.252 -23.489  0.00  0.00    -0.311 OA
ATOM     26  C   UNL     1      31.928 -10.368 -21.640  0.00  0.00    +0.034 C 
ATOM     27  C   UNL     1      32.721  -9.365 -22.197  0.00  0.00    +0.138 C 
ATOM     28  C   UNL     1      33.064  -8.232 -21.450  0.00  0.00    +0.043 C 
ATOM     29  C   UNL     1      31.491 -10.251 -20.320  0.00  0.00    +0.030 C 
ATOM     30  C   UNL     1      33.915  -7.164 -22.066  0.00  0.00    +0.176 C 
ATOM     31  C   UNL     1      32.631  -8.129 -20.124  0.00  0.00    +0.031 C 
ATOM     32  C   UNL     1      31.844  -9.136 -19.562  0.00  0.00    +0.140 C 
ATOM     33  C   UNL     1      34.110  -8.589 -23.912  0.00  0.00    +0.361 C 
ENDBRANCH  22  26
ENDBRANCH   2  22
TORSDOF 6
ENDMDL
MODEL 7
REMARK VINA RESULT:      -9.3      7.450     13.041
REMARK  Name = 45268539
REMARK  6 active torsions:
REMARK  status: ('A' for Active; 'I' for Inactive)
REMARK    1  A    between atoms: N_2  and  C_22
REMARK    2  A    between atoms: N_3  and  C_7
REMARK    3  A    between atoms: N_3  and  O_12
REMARK    4  A    between atoms: C_8  and  C_14
REMARK    5  A    between atoms: C_15  and  C_16
REMARK    6  A    between atoms: C_22  and  C_26
REMARK                            x       y       z     vdW  Elec       q    Type
REMARK                         _______ _______ _______ _____ _____    ______ ____
ROOT
ATOM      1  O   UNL     1      34.133 -15.426 -26.050  0.00  0.00    -0.273 OA
ATOM      2  N   UNL     1      33.395 -14.115 -24.209  0.00  0.00    -0.253 N 
ATOM      3  C   UNL     1      33.437 -14.306 -22.815  0.00  0.00    +0.052 C 
ATOM      4  C   UNL     1      34.044 -15.524 -22.507  0.00  0.00    +0.018 C 
ATOM      5  C   UNL     1      33.966 -15.188 -24.872  0.00  0.00    +0.252 C 
ATOM      6  C   UNL     1      34.401 -16.130 -23.775  0.00  0.00    +0.202 C 
ATOM      7  C   UNL     1      34.219 -15.970 -21.214  0.00  0.00    -0.001 C 
ATOM      8  C   UNL     1      32.977 -13.477 -21.808  0.00  0.00    +0.015 C 
ATOM      9  C   UNL     1      33.757 -15.139 -20.193  0.00  0.00    -0.000 C 
ATOM     10  C   UNL     1      33.143 -13.906 -20.486  0.00  0.00    +0.001 C 
ENDROOT
BRANCH   7  11
ATOM     11  C   UNL     1      34.848 -17.237 -20.888  0.00  0.00    -0.000 C 
ATOM     12  C   UNL     1      34.204 -18.427 -20.784  0.00  0.00    -0.000 C 
BRANCH  12  13
ATOM     13  C   UNL     1      34.845 -19.716 -20.470  0.00  0.00    -0.000 C 
ATOM     14  C   UNL     1      36.227 -19.857 -20.593  0.00  0.00    -0.000 C 
ATOM     15  C   UNL     1      34.069 -20.796 -20.048  0.00  0.00    -0.000 C 
ATOM     16  C   UNL     1      36.833 -21.078 -20.295  0.00  0.00    +0.000 C 
ATOM     17  C   UNL     1      34.674 -22.016 -19.751  0.00  0.00    +0.000 C 
ATOM     18  C   UNL     1      36.057 -22.158 -19.875  0.00  0.00    +0.000 C 
ENDBRANCH  12  13
ENDBRANCH   7  11
BRANCH   6  19
ATOM     19  N   UNL     1      34.980 -17.257 -23.993  0.00  0.00    -0.075 NA
BRANCH  19  20
ATOM     20  O   UNL     1      34.287 -17.924 -25.007  0.00  0.00    -0.294 OA
ATOM     21  H   UNL     1      34.587 -18.758 -25.310  0.00  0.00    +0.238 HD
ENDBRANCH  19  20
ENDBRANCH   6  19
BRANCH   2  22
ATOM     22  C   UNL     1      32.826 -12.946 -24.834  0.00  0.00    +0.128 C 
BRANCH  22  26
ATOM     23  F   UNL     1      36.751 -10.214 -25.714  0.00  0.00    -0.204 F 
ATOM     24  O   UNL     1      32.038 -10.993 -22.994  0.00  0.00    -0.448 OA
ATOM     25  O   UNL     1      32.588  -9.186 -21.513  0.00  0.00    -0.311 OA
ATOM     26  C   UNL     1      33.641 -11.714 -24.569  0.00  0.00    +0.034 C 
ATOM     27  C   UNL     1      33.222 -10.754 -23.647  0.00  0.00    +0.138 C 
ATOM     28  C   UNL     1      34.002  -9.618 -23.399  0.00  0.00    +0.043 C 
ATOM     29  C   UNL     1      34.835 -11.529 -25.265  0.00  0.00    +0.030 C 
ATOM     30  C   UNL     1      33.536  -8.600 -22.404  0.00  0.00    +0.176 C 
ATOM     31  C   UNL     1      35.192  -9.436 -24.110  0.00  0.00    +0.031 C 
ATOM     32  C   UNL     1      35.608 -10.390 -25.039  0.00  0.00    +0.140 C 
ATOM     33  C   UNL     1      31.572  -9.863 -22.248  0.00  0.00    +0.361 C 
ENDBRANCH  22  26
ENDBRANCH   2  22
TORSDOF 6
ENDMDL
MODEL 8
REMARK VINA RESULT:      -9.2      8.652     12.974
REMARK  Name = 45268539
REMARK  6 active torsions:
REMARK  status: ('A' for Active; 'I' for Inactive)
REMARK    1  A    between atoms: N_2  and  C_22
REMARK    2  A    between atoms: N_3  and  C_7
REMARK    3  A    between atoms: N_3  and  O_12
REMARK    4  A    between atoms: C_8  and  C_14
REMARK    5  A    between atoms: C_15  and  C_16
REMARK    6  A    between atoms: C_22  and  C_26
REMARK                            x       y       z     vdW  Elec       q    Type
REMARK                         _______ _______ _______ _____ _____    ______ ____
ROOT
ATOM      1  O   UNL     1      34.940 -13.270 -23.897  0.00  0.00    -0.273 OA
ATOM      2  N   UNL     1      33.582 -13.525 -21.963  0.00  0.00    -0.253 N 
ATOM      3  C   UNL     1      32.650 -12.683 -21.324  0.00  0.00    +0.052 C 
ATOM      4  C   UNL     1      32.542 -11.470 -22.005  0.00  0.00    +0.018 C 
ATOM      5  C   UNL     1      34.120 -12.908 -23.079  0.00  0.00    +0.252 C 
ATOM      6  C   UNL     1      33.453 -11.554 -23.130  0.00  0.00    +0.202 C 
ATOM      7  C   UNL     1      31.701 -10.455 -21.600  0.00  0.00    -0.001 C 
ATOM      8  C   UNL     1      31.898 -12.921 -20.189  0.00  0.00    +0.015 C 
ATOM      9  C   UNL     1      30.938 -10.687 -20.455  0.00  0.00    -0.000 C 
ATOM     10  C   UNL     1      31.036 -11.906 -19.756  0.00  0.00    +0.001 C 
ENDROOT
BRANCH   7  11
ATOM     11  C   UNL     1      31.586  -9.190 -22.303  0.00  0.00    -0.000 C 
ATOM     12  C   UNL     1      32.262  -8.057 -21.991  0.00  0.00    -0.000 C 
BRANCH  12  13
ATOM     13  C   UNL     1      32.158  -6.777 -22.715  0.00  0.00    -0.000 C 
ATOM     14  C   UNL     1      31.159  -5.864 -22.377  0.00  0.00    -0.000 C 
ATOM     15  C   UNL     1      33.060  -6.478 -23.736  0.00  0.00    -0.000 C 
ATOM     16  C   UNL     1      31.060  -4.652 -23.063  0.00  0.00    +0.000 C 
ATOM     17  C   UNL     1      32.962  -5.267 -24.421  0.00  0.00    +0.000 C 
ATOM     18  C   UNL     1      31.962  -4.355 -24.085  0.00  0.00    +0.000 C 
ENDBRANCH  12  13
ENDBRANCH   7  11
BRANCH   6  19
ATOM     19  N   UNL     1      33.696 -10.675 -24.036  0.00  0.00    -0.075 NA
BRANCH  19  20
ATOM     20  O   UNL     1      35.056 -10.355 -23.991  0.00  0.00    -0.294 OA
ATOM     21  H   UNL     1      35.327  -9.458 -24.010  0.00  0.00    +0.238 HD
ENDBRANCH  19  20
ENDBRANCH   6  19
BRANCH   2  22
ATOM     22  C   UNL     1      33.909 -14.848 -21.492  0.00  0.00    +0.128 C 
BRANCH  22  26
ATOM     23  F   UNL     1      33.493 -15.994 -26.200  0.00  0.00    -0.204 F 
ATOM     24  O   UNL     1      35.180 -17.314 -21.137  0.00  0.00    -0.448 OA
ATOM     25  O   UNL     1      35.589 -19.568 -21.855  0.00  0.00    -0.311 OA
ATOM     26  C   UNL     1      34.136 -15.808 -22.624  0.00  0.00    +0.034 C 
ATOM     27  C   UNL     1      34.776 -17.030 -22.418  0.00  0.00    +0.138 C 
ATOM     28  C   UNL     1      34.966 -17.921 -23.481  0.00  0.00    +0.043 C 
ATOM     29  C   UNL     1      33.703 -15.461 -23.904  0.00  0.00    +0.030 C 
ATOM     30  C   UNL     1      35.653 -19.231 -23.240  0.00  0.00    +0.176 C 
ATOM     31  C   UNL     1      34.538 -17.560 -24.763  0.00  0.00    +0.031 C 
ATOM     32  C   UNL     1      33.907 -16.333 -24.972  0.00  0.00    +0.140 C 
ATOM     33  C   UNL     1      36.023 -18.468 -21.058  0.00  0.00    +0.361 C 
ENDBRANCH  22  26
ENDBRANCH   2  22
TORSDOF 6
ENDMDL
