MODEL 1
REMARK VINA RESULT:     -11.6      0.000      0.000
REMARK  Name = 24748573
REMARK  3 active torsions:
REMARK  status: ('A' for Active; 'I' for Inactive)
REMARK    1  A    between atoms: N_2  and  C_18
REMARK    2  A    between atoms: C_13  and  C_25
REMARK    3  A    between atoms: C_25  and  O_26
REMARK                            x       y       z     vdW  Elec       q    Type
REMARK                         _______ _______ _______ _____ _____    ______ ____
ROOT
ATOM      1  N   UNL     1      34.415 -23.473 -16.529  0.00  0.00    -0.391 NA
ATOM      2  N   UNL     1      32.765 -22.743 -18.034  0.00  0.00    -0.288 N 
ATOM      3  N   UNL     1      30.094 -24.028 -13.947  0.00  0.00    -0.243 NA
ATOM      4  C   UNL     1      33.858 -24.255 -14.311  0.00  0.00    +0.098 C 
ATOM      5  C   UNL     1      32.470 -24.019 -14.580  0.00  0.00    +0.011 C 
ATOM      6  C   UNL     1      32.094 -23.509 -15.835  0.00  0.00    +0.044 C 
ATOM      7  C   UNL     1      34.786 -23.959 -15.335  0.00  0.00    +0.119 C 
ATOM      8  C   UNL     1      33.101 -23.259 -16.756  0.00  0.00    +0.183 C 
ATOM      9  C   UNL     1      34.354 -24.766 -13.086  0.00  0.00    -0.015 C 
ATOM     10  C   UNL     1      36.142 -24.178 -15.107  0.00  0.00    +0.035 C 
ATOM     11  C   UNL     1      30.747 -23.265 -16.135  0.00  0.00    +0.024 C 
ATOM     12  C   UNL     1      31.406 -24.253 -13.688  0.00  0.00    +0.095 C 
ATOM     13  C   UNL     1      36.612 -24.682 -13.895  0.00  0.00    +0.077 C 
ATOM     14  C   UNL     1      35.716 -24.976 -12.881  0.00  0.00    +0.003 C 
ATOM     15  C   UNL     1      29.799 -23.539 -15.167  0.00  0.00    +0.099 C 
ATOM     16  H   UNL     1      31.875 -23.020 -18.352  0.00  0.00    +0.155 HD
ENDROOT
BRANCH   2  18
ATOM     17 CL   UNL     1      37.256 -21.161 -19.926  0.00  0.00    -0.082 Cl
ATOM     18  C   UNL     1      33.456 -21.916 -18.932  0.00  0.00    +0.051 C 
ATOM     19  C   UNL     1      34.850 -21.945 -18.975  0.00  0.00    +0.026 C 
ATOM     20  C   UNL     1      32.749 -21.068 -19.784  0.00  0.00    +0.015 C 
ATOM     21  C   UNL     1      35.537 -21.126 -19.871  0.00  0.00    +0.059 C 
ATOM     22  C   UNL     1      33.436 -20.248 -20.680  0.00  0.00    +0.002 C 
ATOM     23  C   UNL     1      34.830 -20.278 -20.724  0.00  0.00    +0.011 C 
ENDBRANCH   2  18
BRANCH  13  25
ATOM     24  O   UNL     1      38.671 -24.589 -12.680  0.00  0.00    -0.245 OA
ATOM     25  C   UNL     1      38.037 -24.894 -13.696  0.00  0.00    +0.338 C 
BRANCH  25  26
ATOM     26  O   UNL     1      38.631 -25.484 -14.769  0.00  0.00    -0.477 OA
ATOM     27  H   UNL     1      38.338 -25.281 -15.636  0.00  0.00    +0.295 HD
ENDBRANCH  25  26
ENDBRANCH  13  25
TORSDOF 3
ENDMDL
MODEL 2
REMARK VINA RESULT:     -10.8      1.515      2.157
REMARK  Name = 24748573
REMARK  3 active torsions:
REMARK  status: ('A' for Active; 'I' for Inactive)
REMARK    1  A    between atoms: N_2  and  C_18
REMARK    2  A    between atoms: C_13  and  C_25
REMARK    3  A    between atoms: C_25  and  O_26
REMARK                            x       y       z     vdW  Elec       q    Type
REMARK                         _______ _______ _______ _____ _____    ______ ____
ROOT
ATOM      1  N   UNL     1      35.753 -24.046 -15.993  0.00  0.00    -0.391 NA
ATOM      2  N   UNL     1      33.937 -23.156 -17.188  0.00  0.00    -0.288 N 
ATOM      3  N   UNL     1      31.926 -24.223 -12.682  0.00  0.00    -0.243 NA
ATOM      4  C   UNL     1      35.528 -24.793 -13.705  0.00  0.00    +0.098 C 
ATOM      5  C   UNL     1      34.143 -24.428 -13.727  0.00  0.00    +0.011 C 
ATOM      6  C   UNL     1      33.598 -23.874 -14.899  0.00  0.00    +0.044 C 
ATOM      7  C   UNL     1      36.284 -24.575 -14.880  0.00  0.00    +0.119 C 
ATOM      8  C   UNL     1      34.445 -23.711 -15.986  0.00  0.00    +0.183 C 
ATOM      9  C   UNL     1      36.184 -25.358 -12.584  0.00  0.00    -0.015 C 
ATOM     10  C   UNL     1      37.633 -24.920 -14.894  0.00  0.00    +0.035 C 
ATOM     11  C   UNL     1      32.248 -23.504 -14.958  0.00  0.00    +0.024 C 
ATOM     12  C   UNL     1      33.236 -24.570 -12.658  0.00  0.00    +0.095 C 
ATOM     13  C   UNL     1      38.262 -25.474 -13.780  0.00  0.00    +0.077 C 
ATOM     14  C   UNL     1      37.535 -25.694 -12.622  0.00  0.00    +0.003 C 
ATOM     15  C   UNL     1      31.466 -23.699 -13.835  0.00  0.00    +0.099 C 
ATOM     16  H   UNL     1      32.983 -23.346 -17.341  0.00  0.00    +0.155 HD
ENDROOT
BRANCH   2  18
ATOM     17 CL   UNL     1      33.337 -20.109 -21.263  0.00  0.00    -0.082 Cl
ATOM     18  C   UNL     1      34.531 -22.388 -18.201  0.00  0.00    +0.051 C 
ATOM     19  C   UNL     1      33.732 -21.711 -19.123  0.00  0.00    +0.026 C 
ATOM     20  C   UNL     1      35.921 -22.299 -18.285  0.00  0.00    +0.015 C 
ATOM     21  C   UNL     1      34.322 -20.945 -20.127  0.00  0.00    +0.059 C 
ATOM     22  C   UNL     1      36.511 -21.532 -19.290  0.00  0.00    +0.002 C 
ATOM     23  C   UNL     1      35.711 -20.855 -20.211  0.00  0.00    +0.011 C 
ENDBRANCH   2  18
BRANCH  13  25
ATOM     24  O   UNL     1      40.606 -25.065 -13.539  0.00  0.00    -0.245 OA
ATOM     25  C   UNL     1      39.673 -25.819 -13.835  0.00  0.00    +0.338 C 
BRANCH  25  26
ATOM     26  O   UNL     1      39.881 -27.097 -14.256  0.00  0.00    -0.477 OA
ATOM     27  H   UNL     1      40.203 -27.259 -15.121  0.00  0.00    +0.295 HD
ENDBRANCH  25  26
ENDBRANCH  13  25
TORSDOF 3
ENDMDL
MODEL 3
REMARK VINA RESULT:     -10.4      3.470      6.719
REMARK  Name = 24748573
REMARK  3 active torsions:
REMARK  status: ('A' for Active; 'I' for Inactive)
REMARK    1  A    between atoms: N_2  and  C_18
REMARK    2  A    between atoms: C_13  and  C_25
REMARK    3  A    between atoms: C_25  and  O_26
REMARK                            x       y       z     vdW  Elec       q    Type
REMARK                         _______ _______ _______ _____ _____    ______ ____
ROOT
ATOM      1  N   UNL     1      34.326 -24.337 -15.156  0.00  0.00    -0.391 NA
ATOM      2  N   UNL     1      36.597 -24.075 -15.696  0.00  0.00    -0.288 N 
ATOM      3  N   UNL     1      34.249 -21.526 -19.367  0.00  0.00    -0.243 NA
ATOM      4  C   UNL     1      32.575 -23.360 -16.506  0.00  0.00    +0.098 C 
ATOM      5  C   UNL     1      33.565 -22.816 -17.388  0.00  0.00    +0.011 C 
ATOM      6  C   UNL     1      34.925 -23.053 -17.121  0.00  0.00    +0.044 C 
ATOM      7  C   UNL     1      33.026 -24.117 -15.400  0.00  0.00    +0.119 C 
ATOM      8  C   UNL     1      35.238 -23.813 -16.002  0.00  0.00    +0.183 C 
ATOM      9  C   UNL     1      31.180 -23.187 -16.675  0.00  0.00    -0.015 C 
ATOM     10  C   UNL     1      32.090 -24.662 -14.524  0.00  0.00    +0.035 C 
ATOM     11  C   UNL     1      35.922 -22.537 -17.960  0.00  0.00    +0.024 C 
ATOM     12  C   UNL     1      33.310 -22.040 -18.535  0.00  0.00    +0.095 C 
ATOM     13  C   UNL     1      30.720 -24.481 -14.706  0.00  0.00    +0.077 C 
ATOM     14  C   UNL     1      30.263 -23.742 -15.784  0.00  0.00    +0.003 C 
ATOM     15  C   UNL     1      35.533 -21.790 -19.056  0.00  0.00    +0.099 C 
ATOM     16  H   UNL     1      37.182 -24.114 -16.487  0.00  0.00    +0.155 HD
ENDROOT
BRANCH   2  18
ATOM     17 CL   UNL     1      37.043 -22.987 -10.709  0.00  0.00    -0.082 Cl
ATOM     18  C   UNL     1      37.269 -24.291 -14.483  0.00  0.00    +0.051 C 
ATOM     19  C   UNL     1      36.870 -23.609 -13.333  0.00  0.00    +0.026 C 
ATOM     20  C   UNL     1      38.335 -25.189 -14.427  0.00  0.00    +0.015 C 
ATOM     21  C   UNL     1      37.536 -23.826 -12.127  0.00  0.00    +0.059 C 
ATOM     22  C   UNL     1      39.001 -25.406 -13.220  0.00  0.00    +0.002 C 
ATOM     23  C   UNL     1      38.600 -24.725 -12.071  0.00  0.00    +0.011 C 
ENDBRANCH   2  18
BRANCH  13  25
ATOM     24  O   UNL     1      28.624 -25.423 -14.038  0.00  0.00    -0.245 OA
ATOM     25  C   UNL     1      29.776 -25.065 -13.767  0.00  0.00    +0.338 C 
BRANCH  25  26
ATOM     26  O   UNL     1      30.295 -25.188 -12.514  0.00  0.00    -0.477 OA
ATOM     27  H   UNL     1      30.517 -24.422 -12.022  0.00  0.00    +0.295 HD
ENDBRANCH  25  26
ENDBRANCH  13  25
TORSDOF 3
ENDMDL
MODEL 4
REMARK VINA RESULT:     -10.4      3.691      6.999
REMARK  Name = 24748573
REMARK  3 active torsions:
REMARK  status: ('A' for Active; 'I' for Inactive)
REMARK    1  A    between atoms: N_2  and  C_18
REMARK    2  A    between atoms: C_13  and  C_25
REMARK    3  A    between atoms: C_25  and  O_26
REMARK                            x       y       z     vdW  Elec       q    Type
REMARK                         _______ _______ _______ _____ _____    ______ ____
ROOT
ATOM      1  N   UNL     1      33.805 -23.364 -16.807  0.00  0.00    -0.391 NA
ATOM      2  N   UNL     1      33.601 -24.708 -14.891  0.00  0.00    -0.288 N 
ATOM      3  N   UNL     1      38.527 -23.610 -14.996  0.00  0.00    -0.243 NA
ATOM      4  C   UNL     1      35.932 -22.449 -17.499  0.00  0.00    +0.098 C 
ATOM      5  C   UNL     1      36.564 -23.080 -16.378  0.00  0.00    +0.011 C 
ATOM      6  C   UNL     1      35.783 -23.844 -15.493  0.00  0.00    +0.044 C 
ATOM      7  C   UNL     1      34.539 -22.632 -17.658  0.00  0.00    +0.119 C 
ATOM      8  C   UNL     1      34.425 -23.947 -15.759  0.00  0.00    +0.183 C 
ATOM      9  C   UNL     1      36.616 -21.657 -18.454  0.00  0.00    -0.015 C 
ATOM     10  C   UNL     1      33.894 -22.033 -18.738  0.00  0.00    +0.035 C 
ATOM     11  C   UNL     1      36.365 -24.476 -14.386  0.00  0.00    +0.024 C 
ATOM     12  C   UNL     1      37.933 -23.012 -16.058  0.00  0.00    +0.095 C 
ATOM     13  C   UNL     1      34.583 -21.257 -19.668  0.00  0.00    +0.077 C 
ATOM     14  C   UNL     1      35.948 -21.068 -19.526  0.00  0.00    +0.003 C 
ATOM     15  C   UNL     1      37.725 -24.328 -14.187  0.00  0.00    +0.099 C 
ATOM     16  H   UNL     1      34.068 -25.458 -14.457  0.00  0.00    +0.155 HD
ENDROOT
BRANCH   2  18
ATOM     17 CL   UNL     1      28.956 -22.816 -15.939  0.00  0.00    -0.082 Cl
ATOM     18  C   UNL     1      32.249 -24.599 -14.533  0.00  0.00    +0.051 C 
ATOM     19  C   UNL     1      31.377 -23.847 -15.321  0.00  0.00    +0.026 C 
ATOM     20  C   UNL     1      31.775 -25.245 -13.391  0.00  0.00    +0.015 C 
ATOM     21  C   UNL     1      30.032 -23.742 -14.967  0.00  0.00    +0.059 C 
ATOM     22  C   UNL     1      30.430 -25.140 -13.037  0.00  0.00    +0.002 C 
ATOM     23  C   UNL     1      29.559 -24.389 -13.826  0.00  0.00    +0.011 C 
ENDBRANCH   2  18
BRANCH  13  25
ATOM     24  O   UNL     1      34.400 -20.077 -21.740  0.00  0.00    -0.245 OA
ATOM     25  C   UNL     1      33.872 -20.648 -20.780  0.00  0.00    +0.338 C 
BRANCH  25  26
ATOM     26  O   UNL     1      32.521 -20.771 -20.665  0.00  0.00    -0.477 OA
ATOM     27  H   UNL     1      31.958 -20.347 -21.282  0.00  0.00    +0.295 HD
ENDBRANCH  25  26
ENDBRANCH  13  25
TORSDOF 3
ENDMDL
MODEL 5
REMARK VINA RESULT:     -10.4      3.286      6.144
REMARK  Name = 24748573
REMARK  3 active torsions:
REMARK  status: ('A' for Active; 'I' for Inactive)
REMARK    1  A    between atoms: N_2  and  C_18
REMARK    2  A    between atoms: C_13  and  C_25
REMARK    3  A    between atoms: C_25  and  O_26
REMARK                            x       y       z     vdW  Elec       q    Type
REMARK                         _______ _______ _______ _____ _____    ______ ____
ROOT
ATOM      1  N   UNL     1      34.071 -23.982 -15.357  0.00  0.00    -0.391 NA
ATOM      2  N   UNL     1      32.862 -25.126 -13.700  0.00  0.00    -0.288 N 
ATOM      3  N   UNL     1      37.182 -23.959 -11.362  0.00  0.00    -0.243 NA
ATOM      4  C   UNL     1      36.285 -23.105 -14.942  0.00  0.00    +0.098 C 
ATOM      5  C   UNL     1      36.227 -23.607 -13.601  0.00  0.00    +0.011 C 
ATOM      6  C   UNL     1      35.075 -24.290 -13.174  0.00  0.00    +0.044 C 
ATOM      7  C   UNL     1      35.165 -23.327 -15.776  0.00  0.00    +0.119 C 
ATOM      8  C   UNL     1      34.043 -24.444 -14.089  0.00  0.00    +0.183 C 
ATOM      9  C   UNL     1      37.391 -22.403 -15.481  0.00  0.00    -0.015 C 
ATOM     10  C   UNL     1      35.189 -22.854 -17.085  0.00  0.00    +0.035 C 
ATOM     11  C   UNL     1      34.981 -24.795 -11.870  0.00  0.00    +0.024 C 
ATOM     12  C   UNL     1      37.240 -23.483 -12.630  0.00  0.00    +0.095 C 
ATOM     13  C   UNL     1      36.286 -22.165 -17.599  0.00  0.00    +0.077 C 
ATOM     14  C   UNL     1      37.391 -21.939 -16.794  0.00  0.00    +0.003 C 
ATOM     15  C   UNL     1      36.051 -24.604 -11.016  0.00  0.00    +0.099 C 
ATOM     16  H   UNL     1      33.011 -25.819 -13.017  0.00  0.00    +0.155 HD
ENDROOT
BRANCH   2  18
ATOM     17 CL   UNL     1      29.342 -22.579 -16.415  0.00  0.00    -0.082 Cl
ATOM     18  C   UNL     1      31.523 -25.005 -14.101  0.00  0.00    +0.051 C 
ATOM     19  C   UNL     1      31.142 -23.971 -14.957  0.00  0.00    +0.026 C 
ATOM     20  C   UNL     1      30.573 -25.919 -13.646  0.00  0.00    +0.015 C 
ATOM     21  C   UNL     1      29.812 -23.853 -15.359  0.00  0.00    +0.059 C 
ATOM     22  C   UNL     1      29.243 -25.800 -14.047  0.00  0.00    +0.002 C 
ATOM     23  C   UNL     1      28.863 -24.767 -14.904  0.00  0.00    +0.011 C 
ENDBRANCH   2  18
BRANCH  13  25
ATOM     24  O   UNL     1      36.793 -20.639 -19.370  0.00  0.00    -0.245 OA
ATOM     25  C   UNL     1      36.270 -21.686 -18.971  0.00  0.00    +0.338 C 
BRANCH  25  26
ATOM     26  O   UNL     1      35.604 -22.527 -19.809  0.00  0.00    -0.477 OA
ATOM     27  H   UNL     1      35.950 -23.379 -19.989  0.00  0.00    +0.295 HD
ENDBRANCH  25  26
ENDBRANCH  13  25
TORSDOF 3
ENDMDL
MODEL 6
REMARK VINA RESULT:     -10.2      2.813      6.124
REMARK  Name = 24748573
REMARK  3 active torsions:
REMARK  status: ('A' for Active; 'I' for Inactive)
REMARK    1  A    between atoms: N_2  and  C_18
REMARK    2  A    between atoms: C_13  and  C_25
REMARK    3  A    between atoms: C_25  and  O_26
REMARK                            x       y       z     vdW  Elec       q    Type
REMARK                         _______ _______ _______ _____ _____    ______ ____
ROOT
ATOM      1  N   UNL     1      35.181 -23.572 -15.460  0.00  0.00    -0.391 NA
ATOM      2  N   UNL     1      35.089 -24.604 -13.352  0.00  0.00    -0.288 N 
ATOM      3  N   UNL     1      30.245 -24.461 -14.765  0.00  0.00    -0.243 NA
ATOM      4  C   UNL     1      33.189 -23.164 -16.766  0.00  0.00    +0.098 C 
ATOM      5  C   UNL     1      32.394 -23.754 -15.729  0.00  0.00    +0.011 C 
ATOM      6  C   UNL     1      33.028 -24.243 -14.574  0.00  0.00    +0.044 C 
ATOM      7  C   UNL     1      34.587 -23.103 -16.567  0.00  0.00    +0.119 C 
ATOM      8  C   UNL     1      34.409 -24.124 -14.500  0.00  0.00    +0.183 C 
ATOM      9  C   UNL     1      32.660 -22.639 -17.971  0.00  0.00    -0.015 C 
ATOM     10  C   UNL     1      35.388 -22.534 -17.554  0.00  0.00    +0.035 C 
ATOM     11  C   UNL     1      32.285 -24.827 -13.539  0.00  0.00    +0.024 C 
ATOM     12  C   UNL     1      30.993 -23.902 -15.748  0.00  0.00    +0.095 C 
ATOM     13  C   UNL     1      34.851 -22.023 -18.734  0.00  0.00    +0.077 C 
ATOM     14  C   UNL     1      33.483 -22.075 -18.943  0.00  0.00    +0.003 C 
ATOM     15  C   UNL     1      30.913 -24.909 -13.685  0.00  0.00    +0.099 C 
ATOM     16  H   UNL     1      34.554 -24.562 -12.526  0.00  0.00    +0.155 HD
ENDROOT
BRANCH   2  18
ATOM     17 CL   UNL     1      39.867 -25.154 -15.121  0.00  0.00    -0.082 Cl
ATOM     18  C   UNL     1      36.377 -25.128 -13.165  0.00  0.00    +0.051 C 
ATOM     19  C   UNL     1      37.366 -24.909 -14.125  0.00  0.00    +0.026 C 
ATOM     20  C   UNL     1      36.671 -25.866 -12.018  0.00  0.00    +0.015 C 
ATOM     21  C   UNL     1      38.647 -25.425 -13.937  0.00  0.00    +0.059 C 
ATOM     22  C   UNL     1      37.953 -26.383 -11.831  0.00  0.00    +0.002 C 
ATOM     23  C   UNL     1      38.941 -26.162 -12.790  0.00  0.00    +0.011 C 
ENDBRANCH   2  18
BRANCH  13  25
ATOM     24  O   UNL     1      36.942 -21.622 -19.825  0.00  0.00    -0.245 OA
ATOM     25  C   UNL     1      35.723 -21.439 -19.740  0.00  0.00    +0.338 C 
BRANCH  25  26
ATOM     26  O   UNL     1      35.049 -20.644 -20.616  0.00  0.00    -0.477 OA
ATOM     27  H   UNL     1      35.295 -19.745 -20.717  0.00  0.00    +0.295 HD
ENDBRANCH  25  26
ENDBRANCH  13  25
TORSDOF 3
ENDMDL
MODEL 7
REMARK VINA RESULT:      -9.9      2.868      5.387
REMARK  Name = 24748573
REMARK  3 active torsions:
REMARK  status: ('A' for Active; 'I' for Inactive)
REMARK    1  A    between atoms: N_2  and  C_18
REMARK    2  A    between atoms: C_13  and  C_25
REMARK    3  A    between atoms: C_25  and  O_26
REMARK                            x       y       z     vdW  Elec       q    Type
REMARK                         _______ _______ _______ _____ _____    ______ ____
ROOT
ATOM      1  N   UNL     1      33.716 -23.669 -14.800  0.00  0.00    -0.391 NA
ATOM      2  N   UNL     1      32.059 -22.938 -16.295  0.00  0.00    -0.288 N 
ATOM      3  N   UNL     1      36.339 -22.122 -18.846  0.00  0.00    -0.243 NA
ATOM      4  C   UNL     1      36.066 -23.577 -15.359  0.00  0.00    +0.098 C 
ATOM      5  C   UNL     1      35.736 -23.018 -16.637  0.00  0.00    +0.011 C 
ATOM      6  C   UNL     1      34.385 -22.799 -16.960  0.00  0.00    +0.044 C 
ATOM      7  C   UNL     1      35.002 -23.883 -14.480  0.00  0.00    +0.119 C 
ATOM      8  C   UNL     1      33.433 -23.141 -16.010  0.00  0.00    +0.183 C 
ATOM      9  C   UNL     1      37.389 -23.841 -14.926  0.00  0.00    -0.015 C 
ATOM     10  C   UNL     1      35.288 -24.426 -13.231  0.00  0.00    +0.035 C 
ATOM     11  C   UNL     1      34.023 -22.254 -18.199  0.00  0.00    +0.024 C 
ATOM     12  C   UNL     1      36.655 -22.651 -17.639  0.00  0.00    +0.095 C 
ATOM     13  C   UNL     1      36.596 -24.679 -12.820  0.00  0.00    +0.077 C 
ATOM     14  C   UNL     1      37.650 -24.386 -13.670  0.00  0.00    +0.003 C 
ATOM     15  C   UNL     1      35.028 -21.937 -19.094  0.00  0.00    +0.099 C 
ATOM     16  H   UNL     1      31.888 -22.182 -16.903  0.00  0.00    +0.155 HD
ENDROOT
BRANCH   2  18
ATOM     17 CL   UNL     1      26.994 -22.799 -15.534  0.00  0.00    -0.082 Cl
ATOM     18  C   UNL     1      30.897 -23.604 -15.879  0.00  0.00    +0.051 C 
ATOM     19  C   UNL     1      29.667 -22.946 -15.907  0.00  0.00    +0.026 C 
ATOM     20  C   UNL     1      30.971 -24.927 -15.439  0.00  0.00    +0.015 C 
ATOM     21  C   UNL     1      28.511 -23.610 -15.497  0.00  0.00    +0.059 C 
ATOM     22  C   UNL     1      29.814 -25.590 -15.029  0.00  0.00    +0.002 C 
ATOM     23  C   UNL     1      28.585 -24.932 -15.059  0.00  0.00    +0.011 C 
ENDBRANCH   2  18
BRANCH  13  25
ATOM     24  O   UNL     1      37.135 -24.607 -10.491  0.00  0.00    -0.245 OA
ATOM     25  C   UNL     1      36.852 -25.249 -11.508  0.00  0.00    +0.338 C 
BRANCH  25  26
ATOM     26  O   UNL     1      36.745 -26.607 -11.500  0.00  0.00    -0.477 OA
ATOM     27  H   UNL     1      36.223 -27.039 -12.146  0.00  0.00    +0.295 HD
ENDBRANCH  25  26
ENDBRANCH  13  25
TORSDOF 3
ENDMDL
MODEL 8
REMARK VINA RESULT:      -9.5      8.620     12.177
REMARK  Name = 24748573
REMARK  3 active torsions:
REMARK  status: ('A' for Active; 'I' for Inactive)
REMARK    1  A    between atoms: N_2  and  C_18
REMARK    2  A    between atoms: C_13  and  C_25
REMARK    3  A    between atoms: C_25  and  O_26
REMARK                            x       y       z     vdW  Elec       q    Type
REMARK                         _______ _______ _______ _____ _____    ______ ____
ROOT
ATOM      1  N   UNL     1      33.943 -14.304 -22.201  0.00  0.00    -0.391 NA
ATOM      2  N   UNL     1      33.140 -12.149 -22.676  0.00  0.00    -0.288 N 
ATOM      3  N   UNL     1      33.597 -14.232 -27.252  0.00  0.00    -0.243 NA
ATOM      4  C   UNL     1      34.404 -15.906 -23.951  0.00  0.00    +0.098 C 
ATOM      5  C   UNL     1      33.998 -14.943 -24.933  0.00  0.00    +0.011 C 
ATOM      6  C   UNL     1      33.570 -13.673 -24.510  0.00  0.00    +0.044 C 
ATOM      7  C   UNL     1      34.353 -15.520 -22.592  0.00  0.00    +0.119 C 
ATOM      8  C   UNL     1      33.565 -13.417 -23.146  0.00  0.00    +0.183 C 
ATOM      9  C   UNL     1      34.854 -17.213 -24.259  0.00  0.00    -0.015 C 
ATOM     10  C   UNL     1      34.742 -16.431 -21.613  0.00  0.00    +0.035 C 
ATOM     11  C   UNL     1      33.165 -12.706 -25.440  0.00  0.00    +0.024 C 
ATOM     12  C   UNL     1      33.982 -15.144 -26.327  0.00  0.00    +0.095 C 
ATOM     13  C   UNL     1      35.181 -17.714 -21.935  0.00  0.00    +0.077 C 
ATOM     14  C   UNL     1      35.237 -18.107 -23.261  0.00  0.00    +0.003 C 
ATOM     15  C   UNL     1      33.198 -13.034 -26.782  0.00  0.00    +0.099 C 
ATOM     16  H   UNL     1      33.315 -11.413 -23.306  0.00  0.00    +0.155 HD
ENDROOT
BRANCH   2  18
ATOM     17 CL   UNL     1      31.707  -8.301 -19.611  0.00  0.00    -0.082 Cl
ATOM     18  C   UNL     1      32.519 -11.739 -21.487  0.00  0.00    +0.051 C 
ATOM     19  C   UNL     1      32.434 -10.382 -21.175  0.00  0.00    +0.026 C 
ATOM     20  C   UNL     1      31.982 -12.689 -20.617  0.00  0.00    +0.015 C 
ATOM     21  C   UNL     1      31.813  -9.975 -19.995  0.00  0.00    +0.059 C 
ATOM     22  C   UNL     1      31.361 -12.282 -19.437  0.00  0.00    +0.002 C 
ATOM     23  C   UNL     1      31.276 -10.925 -19.126  0.00  0.00    +0.011 C 
ENDBRANCH   2  18
BRANCH  13  25
ATOM     24  O   UNL     1      36.687 -18.670 -20.341  0.00  0.00    -0.245 OA
ATOM     25  C   UNL     1      35.577 -18.635 -20.882  0.00  0.00    +0.338 C 
BRANCH  25  26
ATOM     26  O   UNL     1      34.574 -19.487 -20.531  0.00  0.00    -0.477 OA
ATOM     27  H   UNL     1      33.890 -19.681 -21.141  0.00  0.00    +0.295 HD
ENDBRANCH  25  26
ENDBRANCH  13  25
TORSDOF 3
ENDMDL
MODEL 9
REMARK VINA RESULT:      -9.5      3.090      4.913
REMARK  Name = 24748573
REMARK  3 active torsions:
REMARK  status: ('A' for Active; 'I' for Inactive)
REMARK    1  A    between atoms: N_2  and  C_18
REMARK    2  A    between atoms: C_13  and  C_25
REMARK    3  A    between atoms: C_25  and  O_26
REMARK                            x       y       z     vdW  Elec       q    Type
REMARK                         _______ _______ _______ _____ _____    ______ ____
ROOT
ATOM      1  N   UNL     1      34.229 -23.113 -15.931  0.00  0.00    -0.391 NA
ATOM      2  N   UNL     1      36.268 -22.393 -16.847  0.00  0.00    -0.288 N 
ATOM      3  N   UNL     1      37.704 -25.760 -13.371  0.00  0.00    -0.243 NA
ATOM      4  C   UNL     1      34.138 -24.765 -14.168  0.00  0.00    +0.098 C 
ATOM      5  C   UNL     1      35.568 -24.851 -14.181  0.00  0.00    +0.011 C 
ATOM      6  C   UNL     1      36.295 -24.053 -15.083  0.00  0.00    +0.044 C 
ATOM      7  C   UNL     1      33.525 -23.869 -15.075  0.00  0.00    +0.119 C 
ATOM      8  C   UNL     1      35.575 -23.214 -15.922  0.00  0.00    +0.183 C 
ATOM      9  C   UNL     1      33.304 -25.518 -13.305  0.00  0.00    -0.015 C 
ATOM     10  C   UNL     1      32.137 -23.760 -15.087  0.00  0.00    +0.035 C 
ATOM     11  C   UNL     1      37.694 -24.111 -15.125  0.00  0.00    +0.024 C 
ATOM     12  C   UNL     1      36.351 -25.681 -13.356  0.00  0.00    +0.095 C 
ATOM     13  C   UNL     1      31.332 -24.509 -14.231  0.00  0.00    +0.077 C 
ATOM     14  C   UNL     1      31.917 -25.391 -13.337  0.00  0.00    +0.003 C 
ATOM     15  C   UNL     1      38.341 -24.970 -14.257  0.00  0.00    +0.099 C 
ATOM     16  H   UNL     1      37.165 -22.122 -16.544  0.00  0.00    +0.155 HD
ENDROOT
BRANCH   2  18
ATOM     17 CL   UNL     1      37.512 -19.453 -20.855  0.00  0.00    -0.082 Cl
ATOM     18  C   UNL     1      35.923 -21.892 -18.111  0.00  0.00    +0.051 C 
ATOM     19  C   UNL     1      36.787 -21.021 -18.776  0.00  0.00    +0.026 C 
ATOM     20  C   UNL     1      34.717 -22.266 -18.705  0.00  0.00    +0.015 C 
ATOM     21  C   UNL     1      36.446 -20.526 -20.034  0.00  0.00    +0.059 C 
ATOM     22  C   UNL     1      34.376 -21.770 -19.963  0.00  0.00    +0.002 C 
ATOM     23  C   UNL     1      35.241 -20.900 -20.628  0.00  0.00    +0.011 C 
ENDBRANCH   2  18
BRANCH  13  25
ATOM     24  O   UNL     1      29.277 -23.354 -14.638  0.00  0.00    -0.245 OA
ATOM     25  C   UNL     1      29.886 -24.367 -14.277  0.00  0.00    +0.338 C 
BRANCH  25  26
ATOM     26  O   UNL     1      29.238 -25.494 -13.873  0.00  0.00    -0.477 OA
ATOM     27  H   UNL     1      29.562 -26.336 -14.127  0.00  0.00    +0.295 HD
ENDBRANCH  25  26
ENDBRANCH  13  25
TORSDOF 3
ENDMDL
