MODEL 1
REMARK VINA RESULT:     -11.9      0.000      0.000
REMARK  Name = 24996872
REMARK  6 active torsions:
REMARK  status: ('A' for Active; 'I' for Inactive)
REMARK    1  A    between atoms: O_1  and  C_3
REMARK    2  A    between atoms: O_1  and  C_18
REMARK    3  A    between atoms: C_7  and  C_8
REMARK    4  A    between atoms: C_11  and  S_14
REMARK    5  A    between atoms: C_18  and  C_23
REMARK    6  A    between atoms: C_29  and  C_30
REMARK                            x       y       z     vdW  Elec       q    Type
REMARK                         _______ _______ _______ _____ _____    ______ ____
ROOT
ATOM      1  O   UNL     1      35.364 -18.594 -22.940  0.00  0.00    -0.474 OA
ENDROOT
BRANCH   1   3
ATOM      2  N   UNL     1      34.424 -15.259 -21.758  0.00  0.00    -0.241 NA
ATOM      3  C   UNL     1      34.928 -17.292 -22.966  0.00  0.00    +0.158 C 
ATOM      4  C   UNL     1      34.556 -16.684 -24.159  0.00  0.00    +0.040 C 
ATOM      5  C   UNL     1      34.844 -16.543 -21.803  0.00  0.00    +0.136 C 
ATOM      6  C   UNL     1      34.117 -15.364 -24.154  0.00  0.00    +0.022 C 
ATOM      7  C   UNL     1      34.071 -14.701 -22.938  0.00  0.00    +0.082 C 
BRANCH   7   8
ATOM      8  C   UNL     1      33.627 -13.330 -22.856  0.00  0.00    +0.018 C 
ATOM      9  C   UNL     1      32.667 -12.963 -21.913  0.00  0.00    +0.003 C 
ATOM     10  C   UNL     1      34.159 -12.372 -23.719  0.00  0.00    +0.003 C 
ATOM     11  C   UNL     1      32.770 -10.680 -22.697  0.00  0.00    +0.106 C 
ATOM     12  C   UNL     1      32.239 -11.638 -21.834  0.00  0.00    +0.018 C 
ATOM     13  C   UNL     1      33.730 -11.047 -23.640  0.00  0.00    +0.018 C 
BRANCH  11  14
ATOM     14  S   UNL     1      32.234  -9.022 -22.599  0.00  0.00    +0.010 S 
ATOM     15  O   UNL     1      33.272  -8.179 -23.178  0.00  0.00    -0.169 OA
ATOM     16  O   UNL     1      30.870  -8.935 -23.101  0.00  0.00    -0.169 OA
ATOM     17  C   UNL     1      32.166  -8.681 -20.854  0.00  0.00    +0.182 C 
ENDBRANCH  11  14
ENDBRANCH   7   8
ENDBRANCH   1   3
BRANCH   1  18
ATOM     18  C   UNL     1      36.089 -19.007 -21.797  0.00  0.00    +0.205 C 
BRANCH  18  23
ATOM     19  O   UNL     1      34.495 -23.059 -17.100  0.00  0.00    -0.296 OA
ATOM     20  N   UNL     1      34.244 -21.720 -19.005  0.00  0.00    -0.251 N 
ATOM     21  N   UNL     1      32.381 -22.711 -17.756  0.00  0.00    -0.300 NA
ATOM     22  N   UNL     1      33.684 -23.750 -16.189  0.00  0.00    -0.010 NA
ATOM     23  C   UNL     1      35.400 -20.235 -21.204  0.00  0.00    +0.047 C 
ATOM     24  C   UNL     1      34.039 -19.861 -20.608  0.00  0.00    +0.025 C 
ATOM     25  C   UNL     1      36.272 -20.880 -20.122  0.00  0.00    +0.025 C 
ATOM     26  C   UNL     1      33.354 -21.073 -19.978  0.00  0.00    +0.096 C 
ATOM     27  C   UNL     1      35.580 -22.087 -19.487  0.00  0.00    +0.096 C 
ATOM     28  C   UNL     1      33.648 -22.476 -17.988  0.00  0.00    +0.379 C 
ATOM     29  C   UNL     1      32.454 -23.496 -16.642  0.00  0.00    +0.104 C 
BRANCH  29  30
ATOM     30  C   UNL     1      31.258 -24.030 -15.982  0.00  0.00    +0.101 C 
ATOM     31  C   UNL     1      31.466 -24.316 -14.473  0.00  0.00    +0.017 C 
ATOM     32  C   UNL     1      30.009 -23.128 -16.152  0.00  0.00    +0.017 C 
ENDBRANCH  29  30
ENDBRANCH  18  23
ENDBRANCH   1  18
TORSDOF 6
ENDMDL
MODEL 2
REMARK VINA RESULT:     -11.8      4.261     11.475
REMARK  Name = 24996872
REMARK  6 active torsions:
REMARK  status: ('A' for Active; 'I' for Inactive)
REMARK    1  A    between atoms: O_1  and  C_3
REMARK    2  A    between atoms: O_1  and  C_18
REMARK    3  A    between atoms: C_7  and  C_8
REMARK    4  A    between atoms: C_11  and  S_14
REMARK    5  A    between atoms: C_18  and  C_23
REMARK    6  A    between atoms: C_29  and  C_30
REMARK                            x       y       z     vdW  Elec       q    Type
REMARK                         _______ _______ _______ _____ _____    ______ ____
ROOT
ATOM      1  O   UNL     1      34.636 -19.474 -22.025  0.00  0.00    -0.474 OA
ENDROOT
BRANCH   1   3
ATOM      2  N   UNL     1      36.454 -21.044 -19.262  0.00  0.00    -0.241 NA
ATOM      3  C   UNL     1      34.874 -20.216 -20.894  0.00  0.00    +0.158 C 
ATOM      4  C   UNL     1      33.840 -20.876 -20.240  0.00  0.00    +0.040 C 
ATOM      5  C   UNL     1      36.151 -20.330 -20.370  0.00  0.00    +0.136 C 
ATOM      6  C   UNL     1      34.112 -21.621 -19.097  0.00  0.00    +0.022 C 
ATOM      7  C   UNL     1      35.423 -21.671 -18.653  0.00  0.00    +0.082 C 
BRANCH   7   8
ATOM      8  C   UNL     1      35.779 -22.424 -17.474  0.00  0.00    +0.018 C 
ATOM      9  C   UNL     1      37.092 -22.401 -17.001  0.00  0.00    +0.003 C 
ATOM     10  C   UNL     1      34.811 -23.174 -16.806  0.00  0.00    +0.003 C 
ATOM     11  C   UNL     1      36.467 -23.878 -15.194  0.00  0.00    +0.106 C 
ATOM     12  C   UNL     1      37.435 -23.128 -15.861  0.00  0.00    +0.018 C 
ATOM     13  C   UNL     1      35.154 -23.901 -15.667  0.00  0.00    +0.018 C 
BRANCH  11  14
ATOM     14  S   UNL     1      36.896 -24.788 -13.768  0.00  0.00    +0.010 S 
ATOM     15  O   UNL     1      38.244 -24.399 -13.376  0.00  0.00    -0.169 OA
ATOM     16  O   UNL     1      35.809 -24.696 -12.802  0.00  0.00    -0.169 OA
ATOM     17  C   UNL     1      36.955 -26.477 -14.322  0.00  0.00    +0.182 C 
ENDBRANCH  11  14
ENDBRANCH   7   8
ENDBRANCH   1   3
BRANCH   1  18
ATOM     18  C   UNL     1      35.716 -18.714 -22.536  0.00  0.00    +0.205 C 
BRANCH  18  23
ATOM     19  O   UNL     1      32.431 -13.219 -22.701  0.00  0.00    -0.296 OA
ATOM     20  N   UNL     1      33.736 -14.956 -21.825  0.00  0.00    -0.251 N 
ATOM     21  N   UNL     1      32.630 -13.236 -20.470  0.00  0.00    -0.300 NA
ATOM     22  N   UNL     1      31.691 -12.124 -22.234  0.00  0.00    -0.010 NA
ATOM     23  C   UNL     1      35.467 -17.242 -22.215  0.00  0.00    +0.047 C 
ATOM     24  C   UNL     1      34.595 -17.097 -20.963  0.00  0.00    +0.025 C 
ATOM     25  C   UNL     1      34.791 -16.534 -23.393  0.00  0.00    +0.025 C 
ATOM     26  C   UNL     1      34.306 -15.629 -20.651  0.00  0.00    +0.096 C 
ATOM     27  C   UNL     1      34.496 -15.068 -23.074  0.00  0.00    +0.096 C 
ATOM     28  C   UNL     1      32.949 -13.819 -21.598  0.00  0.00    +0.379 C 
ATOM     29  C   UNL     1      31.858 -12.202 -20.910  0.00  0.00    +0.104 C 
BRANCH  29  30
ATOM     30  C   UNL     1      31.247 -11.236 -19.992  0.00  0.00    +0.101 C 
ATOM     31  C   UNL     1      31.400 -11.626 -18.499  0.00  0.00    +0.017 C 
ATOM     32  C   UNL     1      31.768  -9.789 -20.187  0.00  0.00    +0.017 C 
ENDBRANCH  29  30
ENDBRANCH  18  23
ENDBRANCH   1  18
TORSDOF 6
ENDMDL
MODEL 3
REMARK VINA RESULT:     -11.6      3.991     11.884
REMARK  Name = 24996872
REMARK  6 active torsions:
REMARK  status: ('A' for Active; 'I' for Inactive)
REMARK    1  A    between atoms: O_1  and  C_3
REMARK    2  A    between atoms: O_1  and  C_18
REMARK    3  A    between atoms: C_7  and  C_8
REMARK    4  A    between atoms: C_11  and  S_14
REMARK    5  A    between atoms: C_18  and  C_23
REMARK    6  A    between atoms: C_29  and  C_30
REMARK                            x       y       z     vdW  Elec       q    Type
REMARK                         _______ _______ _______ _____ _____    ______ ____
ROOT
ATOM      1  O   UNL     1      35.691 -20.196 -21.448  0.00  0.00    -0.474 OA
ENDROOT
BRANCH   1   3
ATOM      2  N   UNL     1      33.194 -21.508 -19.114  0.00  0.00    -0.241 NA
ATOM      3  C   UNL     1      35.154 -20.863 -20.374  0.00  0.00    +0.158 C 
ATOM      4  C   UNL     1      35.965 -21.551 -19.479  0.00  0.00    +0.040 C 
ATOM      5  C   UNL     1      33.786 -20.872 -20.149  0.00  0.00    +0.136 C 
ATOM      6  C   UNL     1      35.393 -22.217 -18.401  0.00  0.00    +0.022 C 
ATOM      7  C   UNL     1      34.015 -22.165 -18.264  0.00  0.00    +0.082 C 
BRANCH   7   8
ATOM      8  C   UNL     1      33.352 -22.833 -17.170  0.00  0.00    +0.018 C 
ATOM      9  C   UNL     1      34.104 -23.453 -16.171  0.00  0.00    +0.003 C 
ATOM     10  C   UNL     1      31.958 -22.859 -17.110  0.00  0.00    +0.003 C 
ATOM     11  C   UNL     1      32.069 -24.123 -15.054  0.00  0.00    +0.106 C 
ATOM     12  C   UNL     1      33.462 -24.098 -15.115  0.00  0.00    +0.018 C 
ATOM     13  C   UNL     1      31.317 -23.504 -16.053  0.00  0.00    +0.018 C 
BRANCH  11  14
ATOM     14  S   UNL     1      31.266 -24.930 -13.731  0.00  0.00    +0.010 S 
ATOM     15  O   UNL     1      32.115 -26.031 -13.296  0.00  0.00    -0.169 OA
ATOM     16  O   UNL     1      30.826 -23.932 -12.766  0.00  0.00    -0.169 OA
ATOM     17  C   UNL     1      29.801 -25.626 -14.461  0.00  0.00    +0.182 C 
ENDBRANCH  11  14
ENDBRANCH   7   8
ENDBRANCH   1   3
BRANCH   1  18
ATOM     18  C   UNL     1      34.807 -19.848 -22.497  0.00  0.00    +0.205 C 
BRANCH  18  23
ATOM     19  O   UNL     1      33.623 -14.276 -25.425  0.00  0.00    -0.296 OA
ATOM     20  N   UNL     1      34.404 -15.759 -23.789  0.00  0.00    -0.251 N 
ATOM     21  N   UNL     1      34.239 -13.330 -23.491  0.00  0.00    -0.300 NA
ATOM     22  N   UNL     1      33.408 -12.900 -25.578  0.00  0.00    -0.010 NA
ATOM     23  C   UNL     1      35.142 -18.434 -22.965  0.00  0.00    +0.047 C 
ATOM     24  C   UNL     1      34.636 -17.393 -21.961  0.00  0.00    +0.025 C 
ATOM     25  C   UNL     1      34.530 -18.155 -24.342  0.00  0.00    +0.025 C 
ATOM     26  C   UNL     1      34.931 -15.971 -22.434  0.00  0.00    +0.096 C 
ATOM     27  C   UNL     1      34.820 -16.728 -24.808  0.00  0.00    +0.096 C 
ATOM     28  C   UNL     1      34.112 -14.443 -24.169  0.00  0.00    +0.379 C 
ATOM     29  C   UNL     1      33.794 -12.412 -24.396  0.00  0.00    +0.104 C 
BRANCH  29  30
ATOM     30  C   UNL     1      33.742 -10.978 -24.094  0.00  0.00    +0.101 C 
ATOM     31  C   UNL     1      33.053 -10.661 -22.741  0.00  0.00    +0.017 C 
ATOM     32  C   UNL     1      35.132 -10.293 -24.119  0.00  0.00    +0.017 C 
ENDBRANCH  29  30
ENDBRANCH  18  23
ENDBRANCH   1  18
TORSDOF 6
ENDMDL
MODEL 4
REMARK VINA RESULT:     -11.4      3.570     11.673
REMARK  Name = 24996872
REMARK  6 active torsions:
REMARK  status: ('A' for Active; 'I' for Inactive)
REMARK    1  A    between atoms: O_1  and  C_3
REMARK    2  A    between atoms: O_1  and  C_18
REMARK    3  A    between atoms: C_7  and  C_8
REMARK    4  A    between atoms: C_11  and  S_14
REMARK    5  A    between atoms: C_18  and  C_23
REMARK    6  A    between atoms: C_29  and  C_30
REMARK                            x       y       z     vdW  Elec       q    Type
REMARK                         _______ _______ _______ _____ _____    ______ ____
ROOT
ATOM      1  O   UNL     1      35.097 -16.096 -24.278  0.00  0.00    -0.474 OA
ENDROOT
BRANCH   1   3
ATOM      2  N   UNL     1      34.763 -17.941 -21.134  0.00  0.00    -0.241 NA
ATOM      3  C   UNL     1      34.918 -17.146 -23.412  0.00  0.00    +0.158 C 
ATOM      4  C   UNL     1      34.715 -18.438 -23.884  0.00  0.00    +0.040 C 
ATOM      5  C   UNL     1      34.933 -16.952 -22.040  0.00  0.00    +0.136 C 
ATOM      6  C   UNL     1      34.537 -19.482 -22.983  0.00  0.00    +0.022 C 
ATOM      7  C   UNL     1      34.569 -19.183 -21.630  0.00  0.00    +0.082 C 
BRANCH   7   8
ATOM      8  C   UNL     1      34.391 -20.216 -20.638  0.00  0.00    +0.018 C 
ATOM      9  C   UNL     1      35.500 -20.890 -20.125  0.00  0.00    +0.003 C 
ATOM     10  C   UNL     1      33.111 -20.539 -20.189  0.00  0.00    +0.003 C 
ATOM     11  C   UNL     1      34.047 -22.211 -18.718  0.00  0.00    +0.106 C 
ATOM     12  C   UNL     1      35.327 -21.887 -19.166  0.00  0.00    +0.018 C 
ATOM     13  C   UNL     1      32.938 -21.536 -19.230  0.00  0.00    +0.018 C 
BRANCH  11  14
ATOM     14  S   UNL     1      33.831 -23.459 -17.517  0.00  0.00    +0.010 S 
ATOM     15  O   UNL     1      33.701 -24.732 -18.212  0.00  0.00    -0.169 OA
ATOM     16  O   UNL     1      34.845 -23.301 -16.483  0.00  0.00    -0.169 OA
ATOM     17  C   UNL     1      32.262 -23.084 -16.766  0.00  0.00    +0.182 C 
ENDBRANCH  11  14
ENDBRANCH   7   8
ENDBRANCH   1   3
BRANCH   1  18
ATOM     18  C   UNL     1      33.959 -15.310 -24.581  0.00  0.00    +0.205 C 
BRANCH  18  23
ATOM     19  O   UNL     1      32.798  -9.071 -23.713  0.00  0.00    -0.296 OA
ATOM     20  N   UNL     1      33.144 -11.323 -23.169  0.00  0.00    -0.251 N 
ATOM     21  N   UNL     1      32.268  -9.642 -21.612  0.00  0.00    -0.300 NA
ATOM     22  N   UNL     1      32.333  -7.902 -23.096  0.00  0.00    -0.010 NA
ATOM     23  C   UNL     1      34.098 -13.963 -23.876  0.00  0.00    +0.047 C 
ATOM     24  C   UNL     1      32.969 -13.761 -22.860  0.00  0.00    +0.025 C 
ATOM     25  C   UNL     1      34.087 -12.813 -24.887  0.00  0.00    +0.025 C 
ATOM     26  C   UNL     1      33.073 -12.400 -22.172  0.00  0.00    +0.096 C 
ATOM     27  C   UNL     1      34.183 -11.453 -24.195  0.00  0.00    +0.096 C 
ATOM     28  C   UNL     1      32.726 -10.047 -22.770  0.00  0.00    +0.379 C 
ATOM     29  C   UNL     1      32.041  -8.320 -21.861  0.00  0.00    +0.104 C 
BRANCH  29  30
ATOM     30  C   UNL     1      31.508  -7.413 -20.840  0.00  0.00    +0.101 C 
ATOM     31  C   UNL     1      32.557  -7.007 -19.772  0.00  0.00    +0.017 C 
ATOM     32  C   UNL     1      30.874  -6.128 -21.430  0.00  0.00    +0.017 C 
ENDBRANCH  29  30
ENDBRANCH  18  23
ENDBRANCH   1  18
TORSDOF 6
ENDMDL
MODEL 5
REMARK VINA RESULT:     -11.4      4.739     12.403
REMARK  Name = 24996872
REMARK  6 active torsions:
REMARK  status: ('A' for Active; 'I' for Inactive)
REMARK    1  A    between atoms: O_1  and  C_3
REMARK    2  A    between atoms: O_1  and  C_18
REMARK    3  A    between atoms: C_7  and  C_8
REMARK    4  A    between atoms: C_11  and  S_14
REMARK    5  A    between atoms: C_18  and  C_23
REMARK    6  A    between atoms: C_29  and  C_30
REMARK                            x       y       z     vdW  Elec       q    Type
REMARK                         _______ _______ _______ _____ _____    ______ ____
ROOT
ATOM      1  O   UNL     1      36.097 -20.685 -20.632  0.00  0.00    -0.474 OA
ENDROOT
BRANCH   1   3
ATOM      2  N   UNL     1      37.055 -21.873 -17.304  0.00  0.00    -0.241 NA
ATOM      3  C   UNL     1      36.019 -21.322 -19.418  0.00  0.00    +0.158 C 
ATOM      4  C   UNL     1      34.884 -22.040 -19.058  0.00  0.00    +0.040 C 
ATOM      5  C   UNL     1      37.068 -21.270 -18.514  0.00  0.00    +0.136 C 
ATOM      6  C   UNL     1      34.833 -22.675 -17.822  0.00  0.00    +0.022 C 
ATOM      7  C   UNL     1      35.935 -22.562 -16.989  0.00  0.00    +0.082 C 
BRANCH   7   8
ATOM      8  C   UNL     1      35.953 -23.194 -15.691  0.00  0.00    +0.018 C 
ATOM      9  C   UNL     1      34.818 -23.855 -15.221  0.00  0.00    +0.003 C 
ATOM     10  C   UNL     1      37.105 -23.145 -14.907  0.00  0.00    +0.003 C 
ATOM     11  C   UNL     1      35.989 -24.417 -13.184  0.00  0.00    +0.106 C 
ATOM     12  C   UNL     1      34.836 -24.465 -13.967  0.00  0.00    +0.018 C 
ATOM     13  C   UNL     1      37.124 -23.756 -13.654  0.00  0.00    +0.018 C 
BRANCH  11  14
ATOM     14  S   UNL     1      36.012 -25.181 -11.615  0.00  0.00    +0.010 S 
ATOM     15  O   UNL     1      34.633 -25.320 -11.163  0.00  0.00    -0.169 OA
ATOM     16  O   UNL     1      36.874 -26.354 -11.672  0.00  0.00    -0.169 OA
ATOM     17  C   UNL     1      36.816 -23.998 -10.558  0.00  0.00    +0.182 C 
ENDBRANCH  11  14
ENDBRANCH   7   8
ENDBRANCH   1   3
BRANCH   1  18
ATOM     18  C   UNL     1      34.898 -20.143 -21.154  0.00  0.00    +0.205 C 
BRANCH  18  23
ATOM     19  O   UNL     1      33.738 -15.169 -25.018  0.00  0.00    -0.296 OA
ATOM     20  N   UNL     1      34.459 -16.336 -23.119  0.00  0.00    -0.251 N 
ATOM     21  N   UNL     1      34.208 -13.899 -23.233  0.00  0.00    -0.300 NA
ATOM     22  N   UNL     1      33.493 -13.845 -25.406  0.00  0.00    -0.010 NA
ATOM     23  C   UNL     1      35.221 -18.812 -21.828  0.00  0.00    +0.047 C 
ATOM     24  C   UNL     1      34.625 -17.642 -21.037  0.00  0.00    +0.025 C 
ATOM     25  C   UNL     1      34.687 -18.783 -23.263  0.00  0.00    +0.025 C 
ATOM     26  C   UNL     1      34.908 -16.305 -21.720  0.00  0.00    +0.096 C 
ATOM     27  C   UNL     1      34.964 -17.441 -23.941  0.00  0.00    +0.096 C 
ATOM     28  C   UNL     1      34.154 -15.111 -23.726  0.00  0.00    +0.379 C 
ATOM     29  C   UNL     1      33.793 -13.157 -24.300  0.00  0.00    +0.104 C 
BRANCH  29  30
ATOM     30  C   UNL     1      33.681 -11.696 -24.241  0.00  0.00    +0.101 C 
ATOM     31  C   UNL     1      33.261 -11.169 -22.844  0.00  0.00    +0.017 C 
ATOM     32  C   UNL     1      34.972 -10.962 -24.684  0.00  0.00    +0.017 C 
ENDBRANCH  29  30
ENDBRANCH  18  23
ENDBRANCH   1  18
TORSDOF 6
ENDMDL
MODEL 6
REMARK VINA RESULT:     -11.1      4.820     12.467
REMARK  Name = 24996872
REMARK  6 active torsions:
REMARK  status: ('A' for Active; 'I' for Inactive)
REMARK    1  A    between atoms: O_1  and  C_3
REMARK    2  A    between atoms: O_1  and  C_18
REMARK    3  A    between atoms: C_7  and  C_8
REMARK    4  A    between atoms: C_11  and  S_14
REMARK    5  A    between atoms: C_18  and  C_23
REMARK    6  A    between atoms: C_29  and  C_30
REMARK                            x       y       z     vdW  Elec       q    Type
REMARK                         _______ _______ _______ _____ _____    ______ ____
ROOT
ATOM      1  O   UNL     1      35.169 -21.134 -20.661  0.00  0.00    -0.474 OA
ENDROOT
BRANCH   1   3
ATOM      2  N   UNL     1      34.584 -22.866 -17.489  0.00  0.00    -0.241 NA
ATOM      3  C   UNL     1      35.408 -21.657 -19.414  0.00  0.00    +0.158 C 
ATOM      4  C   UNL     1      36.653 -21.529 -18.810  0.00  0.00    +0.040 C 
ATOM      5  C   UNL     1      34.415 -22.328 -18.718  0.00  0.00    +0.136 C 
ATOM      6  C   UNL     1      36.866 -22.069 -17.546  0.00  0.00    +0.022 C 
ATOM      7  C   UNL     1      35.808 -22.722 -16.934  0.00  0.00    +0.082 C 
BRANCH   7   8
ATOM      8  C   UNL     1      35.955 -23.307 -15.623  0.00  0.00    +0.018 C 
ATOM      9  C   UNL     1      34.830 -23.746 -14.924  0.00  0.00    +0.003 C 
ATOM     10  C   UNL     1      37.222 -23.435 -15.054  0.00  0.00    +0.003 C 
ATOM     11  C   UNL     1      36.241 -24.439 -13.088  0.00  0.00    +0.106 C 
ATOM     12  C   UNL     1      34.973 -24.311 -13.657  0.00  0.00    +0.018 C 
ATOM     13  C   UNL     1      37.366 -24.000 -13.787  0.00  0.00    +0.018 C 
BRANCH  11  14
ATOM     14  S   UNL     1      36.419 -25.146 -11.503  0.00  0.00    +0.010 S 
ATOM     15  O   UNL     1      37.335 -24.309 -10.739  0.00  0.00    -0.169 OA
ATOM     16  O   UNL     1      35.099 -25.447 -10.967  0.00  0.00    -0.169 OA
ATOM     17  C   UNL     1      37.224 -26.704 -11.802  0.00  0.00    +0.182 C 
ENDBRANCH  11  14
ENDBRANCH   7   8
ENDBRANCH   1   3
BRANCH   1  18
ATOM     18  C   UNL     1      36.008 -20.076 -21.087  0.00  0.00    +0.205 C 
BRANCH  18  23
ATOM     19  O   UNL     1      34.451 -13.935 -22.031  0.00  0.00    -0.296 OA
ATOM     20  N   UNL     1      34.719 -16.215 -22.497  0.00  0.00    -0.251 N 
ATOM     21  N   UNL     1      34.226 -14.506 -24.186  0.00  0.00    -0.300 NA
ATOM     22  N   UNL     1      34.179 -12.747 -22.723  0.00  0.00    -0.010 NA
ATOM     23  C   UNL     1      35.129 -18.935 -21.594  0.00  0.00    +0.047 C 
ATOM     24  C   UNL     1      35.588 -18.469 -22.980  0.00  0.00    +0.025 C 
ATOM     25  C   UNL     1      35.157 -17.751 -20.623  0.00  0.00    +0.025 C 
ATOM     26  C   UNL     1      34.742 -17.301 -23.486  0.00  0.00    +0.096 C 
ATOM     27  C   UNL     1      34.316 -16.581 -21.135  0.00  0.00    +0.096 C 
ATOM     28  C   UNL     1      34.462 -14.921 -22.966  0.00  0.00    +0.379 C 
ATOM     29  C   UNL     1      34.060 -13.167 -23.986  0.00  0.00    +0.104 C 
BRANCH  29  30
ATOM     30  C   UNL     1      33.768 -12.243 -25.087  0.00  0.00    +0.101 C 
ATOM     31  C   UNL     1      34.838 -11.132 -25.255  0.00  0.00    +0.017 C 
ATOM     32  C   UNL     1      33.568 -12.954 -26.449  0.00  0.00    +0.017 C 
ENDBRANCH  29  30
ENDBRANCH  18  23
ENDBRANCH   1  18
TORSDOF 6
ENDMDL
MODEL 7
REMARK VINA RESULT:     -11.1      4.360     11.959
REMARK  Name = 24996872
REMARK  6 active torsions:
REMARK  status: ('A' for Active; 'I' for Inactive)
REMARK    1  A    between atoms: O_1  and  C_3
REMARK    2  A    between atoms: O_1  and  C_18
REMARK    3  A    between atoms: C_7  and  C_8
REMARK    4  A    between atoms: C_11  and  S_14
REMARK    5  A    between atoms: C_18  and  C_23
REMARK    6  A    between atoms: C_29  and  C_30
REMARK                            x       y       z     vdW  Elec       q    Type
REMARK                         _______ _______ _______ _____ _____    ______ ____
ROOT
ATOM      1  O   UNL     1      34.023 -19.981 -21.845  0.00  0.00    -0.474 OA
ENDROOT
BRANCH   1   3
ATOM      2  N   UNL     1      34.177 -21.862 -18.708  0.00  0.00    -0.241 NA
ATOM      3  C   UNL     1      34.546 -20.592 -20.733  0.00  0.00    +0.158 C 
ATOM      4  C   UNL     1      35.914 -20.581 -20.485  0.00  0.00    +0.040 C 
ATOM      5  C   UNL     1      33.727 -21.240 -19.822  0.00  0.00    +0.136 C 
ATOM      6  C   UNL     1      36.415 -21.209 -19.349  0.00  0.00    +0.022 C 
ATOM      7  C   UNL     1      35.513 -21.830 -18.501  0.00  0.00    +0.082 C 
BRANCH   7   8
ATOM      8  C   UNL     1      35.960 -22.501 -17.304  0.00  0.00    +0.018 C 
ATOM      9  C   UNL     1      35.080 -23.314 -16.589  0.00  0.00    +0.003 C 
ATOM     10  C   UNL     1      37.273 -22.339 -16.863  0.00  0.00    +0.003 C 
ATOM     11  C   UNL     1      36.826 -23.800 -14.991  0.00  0.00    +0.106 C 
ATOM     12  C   UNL     1      35.513 -23.962 -15.433  0.00  0.00    +0.018 C 
ATOM     13  C   UNL     1      37.706 -22.988 -15.706  0.00  0.00    +0.018 C 
BRANCH  11  14
ATOM     14  S   UNL     1      37.368 -24.612 -13.544  0.00  0.00    +0.010 S 
ATOM     15  O   UNL     1      37.858 -23.599 -12.618  0.00  0.00    -0.169 OA
ATOM     16  O   UNL     1      36.338 -25.547 -13.113  0.00  0.00    -0.169 OA
ATOM     17  C   UNL     1      38.760 -25.583 -14.077  0.00  0.00    +0.182 C 
ENDBRANCH  11  14
ENDBRANCH   7   8
ENDBRANCH   1   3
BRANCH   1  18
ATOM     18  C   UNL     1      34.847 -19.924 -22.996  0.00  0.00    +0.205 C 
BRANCH  18  23
ATOM     19  O   UNL     1      33.757 -13.965 -25.075  0.00  0.00    -0.296 OA
ATOM     20  N   UNL     1      34.523 -15.683 -23.681  0.00  0.00    -0.251 N 
ATOM     21  N   UNL     1      34.418 -13.320 -23.035  0.00  0.00    -0.300 NA
ATOM     22  N   UNL     1      33.571 -12.577 -25.025  0.00  0.00    -0.010 NA
ATOM     23  C   UNL     1      35.209 -18.464 -23.261  0.00  0.00    +0.047 C 
ATOM     24  C   UNL     1      34.739 -17.569 -22.110  0.00  0.00    +0.025 C 
ATOM     25  C   UNL     1      34.587 -17.977 -24.573  0.00  0.00    +0.025 C 
ATOM     26  C   UNL     1      35.061 -16.099 -22.378  0.00  0.00    +0.096 C 
ATOM     27  C   UNL     1      34.904 -16.505 -24.835  0.00  0.00    +0.096 C 
ATOM     28  C   UNL     1      34.257 -14.321 -23.863  0.00  0.00    +0.379 C 
ATOM     29  C   UNL     1      33.983 -12.272 -23.792  0.00  0.00    +0.104 C 
BRANCH  29  30
ATOM     30  C   UNL     1      33.967 -10.895 -23.286  0.00  0.00    +0.101 C 
ATOM     31  C   UNL     1      34.762  -9.905 -24.176  0.00  0.00    +0.017 C 
ATOM     32  C   UNL     1      32.538 -10.336 -23.070  0.00  0.00    +0.017 C 
ENDBRANCH  29  30
ENDBRANCH  18  23
ENDBRANCH   1  18
TORSDOF 6
ENDMDL
MODEL 8
REMARK VINA RESULT:     -10.9      4.243     11.666
REMARK  Name = 24996872
REMARK  6 active torsions:
REMARK  status: ('A' for Active; 'I' for Inactive)
REMARK    1  A    between atoms: O_1  and  C_3
REMARK    2  A    between atoms: O_1  and  C_18
REMARK    3  A    between atoms: C_7  and  C_8
REMARK    4  A    between atoms: C_11  and  S_14
REMARK    5  A    between atoms: C_18  and  C_23
REMARK    6  A    between atoms: C_29  and  C_30
REMARK                            x       y       z     vdW  Elec       q    Type
REMARK                         _______ _______ _______ _____ _____    ______ ____
ROOT
ATOM      1  O   UNL     1      35.067 -18.982 -22.384  0.00  0.00    -0.474 OA
ENDROOT
BRANCH   1   3
ATOM      2  N   UNL     1      36.748 -20.589 -19.556  0.00  0.00    -0.241 NA
ATOM      3  C   UNL     1      35.254 -19.756 -21.265  0.00  0.00    +0.158 C 
ATOM      4  C   UNL     1      34.202 -20.473 -20.706  0.00  0.00    +0.040 C 
ATOM      5  C   UNL     1      36.496 -19.847 -20.657  0.00  0.00    +0.136 C 
ATOM      6  C   UNL     1      34.422 -21.249 -19.573  0.00  0.00    +0.022 C 
ATOM      7  C   UNL     1      35.701 -21.272 -19.041  0.00  0.00    +0.082 C 
BRANCH   7   8
ATOM      8  C   UNL     1      36.002 -22.055 -17.866  0.00  0.00    +0.018 C 
ATOM      9  C   UNL     1      35.024 -22.877 -17.305  0.00  0.00    +0.003 C 
ATOM     10  C   UNL     1      37.271 -21.990 -17.291  0.00  0.00    +0.003 C 
ATOM     11  C   UNL     1      36.586 -23.568 -15.595  0.00  0.00    +0.106 C 
ATOM     12  C   UNL     1      35.316 -23.632 -16.170  0.00  0.00    +0.018 C 
ATOM     13  C   UNL     1      37.564 -22.746 -16.156  0.00  0.00    +0.018 C 
BRANCH  11  14
ATOM     14  S   UNL     1      36.951 -24.514 -14.175  0.00  0.00    +0.010 S 
ATOM     15  O   UNL     1      36.237 -25.780 -14.283  0.00  0.00    -0.169 OA
ATOM     16  O   UNL     1      38.392 -24.513 -13.964  0.00  0.00    -0.169 OA
ATOM     17  C   UNL     1      36.231 -23.594 -12.833  0.00  0.00    +0.182 C 
ENDBRANCH  11  14
ENDBRANCH   7   8
ENDBRANCH   1   3
BRANCH   1  18
ATOM     18  C   UNL     1      35.631 -17.683 -22.369  0.00  0.00    +0.205 C 
BRANCH  18  23
ATOM     19  O   UNL     1      32.385 -12.669 -20.059  0.00  0.00    -0.296 OA
ATOM     20  N   UNL     1      33.363 -14.095 -21.639  0.00  0.00    -0.251 N 
ATOM     21  N   UNL     1      32.522 -11.846 -22.138  0.00  0.00    -0.300 NA
ATOM     22  N   UNL     1      31.827 -11.384 -20.008  0.00  0.00    -0.010 NA
ATOM     23  C   UNL     1      34.495 -16.663 -22.348  0.00  0.00    +0.047 C 
ATOM     24  C   UNL     1      34.906 -15.375 -23.070  0.00  0.00    +0.025 C 
ATOM     25  C   UNL     1      34.085 -16.333 -20.909  0.00  0.00    +0.025 C 
ATOM     26  C   UNL     1      33.793 -14.329 -23.024  0.00  0.00    +0.096 C 
ATOM     27  C   UNL     1      32.977 -15.280 -20.867  0.00  0.00    +0.096 C 
ATOM     28  C   UNL     1      32.769 -12.860 -21.348  0.00  0.00    +0.379 C 
ATOM     29  C   UNL     1      31.945 -10.965 -21.271  0.00  0.00    +0.104 C 
BRANCH  29  30
ATOM     30  C   UNL     1      31.482  -9.640 -21.696  0.00  0.00    +0.101 C 
ATOM     31  C   UNL     1      31.826  -8.516 -20.683  0.00  0.00    +0.017 C 
ATOM     32  C   UNL     1      32.002  -9.226 -23.096  0.00  0.00    +0.017 C 
ENDBRANCH  29  30
ENDBRANCH  18  23
ENDBRANCH   1  18
TORSDOF 6
ENDMDL
MODEL 9
REMARK VINA RESULT:     -10.6      1.869      2.230
REMARK  Name = 24996872
REMARK  6 active torsions:
REMARK  status: ('A' for Active; 'I' for Inactive)
REMARK    1  A    between atoms: O_1  and  C_3
REMARK    2  A    between atoms: O_1  and  C_18
REMARK    3  A    between atoms: C_7  and  C_8
REMARK    4  A    between atoms: C_11  and  S_14
REMARK    5  A    between atoms: C_18  and  C_23
REMARK    6  A    between atoms: C_29  and  C_30
REMARK                            x       y       z     vdW  Elec       q    Type
REMARK                         _______ _______ _______ _____ _____    ______ ____
ROOT
ATOM      1  O   UNL     1      35.421 -18.474 -21.855  0.00  0.00    -0.474 OA
ENDROOT
BRANCH   1   3
ATOM      2  N   UNL     1      34.087 -15.157 -21.064  0.00  0.00    -0.241 NA
ATOM      3  C   UNL     1      34.968 -17.190 -22.034  0.00  0.00    +0.158 C 
ATOM      4  C   UNL     1      34.921 -16.615 -23.298  0.00  0.00    +0.040 C 
ATOM      5  C   UNL     1      34.544 -16.426 -20.958  0.00  0.00    +0.136 C 
ATOM      6  C   UNL     1      34.456 -15.313 -23.448  0.00  0.00    +0.022 C 
ATOM      7  C   UNL     1      34.056 -14.633 -22.309  0.00  0.00    +0.082 C 
BRANCH   7   8
ATOM      8  C   UNL     1      33.563 -13.278 -22.388  0.00  0.00    +0.018 C 
ATOM      9  C   UNL     1      32.539 -12.857 -21.539  0.00  0.00    +0.003 C 
ATOM     10  C   UNL     1      34.112 -12.389 -23.312  0.00  0.00    +0.003 C 
ATOM     11  C   UNL     1      32.612 -10.660 -22.540  0.00  0.00    +0.106 C 
ATOM     12  C   UNL     1      32.064 -11.549 -21.616  0.00  0.00    +0.018 C 
ATOM     13  C   UNL     1      33.637 -11.080 -23.389  0.00  0.00    +0.018 C 
BRANCH  11  14
ATOM     14  S   UNL     1      32.018  -9.021 -22.636  0.00  0.00    +0.010 S 
ATOM     15  O   UNL     1      32.921  -8.266 -23.494  0.00  0.00    -0.169 OA
ATOM     16  O   UNL     1      30.593  -9.052 -22.937  0.00  0.00    -0.169 OA
ATOM     17  C   UNL     1      32.184  -8.393 -20.980  0.00  0.00    +0.182 C 
ENDBRANCH  11  14
ENDBRANCH   7   8
ENDBRANCH   1   3
BRANCH   1  18
ATOM     18  C   UNL     1      34.456 -19.508 -21.898  0.00  0.00    +0.205 C 
BRANCH  18  23
ATOM     19  O   UNL     1      37.243 -22.073 -16.733  0.00  0.00    -0.296 OA
ATOM     20  N   UNL     1      35.682 -21.790 -18.456  0.00  0.00    -0.251 N 
ATOM     21  N   UNL     1      35.353 -23.256 -16.518  0.00  0.00    -0.300 NA
ATOM     22  N   UNL     1      37.368 -22.795 -15.539  0.00  0.00    -0.010 NA
ATOM     23  C   UNL     1      34.937 -20.656 -21.013  0.00  0.00    +0.047 C 
ATOM     24  C   UNL     1      33.889 -21.000 -19.949  0.00  0.00    +0.025 C 
ATOM     25  C   UNL     1      36.261 -20.301 -20.330  0.00  0.00    +0.025 C 
ATOM     26  C   UNL     1      34.372 -22.123 -19.032  0.00  0.00    +0.096 C 
ATOM     27  C   UNL     1      36.737 -21.423 -19.406  0.00  0.00    +0.096 C 
ATOM     28  C   UNL     1      36.028 -22.402 -17.245  0.00  0.00    +0.379 C 
ATOM     29  C   UNL     1      36.215 -23.467 -15.482  0.00  0.00    +0.104 C 
BRANCH  29  30
ATOM     30  C   UNL     1      35.898 -24.374 -14.373  0.00  0.00    +0.101 C 
ATOM     31  C   UNL     1      34.383 -24.442 -14.050  0.00  0.00    +0.017 C 
ATOM     32  C   UNL     1      36.428 -25.814 -14.587  0.00  0.00    +0.017 C 
ENDBRANCH  29  30
ENDBRANCH  18  23
ENDBRANCH   1  18
TORSDOF 6
ENDMDL
