MODEL 1
REMARK VINA RESULT:     -11.1      0.000      0.000
REMARK  Name = 54689025
REMARK  9 active torsions:
REMARK  status: ('A' for Active; 'I' for Inactive)
REMARK    1  A    between atoms: C_1  and  C_21
REMARK    2  A    between atoms: C_4  and  N_8
REMARK    3  A    between atoms: C_9  and  C_11
REMARK    4  A    between atoms: C_11  and  N_13
REMARK    5  A    between atoms: C_14  and  O_16
REMARK    6  A    between atoms: O_16  and  C_17
REMARK    7  A    between atoms: C_21  and  C_24
REMARK    8  A    between atoms: C_21  and  C_35
REMARK    9  A    between atoms: C_25  and  O_33
REMARK                            x       y       z     vdW  Elec       q    Type
REMARK                         _______ _______ _______ _____ _____    ______ ____
ROOT
ATOM      1  C   UNL     1      34.958 -16.998 -21.938  0.00  0.00    -0.017 C 
ATOM      2  C   UNL     1      34.884 -15.897 -22.790  0.00  0.00    +0.011 C 
ATOM      3  C   UNL     1      34.594 -16.869 -20.598  0.00  0.00    -0.004 C 
ATOM      4  C   UNL     1      34.445 -14.666 -22.304  0.00  0.00    +0.050 C 
ATOM      5  C   UNL     1      34.157 -15.637 -20.110  0.00  0.00    +0.001 C 
ATOM      6  C   UNL     1      34.082 -14.537 -20.963  0.00  0.00    +0.015 C 
ENDROOT
BRANCH   4   8
ATOM      7  O   UNL     1      33.115 -14.359 -24.980  0.00  0.00    -0.273 OA
ATOM      8  N   UNL     1      34.372 -13.564 -23.156  0.00  0.00    -0.283 N 
ATOM      9  C   UNL     1      33.735 -13.471 -24.404  0.00  0.00    +0.246 C 
ATOM     10  H   UNL     1      34.823 -12.747 -22.842  0.00  0.00    +0.155 HD
BRANCH   9  11
ATOM     11  C   UNL     1      33.899 -12.083 -24.995  0.00  0.00    +0.179 C 
BRANCH  11  13
ATOM     12  O   UNL     1      35.463  -9.635 -24.942  0.00  0.00    -0.226 OA
ATOM     13  N   UNL     1      33.956 -11.099 -23.953  0.00  0.00    -0.262 N 
ATOM     14  C   UNL     1      34.733  -9.954 -24.009  0.00  0.00    +0.402 C 
ATOM     15  H   UNL     1      33.409 -11.247 -23.148  0.00  0.00    +0.153 HD
BRANCH  14  16
ATOM     16  O   UNL     1      34.570  -9.221 -22.866  0.00  0.00    -0.442 OA
BRANCH  16  17
ATOM     17  C   UNL     1      33.490  -8.282 -22.877  0.00  0.00    +0.138 C 
ATOM     18  C   UNL     1      33.770  -7.230 -23.949  0.00  0.00    +0.044 C 
ATOM     19  C   UNL     1      33.429  -7.637 -21.493  0.00  0.00    +0.044 C 
ATOM     20  C   UNL     1      32.194  -9.034 -23.177  0.00  0.00    +0.044 C 
ENDBRANCH  16  17
ENDBRANCH  14  16
ENDBRANCH  11  13
ENDBRANCH   9  11
ENDBRANCH   4   8
BRANCH   1  21
ATOM     21  C   UNL     1      35.435 -18.338 -22.469  0.00  0.00    +0.054 C 
BRANCH  21  24
ATOM     22  O   UNL     1      37.002 -20.523 -19.803  0.00  0.00    -0.421 OA
ATOM     23  O   UNL     1      37.840 -18.967 -21.234  0.00  0.00    -0.245 OA
ATOM     24  C   UNL     1      35.496 -19.362 -21.367  0.00  0.00    +0.091 A 
ATOM     25  C   UNL     1      34.448 -20.053 -20.880  0.00  0.00    +0.139 A 
ATOM     26  C   UNL     1      36.865 -19.584 -20.817  0.00  0.00    +0.345 A 
ATOM     27  C   UNL     1      34.627 -21.036 -19.810  0.00  0.00    +0.068 A 
ATOM     28  C   UNL     1      35.905 -21.243 -19.301  0.00  0.00    +0.152 A 
ATOM     29  C   UNL     1      33.576 -21.787 -19.264  0.00  0.00    +0.006 C 
ATOM     30  C   UNL     1      36.161 -22.162 -18.282  0.00  0.00    +0.038 C 
ATOM     31  C   UNL     1      33.816 -22.711 -18.241  0.00  0.00    +0.000 C 
ATOM     32  C   UNL     1      35.107 -22.899 -17.752  0.00  0.00    +0.003 C 
BRANCH  25  33
ATOM     33  O   UNL     1      33.147 -19.913 -21.316  0.00  0.00    -0.506 OA
ATOM     34  H   UNL     1      32.522 -19.456 -20.789  0.00  0.00    +0.292 HD
ENDBRANCH  25  33
ENDBRANCH  21  24
BRANCH  21  35
ATOM     35  C   UNL     1      34.589 -18.878 -23.640  0.00  0.00    +0.009 C 
ATOM     36  C   UNL     1      35.109 -20.202 -24.189  0.00  0.00    +0.001 C 
ENDBRANCH  21  35
ENDBRANCH   1  21
TORSDOF 9
ENDMDL
MODEL 2
REMARK VINA RESULT:     -10.9      4.575     11.516
REMARK  Name = 54689025
REMARK  9 active torsions:
REMARK  status: ('A' for Active; 'I' for Inactive)
REMARK    1  A    between atoms: C_1  and  C_21
REMARK    2  A    between atoms: C_4  and  N_8
REMARK    3  A    between atoms: C_9  and  C_11
REMARK    4  A    between atoms: C_11  and  N_13
REMARK    5  A    between atoms: C_14  and  O_16
REMARK    6  A    between atoms: O_16  and  C_17
REMARK    7  A    between atoms: C_21  and  C_24
REMARK    8  A    between atoms: C_21  and  C_35
REMARK    9  A    between atoms: C_25  and  O_33
REMARK                            x       y       z     vdW  Elec       q    Type
REMARK                         _______ _______ _______ _____ _____    ______ ____
ROOT
ATOM      1  C   UNL     1      34.801 -20.524 -20.579  0.00  0.00    -0.017 C 
ATOM      2  C   UNL     1      35.145 -21.384 -19.536  0.00  0.00    +0.011 C 
ATOM      3  C   UNL     1      33.462 -20.212 -20.813  0.00  0.00    -0.004 C 
ATOM      4  C   UNL     1      34.150 -21.931 -18.726  0.00  0.00    +0.050 C 
ATOM      5  C   UNL     1      32.467 -20.760 -20.004  0.00  0.00    +0.001 C 
ATOM      6  C   UNL     1      32.811 -21.619 -18.960  0.00  0.00    +0.015 C 
ENDROOT
BRANCH   4   8
ATOM      7  O   UNL     1      36.537 -21.923 -16.901  0.00  0.00    -0.273 OA
ATOM      8  N   UNL     1      34.494 -22.792 -17.683  0.00  0.00    -0.283 N 
ATOM      9  C   UNL     1      35.627 -22.746 -16.856  0.00  0.00    +0.246 C 
ATOM     10  H   UNL     1      33.860 -23.524 -17.504  0.00  0.00    +0.155 HD
BRANCH   9  11
ATOM     11  C   UNL     1      35.608 -23.877 -15.844  0.00  0.00    +0.179 C 
BRANCH  11  13
ATOM     12  O   UNL     1      37.413 -23.176 -13.678  0.00  0.00    -0.226 OA
ATOM     13  N   UNL     1      36.936 -24.365 -15.614  0.00  0.00    -0.262 N 
ATOM     14  C   UNL     1      37.734 -23.977 -14.551  0.00  0.00    +0.402 C 
ATOM     15  H   UNL     1      37.305 -25.018 -16.253  0.00  0.00    +0.153 HD
BRANCH  14  16
ATOM     16  O   UNL     1      38.940 -24.617 -14.610  0.00  0.00    -0.442 OA
BRANCH  16  17
ATOM     17  C   UNL     1      39.043 -25.823 -13.846  0.00  0.00    +0.138 C 
ATOM     18  C   UNL     1      38.672 -25.514 -12.396  0.00  0.00    +0.044 C 
ATOM     19  C   UNL     1      40.490 -26.304 -13.940  0.00  0.00    +0.044 C 
ATOM     20  C   UNL     1      38.092 -26.860 -14.442  0.00  0.00    +0.044 C 
ENDBRANCH  16  17
ENDBRANCH  14  16
ENDBRANCH  11  13
ENDBRANCH   9  11
ENDBRANCH   4   8
BRANCH   1  21
ATOM     21  C   UNL     1      35.884 -19.928 -21.460  0.00  0.00    +0.054 C 
BRANCH  21  24
ATOM     22  O   UNL     1      34.554 -18.120 -24.509  0.00  0.00    -0.421 OA
ATOM     23  O   UNL     1      35.221 -20.263 -24.134  0.00  0.00    -0.245 OA
ATOM     24  C   UNL     1      35.346 -18.782 -22.274  0.00  0.00    +0.091 A 
ATOM     25  C   UNL     1      35.135 -17.531 -21.822  0.00  0.00    +0.139 A 
ATOM     26  C   UNL     1      35.046 -19.131 -23.693  0.00  0.00    +0.345 A 
ATOM     27  C   UNL     1      34.615 -16.489 -22.709  0.00  0.00    +0.068 A 
ATOM     28  C   UNL     1      34.339 -16.816 -24.033  0.00  0.00    +0.152 A 
ATOM     29  C   UNL     1      34.378 -15.170 -22.298  0.00  0.00    +0.006 C 
ATOM     30  C   UNL     1      33.843 -15.882 -24.943  0.00  0.00    +0.038 C 
ATOM     31  C   UNL     1      33.880 -14.221 -23.198  0.00  0.00    +0.000 C 
ATOM     32  C   UNL     1      33.614 -14.577 -24.519  0.00  0.00    +0.003 C 
BRANCH  25  33
ATOM     33  O   UNL     1      35.373 -17.115 -20.529  0.00  0.00    -0.506 OA
ATOM     34  H   UNL     1      35.377 -16.201 -20.324  0.00  0.00    +0.292 HD
ENDBRANCH  25  33
ENDBRANCH  21  24
BRANCH  21  35
ATOM     35  C   UNL     1      37.137 -19.476 -20.682  0.00  0.00    +0.009 C 
ATOM     36  C   UNL     1      38.201 -18.852 -21.579  0.00  0.00    +0.001 C 
ENDBRANCH  21  35
ENDBRANCH   1  21
TORSDOF 9
ENDMDL
MODEL 3
REMARK VINA RESULT:     -10.4      4.585     10.958
REMARK  Name = 54689025
REMARK  9 active torsions:
REMARK  status: ('A' for Active; 'I' for Inactive)
REMARK    1  A    between atoms: C_1  and  C_21
REMARK    2  A    between atoms: C_4  and  N_8
REMARK    3  A    between atoms: C_9  and  C_11
REMARK    4  A    between atoms: C_11  and  N_13
REMARK    5  A    between atoms: C_14  and  O_16
REMARK    6  A    between atoms: O_16  and  C_17
REMARK    7  A    between atoms: C_21  and  C_24
REMARK    8  A    between atoms: C_21  and  C_35
REMARK    9  A    between atoms: C_25  and  O_33
REMARK                            x       y       z     vdW  Elec       q    Type
REMARK                         _______ _______ _______ _____ _____    ______ ____
ROOT
ATOM      1  C   UNL     1      34.961 -20.570 -20.533  0.00  0.00    -0.017 C 
ATOM      2  C   UNL     1      35.374 -21.422 -19.508  0.00  0.00    +0.011 C 
ATOM      3  C   UNL     1      33.604 -20.309 -20.718  0.00  0.00    -0.004 C 
ATOM      4  C   UNL     1      34.430 -22.011 -18.668  0.00  0.00    +0.050 C 
ATOM      5  C   UNL     1      32.659 -20.899 -19.879  0.00  0.00    +0.001 C 
ATOM      6  C   UNL     1      33.072 -21.750 -18.854  0.00  0.00    +0.015 C 
ENDROOT
BRANCH   4   8
ATOM      7  O   UNL     1      36.658 -21.722 -16.674  0.00  0.00    -0.273 OA
ATOM      8  N   UNL     1      34.842 -22.863 -17.643  0.00  0.00    -0.283 N 
ATOM      9  C   UNL     1      35.896 -22.682 -16.733  0.00  0.00    +0.246 C 
ATOM     10  H   UNL     1      34.328 -23.697 -17.544  0.00  0.00    +0.155 HD
BRANCH   9  11
ATOM     11  C   UNL     1      35.998 -23.858 -15.778  0.00  0.00    +0.179 C 
BRANCH  11  13
ATOM     12  O   UNL     1      34.577 -24.168 -13.263  0.00  0.00    -0.226 OA
ATOM     13  N   UNL     1      34.706 -24.441 -15.566  0.00  0.00    -0.262 N 
ATOM     14  C   UNL     1      34.097 -24.551 -14.326  0.00  0.00    +0.402 C 
ATOM     15  H   UNL     1      34.220 -24.786 -16.350  0.00  0.00    +0.153 HD
BRANCH  14  16
ATOM     16  O   UNL     1      32.876 -25.151 -14.455  0.00  0.00    -0.442 OA
BRANCH  16  17
ATOM     17  C   UNL     1      31.746 -24.271 -14.450  0.00  0.00    +0.138 C 
ATOM     18  C   UNL     1      31.815 -23.397 -13.198  0.00  0.00    +0.044 C 
ATOM     19  C   UNL     1      30.489 -25.138 -14.431  0.00  0.00    +0.044 C 
ATOM     20  C   UNL     1      31.791 -23.415 -15.715  0.00  0.00    +0.044 C 
ENDBRANCH  16  17
ENDBRANCH  14  16
ENDBRANCH  11  13
ENDBRANCH   9  11
ENDBRANCH   4   8
BRANCH   1  21
ATOM     21  C   UNL     1      35.990 -19.928 -21.447  0.00  0.00    +0.054 C 
BRANCH  21  24
ATOM     22  O   UNL     1      34.520 -18.012 -24.362  0.00  0.00    -0.421 OA
ATOM     23  O   UNL     1      35.254 -20.150 -24.113  0.00  0.00    -0.245 OA
ATOM     24  C   UNL     1      35.396 -18.760 -22.186  0.00  0.00    +0.091 A 
ATOM     25  C   UNL     1      35.166 -17.538 -21.667  0.00  0.00    +0.139 A 
ATOM     26  C   UNL     1      35.062 -19.047 -23.612  0.00  0.00    +0.345 A 
ATOM     27  C   UNL     1      34.592 -16.469 -22.486  0.00  0.00    +0.068 A 
ATOM     28  C   UNL     1      34.285 -16.739 -23.816  0.00  0.00    +0.152 A 
ATOM     29  C   UNL     1      34.333 -15.178 -22.003  0.00  0.00    +0.006 C 
ATOM     30  C   UNL     1      33.736 -15.775 -24.664  0.00  0.00    +0.038 C 
ATOM     31  C   UNL     1      33.783 -14.201 -22.840  0.00  0.00    +0.000 C 
ATOM     32  C   UNL     1      33.486 -14.500 -24.169  0.00  0.00    +0.003 C 
BRANCH  25  33
ATOM     33  O   UNL     1      35.434 -17.179 -20.363  0.00  0.00    -0.506 OA
ATOM     34  H   UNL     1      35.547 -17.840 -19.709  0.00  0.00    +0.292 HD
ENDBRANCH  25  33
ENDBRANCH  21  24
BRANCH  21  35
ATOM     35  C   UNL     1      37.278 -19.490 -20.719  0.00  0.00    +0.009 C 
ATOM     36  C   UNL     1      38.275 -18.797 -21.642  0.00  0.00    +0.001 C 
ENDBRANCH  21  35
ENDBRANCH   1  21
TORSDOF 9
ENDMDL
MODEL 4
REMARK VINA RESULT:     -10.3      4.078     11.006
REMARK  Name = 54689025
REMARK  9 active torsions:
REMARK  status: ('A' for Active; 'I' for Inactive)
REMARK    1  A    between atoms: C_1  and  C_21
REMARK    2  A    between atoms: C_4  and  N_8
REMARK    3  A    between atoms: C_9  and  C_11
REMARK    4  A    between atoms: C_11  and  N_13
REMARK    5  A    between atoms: C_14  and  O_16
REMARK    6  A    between atoms: O_16  and  C_17
REMARK    7  A    between atoms: C_21  and  C_24
REMARK    8  A    between atoms: C_21  and  C_35
REMARK    9  A    between atoms: C_25  and  O_33
REMARK                            x       y       z     vdW  Elec       q    Type
REMARK                         _______ _______ _______ _____ _____    ______ ____
ROOT
ATOM      1  C   UNL     1      35.016 -19.989 -21.325  0.00  0.00    -0.017 C 
ATOM      2  C   UNL     1      35.758 -20.713 -20.392  0.00  0.00    +0.011 C 
ATOM      3  C   UNL     1      33.622 -19.998 -21.267  0.00  0.00    -0.004 C 
ATOM      4  C   UNL     1      35.106 -21.445 -19.399  0.00  0.00    +0.050 C 
ATOM      5  C   UNL     1      32.971 -20.731 -20.275  0.00  0.00    +0.001 C 
ATOM      6  C   UNL     1      33.712 -21.453 -19.341  0.00  0.00    +0.015 C 
ENDROOT
BRANCH   4   8
ATOM      7  O   UNL     1      37.356 -20.581 -17.604  0.00  0.00    -0.273 OA
ATOM      8  N   UNL     1      35.848 -22.170 -18.465  0.00  0.00    -0.283 N 
ATOM      9  C   UNL     1      36.895 -21.718 -17.647  0.00  0.00    +0.246 C 
ATOM     10  H   UNL     1      35.604 -23.119 -18.367  0.00  0.00    +0.155 HD
BRANCH   9  11
ATOM     11  C   UNL     1      37.425 -22.840 -16.773  0.00  0.00    +0.179 C 
BRANCH  11  13
ATOM     12  O   UNL     1      38.232 -23.920 -14.200  0.00  0.00    -0.226 OA
ATOM     13  N   UNL     1      36.632 -22.964 -15.585  0.00  0.00    -0.262 N 
ATOM     14  C   UNL     1      37.098 -23.494 -14.392  0.00  0.00    +0.402 C 
ATOM     15  H   UNL     1      35.699 -22.653 -15.618  0.00  0.00    +0.153 HD
BRANCH  14  16
ATOM     16  O   UNL     1      36.106 -23.475 -13.452  0.00  0.00    -0.442 OA
BRANCH  16  17
ATOM     17  C   UNL     1      35.464 -24.729 -13.197  0.00  0.00    +0.138 C 
ATOM     18  C   UNL     1      33.960 -24.491 -13.075  0.00  0.00    +0.044 C 
ATOM     19  C   UNL     1      36.030 -25.276 -11.887  0.00  0.00    +0.044 C 
ATOM     20  C   UNL     1      35.774 -25.677 -14.354  0.00  0.00    +0.044 C 
ENDBRANCH  16  17
ENDBRANCH  14  16
ENDBRANCH  11  13
ENDBRANCH   9  11
ENDBRANCH   4   8
BRANCH   1  21
ATOM     21  C   UNL     1      35.726 -19.192 -22.405  0.00  0.00    +0.054 C 
BRANCH  21  24
ATOM     22  O   UNL     1      34.105 -16.300 -24.232  0.00  0.00    -0.421 OA
ATOM     23  O   UNL     1      34.871 -18.334 -24.902  0.00  0.00    -0.245 OA
ATOM     24  C   UNL     1      35.088 -17.841 -22.583  0.00  0.00    +0.091 A 
ATOM     25  C   UNL     1      34.869 -16.942 -21.604  0.00  0.00    +0.139 A 
ATOM     26  C   UNL     1      34.691 -17.535 -23.988  0.00  0.00    +0.345 A 
ATOM     27  C   UNL     1      34.247 -15.649 -21.895  0.00  0.00    +0.068 A 
ATOM     28  C   UNL     1      33.882 -15.365 -23.207  0.00  0.00    +0.152 A 
ATOM     29  C   UNL     1      33.998 -14.673 -20.920  0.00  0.00    +0.006 C 
ATOM     30  C   UNL     1      33.286 -14.156 -23.569  0.00  0.00    +0.038 C 
ATOM     31  C   UNL     1      33.400 -13.456 -21.267  0.00  0.00    +0.000 C 
ATOM     32  C   UNL     1      33.046 -13.198 -22.590  0.00  0.00    +0.003 C 
BRANCH  25  33
ATOM     33  O   UNL     1      35.192 -17.136 -20.277  0.00  0.00    -0.506 OA
ATOM     34  H   UNL     1      35.876 -16.632 -19.883  0.00  0.00    +0.292 HD
ENDBRANCH  25  33
ENDBRANCH  21  24
BRANCH  21  35
ATOM     35  C   UNL     1      37.240 -19.030 -22.160  0.00  0.00    +0.009 C 
ATOM     36  C   UNL     1      37.602 -18.990 -20.679  0.00  0.00    +0.001 C 
ENDBRANCH  21  35
ENDBRANCH   1  21
TORSDOF 9
ENDMDL
MODEL 5
REMARK VINA RESULT:      -9.3      4.488     11.392
REMARK  Name = 54689025
REMARK  9 active torsions:
REMARK  status: ('A' for Active; 'I' for Inactive)
REMARK    1  A    between atoms: C_1  and  C_21
REMARK    2  A    between atoms: C_4  and  N_8
REMARK    3  A    between atoms: C_9  and  C_11
REMARK    4  A    between atoms: C_11  and  N_13
REMARK    5  A    between atoms: C_14  and  O_16
REMARK    6  A    between atoms: O_16  and  C_17
REMARK    7  A    between atoms: C_21  and  C_24
REMARK    8  A    between atoms: C_21  and  C_35
REMARK    9  A    between atoms: C_25  and  O_33
REMARK                            x       y       z     vdW  Elec       q    Type
REMARK                         _______ _______ _______ _____ _____    ______ ____
ROOT
ATOM      1  C   UNL     1      34.773 -20.203 -20.809  0.00  0.00    -0.017 C 
ATOM      2  C   UNL     1      35.155 -21.148 -19.858  0.00  0.00    +0.011 C 
ATOM      3  C   UNL     1      33.423 -19.895 -20.984  0.00  0.00    -0.004 C 
ATOM      4  C   UNL     1      34.188 -21.786 -19.080  0.00  0.00    +0.050 C 
ATOM      5  C   UNL     1      32.456 -20.534 -20.208  0.00  0.00    +0.001 C 
ATOM      6  C   UNL     1      32.838 -21.478 -19.256  0.00  0.00    +0.015 C 
ENDROOT
BRANCH   4   8
ATOM      7  O   UNL     1      36.396 -21.719 -17.044  0.00  0.00    -0.273 OA
ATOM      8  N   UNL     1      34.569 -22.732 -18.129  0.00  0.00    -0.283 N 
ATOM      9  C   UNL     1      35.615 -22.653 -17.195  0.00  0.00    +0.246 C 
ATOM     10  H   UNL     1      34.036 -23.560 -18.109  0.00  0.00    +0.155 HD
BRANCH   9  11
ATOM     11  C   UNL     1      35.680 -23.909 -16.345  0.00  0.00    +0.179 C 
BRANCH  11  13
ATOM     12  O   UNL     1      37.197 -25.894 -14.863  0.00  0.00    -0.226 OA
ATOM     13  N   UNL     1      36.526 -23.698 -15.207  0.00  0.00    -0.262 N 
ATOM     14  C   UNL     1      37.218 -24.707 -14.555  0.00  0.00    +0.402 C 
ATOM     15  H   UNL     1      36.622 -22.779 -14.866  0.00  0.00    +0.153 HD
BRANCH  14  16
ATOM     16  O   UNL     1      37.933 -24.187 -13.513  0.00  0.00    -0.442 OA
BRANCH  16  17
ATOM     17  C   UNL     1      37.442 -24.497 -12.204  0.00  0.00    +0.138 C 
ATOM     18  C   UNL     1      35.920 -24.361 -12.211  0.00  0.00    +0.044 C 
ATOM     19  C   UNL     1      38.067 -23.498 -11.231  0.00  0.00    +0.044 C 
ATOM     20  C   UNL     1      37.861 -25.924 -11.853  0.00  0.00    +0.044 C 
ENDBRANCH  16  17
ENDBRANCH  14  16
ENDBRANCH  11  13
ENDBRANCH   9  11
ENDBRANCH   4   8
BRANCH   1  21
ATOM     21  C   UNL     1      35.825 -19.508 -21.654  0.00  0.00    +0.054 C 
BRANCH  21  24
ATOM     22  O   UNL     1      34.610 -15.927 -21.817  0.00  0.00    -0.421 OA
ATOM     23  O   UNL     1      35.435 -17.218 -20.136  0.00  0.00    -0.245 OA
ATOM     24  C   UNL     1      35.275 -18.253 -22.275  0.00  0.00    +0.091 A 
ATOM     25  C   UNL     1      34.928 -18.104 -23.567  0.00  0.00    +0.139 A 
ATOM     26  C   UNL     1      35.122 -17.117 -21.319  0.00  0.00    +0.345 A 
ATOM     27  C   UNL     1      34.390 -16.834 -24.061  0.00  0.00    +0.068 A 
ATOM     28  C   UNL     1      34.246 -15.779 -23.166  0.00  0.00    +0.152 A 
ATOM     29  C   UNL     1      34.009 -16.620 -25.393  0.00  0.00    +0.006 C 
ATOM     30  C   UNL     1      33.741 -14.536 -23.555  0.00  0.00    +0.038 C 
ATOM     31  C   UNL     1      33.502 -15.381 -25.799  0.00  0.00    +0.000 C 
ATOM     32  C   UNL     1      33.367 -14.341 -24.880  0.00  0.00    +0.003 C 
BRANCH  25  33
ATOM     33  O   UNL     1      35.038 -19.089 -24.526  0.00  0.00    -0.506 OA
ATOM     34  H   UNL     1      34.665 -18.961 -25.375  0.00  0.00    +0.292 HD
ENDBRANCH  25  33
ENDBRANCH  21  24
BRANCH  21  35
ATOM     35  C   UNL     1      37.124 -19.189 -20.886  0.00  0.00    +0.009 C 
ATOM     36  C   UNL     1      38.277 -18.797 -21.805  0.00  0.00    +0.001 C 
ENDBRANCH  21  35
ENDBRANCH   1  21
TORSDOF 9
ENDMDL
MODEL 6
REMARK VINA RESULT:      -9.1      3.299      5.680
REMARK  Name = 54689025
REMARK  9 active torsions:
REMARK  status: ('A' for Active; 'I' for Inactive)
REMARK    1  A    between atoms: C_1  and  C_21
REMARK    2  A    between atoms: C_4  and  N_8
REMARK    3  A    between atoms: C_9  and  C_11
REMARK    4  A    between atoms: C_11  and  N_13
REMARK    5  A    between atoms: C_14  and  O_16
REMARK    6  A    between atoms: O_16  and  C_17
REMARK    7  A    between atoms: C_21  and  C_24
REMARK    8  A    between atoms: C_21  and  C_35
REMARK    9  A    between atoms: C_25  and  O_33
REMARK                            x       y       z     vdW  Elec       q    Type
REMARK                         _______ _______ _______ _____ _____    ______ ____
ROOT
ATOM      1  C   UNL     1      33.193 -12.920 -22.449  0.00  0.00    -0.017 C 
ATOM      2  C   UNL     1      32.966 -11.589 -22.098  0.00  0.00    +0.011 C 
ATOM      3  C   UNL     1      32.535 -13.943 -21.766  0.00  0.00    -0.004 C 
ATOM      4  C   UNL     1      32.080 -11.281 -21.066  0.00  0.00    +0.050 C 
ATOM      5  C   UNL     1      31.650 -13.635 -20.733  0.00  0.00    +0.001 C 
ATOM      6  C   UNL     1      31.422 -12.305 -20.383  0.00  0.00    +0.015 C 
ENDROOT
BRANCH   4   8
ATOM      7  O   UNL     1      32.467  -9.867 -18.443  0.00  0.00    -0.273 OA
ATOM      8  N   UNL     1      31.853  -9.950 -20.714  0.00  0.00    -0.283 N 
ATOM      9  C   UNL     1      32.050  -9.335 -19.468  0.00  0.00    +0.246 C 
ATOM     10  H   UNL     1      31.512  -9.368 -21.432  0.00  0.00    +0.155 HD
BRANCH   9  11
ATOM     11  C   UNL     1      31.677  -7.864 -19.523  0.00  0.00    +0.179 C 
BRANCH  11  13
ATOM     12  O   UNL     1      30.537  -5.843 -21.270  0.00  0.00    -0.226 OA
ATOM     13  N   UNL     1      32.290  -7.235 -20.656  0.00  0.00    -0.262 N 
ATOM     14  C   UNL     1      31.673  -6.275 -21.440  0.00  0.00    +0.402 C 
ATOM     15  H   UNL     1      33.208  -7.503 -20.892  0.00  0.00    +0.153 HD
BRANCH  14  16
ATOM     16  O   UNL     1      32.515  -5.873 -22.438  0.00  0.00    -0.442 OA
BRANCH  16  17
ATOM     17  C   UNL     1      32.576  -6.728 -23.585  0.00  0.00    +0.138 C 
ATOM     18  C   UNL     1      33.727  -7.715 -23.395  0.00  0.00    +0.044 C 
ATOM     19  C   UNL     1      32.822  -5.843 -24.806  0.00  0.00    +0.044 C 
ATOM     20  C   UNL     1      31.243  -7.464 -23.714  0.00  0.00    +0.044 C 
ENDBRANCH  16  17
ENDBRANCH  14  16
ENDBRANCH  11  13
ENDBRANCH   9  11
ENDBRANCH   4   8
BRANCH   1  21
ATOM     21  C   UNL     1      34.157 -13.255 -23.573  0.00  0.00    +0.054 C 
BRANCH  21  24
ATOM     22  O   UNL     1      33.713 -16.590 -25.308  0.00  0.00    -0.421 OA
ATOM     23  O   UNL     1      33.168 -14.455 -25.872  0.00  0.00    -0.245 OA
ATOM     24  C   UNL     1      34.253 -14.743 -23.772  0.00  0.00    +0.091 A 
ATOM     25  C   UNL     1      34.802 -15.616 -22.906  0.00  0.00    +0.139 A 
ATOM     26  C   UNL     1      33.669 -15.225 -25.058  0.00  0.00    +0.345 A 
ATOM     27  C   UNL     1      34.832 -17.050 -23.201  0.00  0.00    +0.068 A 
ATOM     28  C   UNL     1      34.284 -17.496 -24.399  0.00  0.00    +0.152 A 
ATOM     29  C   UNL     1      35.386 -18.006 -22.338  0.00  0.00    +0.006 C 
ATOM     30  C   UNL     1      34.271 -18.846 -24.755  0.00  0.00    +0.038 C 
ATOM     31  C   UNL     1      35.382 -19.363 -22.681  0.00  0.00    +0.000 C 
ATOM     32  C   UNL     1      34.824 -19.782 -23.887  0.00  0.00    +0.003 C 
BRANCH  25  33
ATOM     33  O   UNL     1      35.372 -15.268 -21.700  0.00  0.00    -0.506 OA
ATOM     34  H   UNL     1      36.241 -14.918 -21.675  0.00  0.00    +0.292 HD
ENDBRANCH  25  33
ENDBRANCH  21  24
BRANCH  21  35
ATOM     35  C   UNL     1      33.811 -12.567 -24.910  0.00  0.00    +0.009 C 
ATOM     36  C   UNL     1      34.626 -11.301 -25.155  0.00  0.00    +0.001 C 
ENDBRANCH  21  35
ENDBRANCH   1  21
TORSDOF 9
ENDMDL
MODEL 7
REMARK VINA RESULT:      -8.9      5.438     10.074
REMARK  Name = 54689025
REMARK  9 active torsions:
REMARK  status: ('A' for Active; 'I' for Inactive)
REMARK    1  A    between atoms: C_1  and  C_21
REMARK    2  A    between atoms: C_4  and  N_8
REMARK    3  A    between atoms: C_9  and  C_11
REMARK    4  A    between atoms: C_11  and  N_13
REMARK    5  A    between atoms: C_14  and  O_16
REMARK    6  A    between atoms: O_16  and  C_17
REMARK    7  A    between atoms: C_21  and  C_24
REMARK    8  A    between atoms: C_21  and  C_35
REMARK    9  A    between atoms: C_25  and  O_33
REMARK                            x       y       z     vdW  Elec       q    Type
REMARK                         _______ _______ _______ _____ _____    ______ ____
ROOT
ATOM      1  C   UNL     1      33.112 -24.400 -15.309  0.00  0.00    -0.017 C 
ATOM      2  C   UNL     1      34.082 -24.021 -16.236  0.00  0.00    +0.011 C 
ATOM      3  C   UNL     1      31.813 -23.902 -15.416  0.00  0.00    -0.004 C 
ATOM      4  C   UNL     1      33.755 -23.144 -17.270  0.00  0.00    +0.050 C 
ATOM      5  C   UNL     1      31.486 -23.024 -16.449  0.00  0.00    +0.001 C 
ATOM      6  C   UNL     1      32.456 -22.646 -17.376  0.00  0.00    +0.015 C 
ENDROOT
BRANCH   4   8
ATOM      7  O   UNL     1      36.458 -21.898 -16.858  0.00  0.00    -0.273 OA
ATOM      8  N   UNL     1      34.726 -22.764 -18.197  0.00  0.00    -0.283 N 
ATOM      9  C   UNL     1      35.980 -22.182 -17.952  0.00  0.00    +0.246 C 
ATOM     10  H   UNL     1      34.504 -22.926 -19.143  0.00  0.00    +0.155 HD
BRANCH   9  11
ATOM     11  C   UNL     1      36.724 -21.929 -19.251  0.00  0.00    +0.179 C 
BRANCH  11  13
ATOM     12  O   UNL     1      34.274 -21.048 -20.540  0.00  0.00    -0.226 OA
ATOM     13  N   UNL     1      36.418 -20.622 -19.756  0.00  0.00    -0.262 N 
ATOM     14  C   UNL     1      35.218 -20.285 -20.361  0.00  0.00    +0.402 C 
ATOM     15  H   UNL     1      37.103 -19.921 -19.668  0.00  0.00    +0.153 HD
BRANCH  14  16
ATOM     16  O   UNL     1      35.234 -18.969 -20.732  0.00  0.00    -0.442 OA
BRANCH  16  17
ATOM     17  C   UNL     1      35.730 -18.699 -22.047  0.00  0.00    +0.138 C 
ATOM     18  C   UNL     1      37.250 -18.856 -22.036  0.00  0.00    +0.044 C 
ATOM     19  C   UNL     1      35.341 -17.264 -22.399  0.00  0.00    +0.044 C 
ATOM     20  C   UNL     1      35.088 -19.685 -23.022  0.00  0.00    +0.044 C 
ENDBRANCH  16  17
ENDBRANCH  14  16
ENDBRANCH  11  13
ENDBRANCH   9  11
ENDBRANCH   4   8
BRANCH   1  21
ATOM     21  C   UNL     1      33.468 -25.355 -14.184  0.00  0.00    +0.054 C 
BRANCH  21  24
ATOM     22  O   UNL     1      36.610 -24.264 -12.376  0.00  0.00    -0.421 OA
ATOM     23  O   UNL     1      34.405 -23.774 -12.104  0.00  0.00    -0.245 OA
ATOM     24  C   UNL     1      34.937 -25.286 -13.865  0.00  0.00    +0.091 A 
ATOM     25  C   UNL     1      35.913 -25.948 -14.516  0.00  0.00    +0.139 A 
ATOM     26  C   UNL     1      35.271 -24.387 -12.722  0.00  0.00    +0.345 A 
ATOM     27  C   UNL     1      37.315 -25.796 -14.125  0.00  0.00    +0.068 A 
ATOM     28  C   UNL     1      37.624 -24.954 -13.061  0.00  0.00    +0.152 A 
ATOM     29  C   UNL     1      38.374 -26.455 -14.766  0.00  0.00    +0.006 C 
ATOM     30  C   UNL     1      38.935 -24.754 -12.625  0.00  0.00    +0.038 C 
ATOM     31  C   UNL     1      39.694 -26.266 -14.341  0.00  0.00    +0.000 C 
ATOM     32  C   UNL     1      39.973 -25.415 -13.273  0.00  0.00    +0.003 C 
BRANCH  25  33
ATOM     33  O   UNL     1      35.704 -26.805 -15.576  0.00  0.00    -0.506 OA
ATOM     34  H   UNL     1      35.537 -26.461 -16.431  0.00  0.00    +0.292 HD
ENDBRANCH  25  33
ENDBRANCH  21  24
BRANCH  21  35
ATOM     35  C   UNL     1      32.641 -25.135 -12.900  0.00  0.00    +0.009 C 
ATOM     36  C   UNL     1      31.191 -25.585 -13.043  0.00  0.00    +0.001 C 
ENDBRANCH  21  35
ENDBRANCH   1  21
TORSDOF 9
ENDMDL
MODEL 8
REMARK VINA RESULT:      -8.8      2.700     10.932
REMARK  Name = 54689025
REMARK  9 active torsions:
REMARK  status: ('A' for Active; 'I' for Inactive)
REMARK    1  A    between atoms: C_1  and  C_21
REMARK    2  A    between atoms: C_4  and  N_8
REMARK    3  A    between atoms: C_9  and  C_11
REMARK    4  A    between atoms: C_11  and  N_13
REMARK    5  A    between atoms: C_14  and  O_16
REMARK    6  A    between atoms: O_16  and  C_17
REMARK    7  A    between atoms: C_21  and  C_24
REMARK    8  A    between atoms: C_21  and  C_35
REMARK    9  A    between atoms: C_25  and  O_33
REMARK                            x       y       z     vdW  Elec       q    Type
REMARK                         _______ _______ _______ _____ _____    ______ ____
ROOT
ATOM      1  C   UNL     1      32.979 -10.992 -22.510  0.00  0.00    -0.017 C 
ATOM      2  C   UNL     1      32.953 -12.351 -22.821  0.00  0.00    +0.011 C 
ATOM      3  C   UNL     1      33.791 -10.124 -23.241  0.00  0.00    -0.004 C 
ATOM      4  C   UNL     1      33.737 -12.843 -23.865  0.00  0.00    +0.050 C 
ATOM      5  C   UNL     1      34.575 -10.616 -24.284  0.00  0.00    +0.001 C 
ATOM      6  C   UNL     1      34.548 -11.975 -24.596  0.00  0.00    +0.015 C 
ENDROOT
BRANCH   4   8
ATOM      7  O   UNL     1      33.050 -14.238 -26.435  0.00  0.00    -0.273 OA
ATOM      8  N   UNL     1      33.711 -14.203 -24.177  0.00  0.00    -0.283 N 
ATOM      9  C   UNL     1      33.381 -14.807 -25.400  0.00  0.00    +0.246 C 
ATOM     10  H   UNL     1      33.958 -14.816 -23.446  0.00  0.00    +0.155 HD
BRANCH   9  11
ATOM     11  C   UNL     1      33.485 -16.319 -25.304  0.00  0.00    +0.179 C 
BRANCH  11  13
ATOM     12  O   UNL     1      34.185 -18.986 -24.389  0.00  0.00    -0.226 OA
ATOM     13  N   UNL     1      34.540 -16.691 -24.407  0.00  0.00    -0.262 N 
ATOM     14  C   UNL     1      34.807 -17.994 -24.020  0.00  0.00    +0.402 C 
ATOM     15  H   UNL     1      35.110 -15.976 -24.043  0.00  0.00    +0.153 HD
BRANCH  14  16
ATOM     16  O   UNL     1      35.871 -18.020 -23.163  0.00  0.00    -0.442 OA
BRANCH  16  17
ATOM     17  C   UNL     1      35.593 -18.489 -21.839  0.00  0.00    +0.138 C 
ATOM     18  C   UNL     1      34.920 -17.364 -21.055  0.00  0.00    +0.044 C 
ATOM     19  C   UNL     1      36.927 -18.869 -21.197  0.00  0.00    +0.044 C 
ATOM     20  C   UNL     1      34.677 -19.709 -21.938  0.00  0.00    +0.044 C 
ENDBRANCH  16  17
ENDBRANCH  14  16
ENDBRANCH  11  13
ENDBRANCH   9  11
ENDBRANCH   4   8
BRANCH   1  21
ATOM     21  C   UNL     1      32.125 -10.457 -21.374  0.00  0.00    +0.054 C 
BRANCH  21  24
ATOM     22  O   UNL     1      32.270  -6.836 -20.277  0.00  0.00    -0.421 OA
ATOM     23  O   UNL     1      32.847  -8.794 -19.273  0.00  0.00    -0.245 OA
ATOM     24  C   UNL     1      31.967  -8.964 -21.478  0.00  0.00    +0.091 A 
ATOM     25  C   UNL     1      31.483  -8.299 -22.545  0.00  0.00    +0.139 A 
ATOM     26  C   UNL     1      32.397  -8.219 -20.259  0.00  0.00    +0.345 A 
ATOM     27  C   UNL     1      31.363  -6.840 -22.532  0.00  0.00    +0.068 A 
ATOM     28  C   UNL     1      31.762  -6.149 -21.392  0.00  0.00    +0.152 A 
ATOM     29  C   UNL     1      30.865  -6.094 -23.609  0.00  0.00    +0.006 C 
ATOM     30  C   UNL     1      31.679  -4.758 -21.297  0.00  0.00    +0.038 C 
ATOM     31  C   UNL     1      30.777  -4.699 -23.530  0.00  0.00    +0.000 C 
ATOM     32  C   UNL     1      31.182  -4.034 -22.375  0.00  0.00    +0.003 C 
BRANCH  25  33
ATOM     33  O   UNL     1      31.069  -8.896 -23.717  0.00  0.00    -0.506 OA
ATOM     34  H   UNL     1      31.158  -9.822 -23.829  0.00  0.00    +0.292 HD
ENDBRANCH  25  33
ENDBRANCH  21  24
BRANCH  21  35
ATOM     35  C   UNL     1      30.739 -11.126 -21.273  0.00  0.00    +0.009 C 
ATOM     36  C   UNL     1      30.380 -11.535 -19.848  0.00  0.00    +0.001 C 
ENDBRANCH  21  35
ENDBRANCH   1  21
TORSDOF 9
ENDMDL
MODEL 9
REMARK VINA RESULT:      -8.7      3.482      6.663
REMARK  Name = 54689025
REMARK  9 active torsions:
REMARK  status: ('A' for Active; 'I' for Inactive)
REMARK    1  A    between atoms: C_1  and  C_21
REMARK    2  A    between atoms: C_4  and  N_8
REMARK    3  A    between atoms: C_9  and  C_11
REMARK    4  A    between atoms: C_11  and  N_13
REMARK    5  A    between atoms: C_14  and  O_16
REMARK    6  A    between atoms: O_16  and  C_17
REMARK    7  A    between atoms: C_21  and  C_24
REMARK    8  A    between atoms: C_21  and  C_35
REMARK    9  A    between atoms: C_25  and  O_33
REMARK                            x       y       z     vdW  Elec       q    Type
REMARK                         _______ _______ _______ _____ _____    ______ ____
ROOT
ATOM      1  C   UNL     1      32.961 -11.536 -22.756  0.00  0.00    -0.017 C 
ATOM      2  C   UNL     1      32.558 -10.277 -22.313  0.00  0.00    +0.011 C 
ATOM      3  C   UNL     1      34.075 -11.661 -23.586  0.00  0.00    -0.004 C 
ATOM      4  C   UNL     1      33.270  -9.141 -22.699  0.00  0.00    +0.050 C 
ATOM      5  C   UNL     1      34.787 -10.525 -23.973  0.00  0.00    +0.001 C 
ATOM      6  C   UNL     1      34.385  -9.266 -23.529  0.00  0.00    +0.015 C 
ENDROOT
BRANCH   4   8
ATOM      7  O   UNL     1      33.050  -8.033 -19.915  0.00  0.00    -0.273 OA
ATOM      8  N   UNL     1      32.868  -7.880 -22.257  0.00  0.00    -0.283 N 
ATOM      9  C   UNL     1      32.781  -7.409 -20.937  0.00  0.00    +0.246 C 
ATOM     10  H   UNL     1      32.614  -7.239 -22.960  0.00  0.00    +0.155 HD
BRANCH   9  11
ATOM     11  C   UNL     1      32.297  -5.971 -20.905  0.00  0.00    +0.179 C 
BRANCH  11  13
ATOM     12  O   UNL     1      29.942  -4.476 -21.717  0.00  0.00    -0.226 OA
ATOM     13  N   UNL     1      31.947  -5.532 -22.224  0.00  0.00    -0.262 N 
ATOM     14  C   UNL     1      30.798  -4.819 -22.526  0.00  0.00    +0.402 C 
ATOM     15  H   UNL     1      32.562  -5.750 -22.961  0.00  0.00    +0.153 HD
BRANCH  14  16
ATOM     16  O   UNL     1      30.752  -4.550 -23.865  0.00  0.00    -0.442 OA
BRANCH  16  17
ATOM     17  C   UNL     1      31.188  -3.243 -24.254  0.00  0.00    +0.138 C 
ATOM     18  C   UNL     1      30.022  -2.520 -24.926  0.00  0.00    +0.044 C 
ATOM     19  C   UNL     1      32.349  -3.418 -25.232  0.00  0.00    +0.044 C 
ATOM     20  C   UNL     1      31.647  -2.492 -23.005  0.00  0.00    +0.044 C 
ENDBRANCH  16  17
ENDBRANCH  14  16
ENDBRANCH  11  13
ENDBRANCH   9  11
ENDBRANCH   4   8
BRANCH   1  21
ATOM     21  C   UNL     1      32.187 -12.772 -22.335  0.00  0.00    +0.054 C 
BRANCH  21  24
ATOM     22  O   UNL     1      33.811 -15.583 -24.282  0.00  0.00    -0.421 OA
ATOM     23  O   UNL     1      32.545 -13.794 -24.890  0.00  0.00    -0.245 OA
ATOM     24  C   UNL     1      32.998 -14.019 -22.563  0.00  0.00    +0.091 A 
ATOM     25  C   UNL     1      33.610 -14.742 -21.607  0.00  0.00    +0.139 A 
ATOM     26  C   UNL     1      33.086 -14.434 -23.994  0.00  0.00    +0.345 A 
ATOM     27  C   UNL     1      34.367 -15.949 -21.945  0.00  0.00    +0.068 A 
ATOM     28  C   UNL     1      34.445 -16.336 -23.279  0.00  0.00    +0.152 A 
ATOM     29  C   UNL     1      35.022 -16.744 -20.994  0.00  0.00    +0.006 C 
ATOM     30  C   UNL     1      35.145 -17.473 -23.686  0.00  0.00    +0.038 C 
ATOM     31  C   UNL     1      35.729 -17.887 -21.385  0.00  0.00    +0.000 C 
ATOM     32  C   UNL     1      35.789 -18.251 -22.729  0.00  0.00    +0.003 C 
BRANCH  25  33
ATOM     33  O   UNL     1      33.592 -14.436 -20.262  0.00  0.00    -0.506 OA
ATOM     34  H   UNL     1      32.782 -14.432 -19.793  0.00  0.00    +0.292 HD
ENDBRANCH  25  33
ENDBRANCH  21  24
BRANCH  21  35
ATOM     35  C   UNL     1      31.695 -12.727 -20.873  0.00  0.00    +0.009 C 
ATOM     36  C   UNL     1      30.485 -11.818 -20.681  0.00  0.00    +0.001 C 
ENDBRANCH  21  35
ENDBRANCH   1  21
TORSDOF 9
ENDMDL
