MODEL 1
REMARK VINA RESULT:     -11.7      0.000      0.000
REMARK  Name = 24875320
REMARK  6 active torsions:
REMARK  status: ('A' for Active; 'I' for Inactive)
REMARK    1  A    between atoms: C_1  and  N_22
REMARK    2  A    between atoms: C_3  and  C_10
REMARK    3  A    between atoms: N_9  and  C_12
REMARK    4  A    between atoms: C_14  and  C_21
REMARK    5  A    between atoms: N_22  and  C_25
REMARK    6  A    between atoms: C_28  and  C_32
REMARK                            x       y       z     vdW  Elec       q    Type
REMARK                         _______ _______ _______ _____ _____    ______ ____
ROOT
ATOM      1  C   UNL     1      34.920 -23.260 -16.895  0.00  0.00    +0.044 C 
ATOM      2  C   UNL     1      36.250 -23.056 -16.528  0.00  0.00    -0.008 C 
ATOM      3  C   UNL     1      35.191 -21.712 -18.731  0.00  0.00    +0.055 C 
ATOM      4  C   UNL     1      34.391 -22.587 -17.996  0.00  0.00    +0.019 C 
ATOM      5  C   UNL     1      37.051 -22.181 -17.262  0.00  0.00    -0.003 C 
ATOM      6  C   UNL     1      36.521 -21.509 -18.363  0.00  0.00    +0.004 C 
ATOM      7  C   UNL     1      36.844 -23.764 -15.353  0.00  0.00    +0.032 C 
ENDROOT
BRANCH   3  10
ATOM      8  O   UNL     1      33.503 -21.311 -20.280  0.00  0.00    -0.270 OA
ATOM      9  N   UNL     1      35.468 -20.043 -20.461  0.00  0.00    -0.280 N 
ATOM     10  C   UNL     1      34.638 -21.010 -19.878  0.00  0.00    +0.250 C 
ATOM     11  H   UNL     1      36.344 -19.913 -20.030  0.00  0.00    +0.155 HD
BRANCH   9  12
ATOM     12  C   UNL     1      35.212 -19.226 -21.591  0.00  0.00    +0.050 C 
ATOM     13  C   UNL     1      35.006 -17.856 -21.430  0.00  0.00    +0.019 C 
ATOM     14  C   UNL     1      34.754 -17.053 -22.542  0.00  0.00    +0.073 C 
ATOM     15  C   UNL     1      35.165 -19.793 -22.864  0.00  0.00    +0.015 C 
ATOM     16  C   UNL     1      34.707 -17.621 -23.816  0.00  0.00    +0.004 C 
ATOM     17  C   UNL     1      34.913 -18.990 -23.976  0.00  0.00    +0.001 C 
BRANCH  14  21
ATOM     18  F   UNL     1      33.241 -15.201 -22.572  0.00  0.00    -0.166 F 
ATOM     19  F   UNL     1      34.853 -15.130 -21.124  0.00  0.00    -0.166 F 
ATOM     20  F   UNL     1      35.279 -14.841 -23.237  0.00  0.00    -0.166 F 
ATOM     21  C   UNL     1      34.534 -15.588 -22.371  0.00  0.00    +0.419 C 
ENDBRANCH  14  21
ENDBRANCH   9  12
ENDBRANCH   3  10
BRANCH   1  22
ATOM     22  N   UNL     1      34.096 -24.142 -16.164  0.00  0.00    -0.312 N 
ATOM     23  H   UNL     1      34.332 -25.091 -16.277  0.00  0.00    +0.152 HD
BRANCH  22  25
ATOM     24  N   UNL     1      32.114 -23.922 -13.056  0.00  0.00    -0.241 NA
ATOM     25  C   UNL     1      33.001 -23.931 -15.304  0.00  0.00    +0.068 C 
ATOM     26  C   UNL     1      31.764 -23.537 -15.802  0.00  0.00    +0.022 C 
ATOM     27  C   UNL     1      33.123 -24.108 -13.935  0.00  0.00    +0.113 C 
ATOM     28  C   UNL     1      30.702 -23.335 -14.928  0.00  0.00    +0.073 C 
ATOM     29  C   UNL     1      30.926 -23.540 -13.576  0.00  0.00    +0.103 C 
BRANCH  28  32
ATOM     30  O   UNL     1      28.600 -22.298 -14.695  0.00  0.00    -0.270 OA
ATOM     31  N   UNL     1      29.069 -23.238 -16.734  0.00  0.00    -0.325 N 
ATOM     32  C   UNL     1      29.398 -22.924 -15.417  0.00  0.00    +0.244 C 
ATOM     33  H   UNL     1      28.193 -22.974 -17.099  0.00  0.00    +0.145 HD
ATOM     34  H   UNL     1      29.713 -23.721 -17.300  0.00  0.00    +0.145 HD
ENDBRANCH  28  32
ENDBRANCH  22  25
ENDBRANCH   1  22
TORSDOF 6
ENDMDL
MODEL 2
REMARK VINA RESULT:     -11.2      2.937      5.045
REMARK  Name = 24875320
REMARK  6 active torsions:
REMARK  status: ('A' for Active; 'I' for Inactive)
REMARK    1  A    between atoms: C_1  and  N_22
REMARK    2  A    between atoms: C_3  and  C_10
REMARK    3  A    between atoms: N_9  and  C_12
REMARK    4  A    between atoms: C_14  and  C_21
REMARK    5  A    between atoms: N_22  and  C_25
REMARK    6  A    between atoms: C_28  and  C_32
REMARK                            x       y       z     vdW  Elec       q    Type
REMARK                         _______ _______ _______ _____ _____    ______ ____
ROOT
ATOM      1  C   UNL     1      35.175 -23.201 -16.230  0.00  0.00    +0.044 C 
ATOM      2  C   UNL     1      33.826 -23.551 -16.183  0.00  0.00    -0.008 C 
ATOM      3  C   UNL     1      34.825 -22.143 -18.374  0.00  0.00    +0.055 C 
ATOM      4  C   UNL     1      35.675 -22.498 -17.326  0.00  0.00    +0.019 C 
ATOM      5  C   UNL     1      32.976 -23.196 -17.230  0.00  0.00    -0.003 C 
ATOM      6  C   UNL     1      33.475 -22.493 -18.326  0.00  0.00    +0.004 C 
ATOM      7  C   UNL     1      33.264 -24.304 -15.021  0.00  0.00    +0.032 C 
ENDROOT
BRANCH   3  10
ATOM      8  O   UNL     1      36.504 -21.637 -19.902  0.00  0.00    -0.270 OA
ATOM      9  N   UNL     1      34.477 -20.470 -20.088  0.00  0.00    -0.280 N 
ATOM     10  C   UNL     1      35.346 -21.410 -19.517  0.00  0.00    +0.250 C 
ATOM     11  H   UNL     1      33.586 -20.402 -19.674  0.00  0.00    +0.155 HD
BRANCH   9  12
ATOM     12  C   UNL     1      34.714 -19.602 -21.183  0.00  0.00    +0.050 C 
ATOM     13  C   UNL     1      34.551 -18.225 -21.030  0.00  0.00    +0.019 C 
ATOM     14  C   UNL     1      34.784 -17.371 -22.108  0.00  0.00    +0.073 C 
ATOM     15  C   UNL     1      35.110 -20.125 -22.414  0.00  0.00    +0.015 C 
ATOM     16  C   UNL     1      35.180 -17.894 -23.339  0.00  0.00    +0.004 C 
ATOM     17  C   UNL     1      35.343 -19.271 -23.491  0.00  0.00    +0.001 C 
BRANCH  14  21
ATOM     18  F   UNL     1      33.321 -15.478 -22.106  0.00  0.00    -0.166 F 
ATOM     19  F   UNL     1      34.985 -15.437 -20.716  0.00  0.00    -0.166 F 
ATOM     20  F   UNL     1      35.343 -15.181 -22.846  0.00  0.00    -0.166 F 
ATOM     21  C   UNL     1      34.610 -15.899 -21.945  0.00  0.00    +0.419 C 
ENDBRANCH  14  21
ENDBRANCH   9  12
ENDBRANCH   3  10
BRANCH   1  22
ATOM     22  N   UNL     1      36.050 -23.551 -15.178  0.00  0.00    -0.312 N 
ATOM     23  H   UNL     1      36.181 -22.834 -14.517  0.00  0.00    +0.152 HD
BRANCH  22  25
ATOM     24  N   UNL     1      36.763 -27.112 -14.511  0.00  0.00    -0.241 NA
ATOM     25  C   UNL     1      36.771 -24.725 -14.890  0.00  0.00    +0.068 C 
ATOM     26  C   UNL     1      38.148 -24.692 -14.703  0.00  0.00    +0.022 C 
ATOM     27  C   UNL     1      36.131 -25.949 -14.784  0.00  0.00    +0.113 C 
ATOM     28  C   UNL     1      38.834 -25.869 -14.421  0.00  0.00    +0.073 C 
ATOM     29  C   UNL     1      38.102 -27.042 -14.335  0.00  0.00    +0.103 C 
BRANCH  28  32
ATOM     30  O   UNL     1      40.967 -24.872 -14.492  0.00  0.00    -0.270 OA
ATOM     31  N   UNL     1      40.855 -27.018 -13.691  0.00  0.00    -0.325 N 
ATOM     32  C   UNL     1      40.272 -25.868 -14.220  0.00  0.00    +0.244 C 
ATOM     33  H   UNL     1      41.827 -27.053 -13.541  0.00  0.00    +0.145 HD
ATOM     34  H   UNL     1      40.294 -27.795 -13.467  0.00  0.00    +0.145 HD
ENDBRANCH  28  32
ENDBRANCH  22  25
ENDBRANCH   1  22
TORSDOF 6
ENDMDL
MODEL 3
REMARK VINA RESULT:     -11.1      3.526      5.351
REMARK  Name = 24875320
REMARK  6 active torsions:
REMARK  status: ('A' for Active; 'I' for Inactive)
REMARK    1  A    between atoms: C_1  and  N_22
REMARK    2  A    between atoms: C_3  and  C_10
REMARK    3  A    between atoms: N_9  and  C_12
REMARK    4  A    between atoms: C_14  and  C_21
REMARK    5  A    between atoms: N_22  and  C_25
REMARK    6  A    between atoms: C_28  and  C_32
REMARK                            x       y       z     vdW  Elec       q    Type
REMARK                         _______ _______ _______ _____ _____    ______ ____
ROOT
ATOM      1  C   UNL     1      34.709 -23.413 -15.061  0.00  0.00    +0.044 C 
ATOM      2  C   UNL     1      33.410 -23.847 -15.328  0.00  0.00    -0.008 C 
ATOM      3  C   UNL     1      34.922 -22.651 -17.344  0.00  0.00    +0.055 C 
ATOM      4  C   UNL     1      35.465 -22.816 -16.070  0.00  0.00    +0.019 C 
ATOM      5  C   UNL     1      32.867 -23.683 -16.602  0.00  0.00    -0.003 C 
ATOM      6  C   UNL     1      33.623 -23.086 -17.610  0.00  0.00    +0.004 C 
ATOM      7  C   UNL     1      32.577 -24.489 -14.266  0.00  0.00    +0.032 C 
ENDROOT
BRANCH   3  10
ATOM      8  O   UNL     1      36.930 -22.258 -18.451  0.00  0.00    -0.270 OA
ATOM      9  N   UNL     1      35.010 -21.185 -19.268  0.00  0.00    -0.280 N 
ATOM     10  C   UNL     1      35.710 -22.030 -18.396  0.00  0.00    +0.250 C 
ATOM     11  H   UNL     1      34.043 -21.103 -19.100  0.00  0.00    +0.155 HD
BRANCH   9  12
ATOM     12  C   UNL     1      35.510 -20.433 -20.360  0.00  0.00    +0.050 C 
ATOM     13  C   UNL     1      34.802 -20.390 -21.561  0.00  0.00    +0.019 C 
ATOM     14  C   UNL     1      35.296 -19.650 -22.635  0.00  0.00    +0.073 C 
ATOM     15  C   UNL     1      36.712 -19.736 -20.233  0.00  0.00    +0.015 C 
ATOM     16  C   UNL     1      36.498 -18.953 -22.508  0.00  0.00    +0.004 C 
ATOM     17  C   UNL     1      37.205 -18.996 -21.307  0.00  0.00    +0.001 C 
BRANCH  14  21
ATOM     18  F   UNL     1      33.194 -19.778 -23.770  0.00  0.00    -0.166 F 
ATOM     19  F   UNL     1      34.674 -18.421 -24.590  0.00  0.00    -0.166 F 
ATOM     20  F   UNL     1      34.938 -20.570 -24.798  0.00  0.00    -0.166 F 
ATOM     21  C   UNL     1      34.540 -19.604 -23.920  0.00  0.00    +0.419 C 
ENDBRANCH  14  21
ENDBRANCH   9  12
ENDBRANCH   3  10
BRANCH   1  22
ATOM     22  N   UNL     1      35.274 -23.570 -13.777  0.00  0.00    -0.312 N 
ATOM     23  H   UNL     1      34.982 -22.888 -13.129  0.00  0.00    +0.152 HD
BRANCH  22  25
ATOM     24  N   UNL     1      36.701 -26.101 -11.498  0.00  0.00    -0.241 NA
ATOM     25  C   UNL     1      36.172 -24.511 -13.240  0.00  0.00    +0.068 C 
ATOM     26  C   UNL     1      37.378 -24.792 -13.873  0.00  0.00    +0.022 C 
ATOM     27  C   UNL     1      35.884 -25.187 -12.066  0.00  0.00    +0.113 C 
ATOM     28  C   UNL     1      38.245 -25.728 -13.321  0.00  0.00    +0.073 C 
ATOM     29  C   UNL     1      37.864 -26.349 -12.142  0.00  0.00    +0.103 C 
BRANCH  28  32
ATOM     30  O   UNL     1      40.336 -26.809 -13.423  0.00  0.00    -0.270 OA
ATOM     31  N   UNL     1      39.772 -25.476 -15.202  0.00  0.00    -0.325 N 
ATOM     32  C   UNL     1      39.512 -26.044 -13.957  0.00  0.00    +0.244 C 
ATOM     33  H   UNL     1      40.621 -25.668 -15.663  0.00  0.00    +0.145 HD
ATOM     34  H   UNL     1      39.107 -24.884 -15.622  0.00  0.00    +0.145 HD
ENDBRANCH  28  32
ENDBRANCH  22  25
ENDBRANCH   1  22
TORSDOF 6
ENDMDL
MODEL 4
REMARK VINA RESULT:     -11.1      4.700      9.912
REMARK  Name = 24875320
REMARK  6 active torsions:
REMARK  status: ('A' for Active; 'I' for Inactive)
REMARK    1  A    between atoms: C_1  and  N_22
REMARK    2  A    between atoms: C_3  and  C_10
REMARK    3  A    between atoms: N_9  and  C_12
REMARK    4  A    between atoms: C_14  and  C_21
REMARK    5  A    between atoms: N_22  and  C_25
REMARK    6  A    between atoms: C_28  and  C_32
REMARK                            x       y       z     vdW  Elec       q    Type
REMARK                         _______ _______ _______ _____ _____    ______ ____
ROOT
ATOM      1  C   UNL     1      35.114 -17.342 -22.682  0.00  0.00    +0.044 C 
ATOM      2  C   UNL     1      34.724 -17.977 -23.861  0.00  0.00    -0.008 C 
ATOM      3  C   UNL     1      35.284 -19.489 -21.584  0.00  0.00    +0.055 C 
ATOM      4  C   UNL     1      35.393 -18.099 -21.543  0.00  0.00    +0.019 C 
ATOM      5  C   UNL     1      34.615 -19.366 -23.903  0.00  0.00    -0.003 C 
ATOM      6  C   UNL     1      34.894 -20.123 -22.765  0.00  0.00    +0.004 C 
ATOM      7  C   UNL     1      34.420 -17.192 -25.096  0.00  0.00    +0.032 C 
ENDROOT
BRANCH   3  10
ATOM      8  O   UNL     1      36.722 -20.254 -19.924  0.00  0.00    -0.270 OA
ATOM      9  N   UNL     1      34.509 -21.032 -19.889  0.00  0.00    -0.280 N 
ATOM     10  C   UNL     1      35.574 -20.277 -20.398  0.00  0.00    +0.250 C 
ATOM     11  H   UNL     1      33.655 -20.947 -20.372  0.00  0.00    +0.155 HD
BRANCH   9  12
ATOM     12  C   UNL     1      34.499 -21.902 -18.771  0.00  0.00    +0.050 C 
ATOM     13  C   UNL     1      35.643 -22.041 -17.984  0.00  0.00    +0.019 C 
ATOM     14  C   UNL     1      35.634 -22.898 -16.884  0.00  0.00    +0.073 C 
ATOM     15  C   UNL     1      33.346 -22.622 -18.458  0.00  0.00    +0.015 C 
ATOM     16  C   UNL     1      34.480 -23.618 -16.571  0.00  0.00    +0.004 C 
ATOM     17  C   UNL     1      33.337 -23.479 -17.358  0.00  0.00    +0.001 C 
BRANCH  14  21
ATOM     18  F   UNL     1      36.926 -22.150 -15.015  0.00  0.00    -0.166 F 
ATOM     19  F   UNL     1      36.967 -24.274 -15.453  0.00  0.00    -0.166 F 
ATOM     20  F   UNL     1      38.007 -22.877 -16.756  0.00  0.00    -0.166 F 
ATOM     21  C   UNL     1      36.855 -23.046 -16.043  0.00  0.00    +0.419 C 
ENDBRANCH  14  21
ENDBRANCH   9  12
ENDBRANCH   3  10
BRANCH   1  22
ATOM     22  N   UNL     1      35.231 -15.937 -22.622  0.00  0.00    -0.312 N 
ATOM     23  H   UNL     1      36.154 -15.611 -22.736  0.00  0.00    +0.152 HD
BRANCH  22  25
ATOM     24  N   UNL     1      32.247 -14.151 -21.381  0.00  0.00    -0.241 NA
ATOM     25  C   UNL     1      34.288 -14.910 -22.430  0.00  0.00    +0.068 C 
ATOM     26  C   UNL     1      34.432 -13.678 -23.059  0.00  0.00    +0.022 C 
ATOM     27  C   UNL     1      33.188 -15.094 -21.608  0.00  0.00    +0.113 C 
ATOM     28  C   UNL     1      33.484 -12.682 -22.850  0.00  0.00    +0.073 C 
ATOM     29  C   UNL     1      32.420 -12.966 -22.010  0.00  0.00    +0.103 C 
BRANCH  28  32
ATOM     30  O   UNL     1      32.896 -10.421 -23.152  0.00  0.00    -0.270 OA
ATOM     31  N   UNL     1      34.560 -11.245 -24.497  0.00  0.00    -0.325 N 
ATOM     32  C   UNL     1      33.606 -11.385 -23.492  0.00  0.00    +0.244 C 
ATOM     33  H   UNL     1      34.671 -10.380 -24.954  0.00  0.00    +0.145 HD
ATOM     34  H   UNL     1      35.126 -12.011 -24.749  0.00  0.00    +0.145 HD
ENDBRANCH  28  32
ENDBRANCH  22  25
ENDBRANCH   1  22
TORSDOF 6
ENDMDL
MODEL 5
REMARK VINA RESULT:     -11.1      2.348      3.358
REMARK  Name = 24875320
REMARK  6 active torsions:
REMARK  status: ('A' for Active; 'I' for Inactive)
REMARK    1  A    between atoms: C_1  and  N_22
REMARK    2  A    between atoms: C_3  and  C_10
REMARK    3  A    between atoms: N_9  and  C_12
REMARK    4  A    between atoms: C_14  and  C_21
REMARK    5  A    between atoms: N_22  and  C_25
REMARK    6  A    between atoms: C_28  and  C_32
REMARK                            x       y       z     vdW  Elec       q    Type
REMARK                         _______ _______ _______ _____ _____    ______ ____
ROOT
ATOM      1  C   UNL     1      35.666 -24.712 -14.377  0.00  0.00    +0.044 C 
ATOM      2  C   UNL     1      36.948 -25.066 -13.958  0.00  0.00    -0.008 C 
ATOM      3  C   UNL     1      36.615 -23.182 -15.989  0.00  0.00    +0.055 C 
ATOM      4  C   UNL     1      35.499 -23.770 -15.392  0.00  0.00    +0.019 C 
ATOM      5  C   UNL     1      38.064 -24.478 -14.554  0.00  0.00    -0.003 C 
ATOM      6  C   UNL     1      37.898 -23.536 -15.569  0.00  0.00    +0.004 C 
ATOM      7  C   UNL     1      37.156 -26.073 -12.873  0.00  0.00    +0.032 C 
ENDROOT
BRANCH   3  10
ATOM      8  O   UNL     1      37.231 -21.244 -17.118  0.00  0.00    -0.270 OA
ATOM      9  N   UNL     1      35.353 -22.410 -17.904  0.00  0.00    -0.280 N 
ATOM     10  C   UNL     1      36.441 -22.200 -17.046  0.00  0.00    +0.250 C 
ATOM     11  H   UNL     1      34.814 -23.215 -17.723  0.00  0.00    +0.155 HD
BRANCH   9  12
ATOM     12  C   UNL     1      34.925 -21.617 -18.997  0.00  0.00    +0.050 C 
ATOM     13  C   UNL     1      35.847 -20.839 -19.699  0.00  0.00    +0.019 C 
ATOM     14  C   UNL     1      35.425 -20.058 -20.774  0.00  0.00    +0.073 C 
ATOM     15  C   UNL     1      33.581 -21.613 -19.372  0.00  0.00    +0.015 C 
ATOM     16  C   UNL     1      34.081 -20.054 -21.149  0.00  0.00    +0.004 C 
ATOM     17  C   UNL     1      33.160 -20.832 -20.447  0.00  0.00    +0.001 C 
BRANCH  14  21
ATOM     18  F   UNL     1      36.260 -17.885 -21.324  0.00  0.00    -0.166 F 
ATOM     19  F   UNL     1      37.710 -19.493 -21.199  0.00  0.00    -0.166 F 
ATOM     20  F   UNL     1      36.327 -19.407 -22.875  0.00  0.00    -0.166 F 
ATOM     21  C   UNL     1      36.410 -19.227 -21.524  0.00  0.00    +0.419 C 
ENDBRANCH  14  21
ENDBRANCH   9  12
ENDBRANCH   3  10
BRANCH   1  22
ATOM     22  N   UNL     1      34.525 -25.298 -13.785  0.00  0.00    -0.312 N 
ATOM     23  H   UNL     1      34.728 -26.079 -13.221  0.00  0.00    +0.152 HD
BRANCH  22  25
ATOM     24  N   UNL     1      30.963 -25.108 -12.832  0.00  0.00    -0.241 NA
ATOM     25  C   UNL     1      33.154 -24.983 -13.843  0.00  0.00    +0.068 C 
ATOM     26  C   UNL     1      32.629 -24.265 -14.912  0.00  0.00    +0.022 C 
ATOM     27  C   UNL     1      32.287 -25.378 -12.838  0.00  0.00    +0.113 C 
ATOM     28  C   UNL     1      31.271 -23.968 -14.942  0.00  0.00    +0.073 C 
ATOM     29  C   UNL     1      30.487 -24.409 -13.888  0.00  0.00    +0.103 C 
BRANCH  28  32
ATOM     30  O   UNL     1      31.395 -22.770 -16.966  0.00  0.00    -0.270 OA
ATOM     31  N   UNL     1      29.311 -23.038 -16.049  0.00  0.00    -0.325 N 
ATOM     32  C   UNL     1      30.692 -23.221 -16.044  0.00  0.00    +0.244 C 
ATOM     33  H   UNL     1      28.883 -22.536 -16.781  0.00  0.00    +0.145 HD
ATOM     34  H   UNL     1      28.761 -23.410 -15.322  0.00  0.00    +0.145 HD
ENDBRANCH  28  32
ENDBRANCH  22  25
ENDBRANCH   1  22
TORSDOF 6
ENDMDL
MODEL 6
REMARK VINA RESULT:     -11.0      3.836      7.187
REMARK  Name = 24875320
REMARK  6 active torsions:
REMARK  status: ('A' for Active; 'I' for Inactive)
REMARK    1  A    between atoms: C_1  and  N_22
REMARK    2  A    between atoms: C_3  and  C_10
REMARK    3  A    between atoms: N_9  and  C_12
REMARK    4  A    between atoms: C_14  and  C_21
REMARK    5  A    between atoms: N_22  and  C_25
REMARK    6  A    between atoms: C_28  and  C_32
REMARK                            x       y       z     vdW  Elec       q    Type
REMARK                         _______ _______ _______ _____ _____    ______ ____
ROOT
ATOM      1  C   UNL     1      35.168 -18.440 -22.144  0.00  0.00    +0.044 C 
ATOM      2  C   UNL     1      35.014 -18.641 -23.516  0.00  0.00    -0.008 C 
ATOM      3  C   UNL     1      34.521 -16.127 -22.412  0.00  0.00    +0.055 C 
ATOM      4  C   UNL     1      34.922 -17.183 -21.593  0.00  0.00    +0.019 C 
ATOM      5  C   UNL     1      34.614 -17.587 -24.335  0.00  0.00    -0.003 C 
ATOM      6  C   UNL     1      34.367 -16.329 -23.784  0.00  0.00    +0.004 C 
ATOM      7  C   UNL     1      35.270 -19.978 -24.134  0.00  0.00    +0.032 C 
ENDROOT
BRANCH   3  10
ATOM      8  O   UNL     1      34.899 -14.466 -20.828  0.00  0.00    -0.270 OA
ATOM      9  N   UNL     1      33.281 -14.050 -22.475  0.00  0.00    -0.280 N 
ATOM     10  C   UNL     1      34.265 -14.817 -21.836  0.00  0.00    +0.250 C 
ATOM     11  H   UNL     1      32.864 -14.462 -23.267  0.00  0.00    +0.155 HD
BRANCH   9  12
ATOM     12  C   UNL     1      32.806 -12.760 -22.131  0.00  0.00    +0.050 C 
ATOM     13  C   UNL     1      32.152 -12.558 -20.915  0.00  0.00    +0.019 C 
ATOM     14  C   UNL     1      31.685 -11.288 -20.577  0.00  0.00    +0.073 C 
ATOM     15  C   UNL     1      32.993 -11.691 -23.008  0.00  0.00    +0.015 C 
ATOM     16  C   UNL     1      31.873 -10.219 -21.454  0.00  0.00    +0.004 C 
ATOM     17  C   UNL     1      32.527 -10.422 -22.669  0.00  0.00    +0.001 C 
BRANCH  14  21
ATOM     18  F   UNL     1      29.629 -11.206 -19.357  0.00  0.00    -0.166 F 
ATOM     19  F   UNL     1      31.374 -11.941 -18.297  0.00  0.00    -0.166 F 
ATOM     20  F   UNL     1      31.201  -9.824 -18.767  0.00  0.00    -0.166 F 
ATOM     21  C   UNL     1      30.986 -11.072 -19.278  0.00  0.00    +0.419 C 
ENDBRANCH  14  21
ENDBRANCH   9  12
ENDBRANCH   3  10
BRANCH   1  22
ATOM     22  N   UNL     1      35.572 -19.497 -21.300  0.00  0.00    -0.312 N 
ATOM     23  H   UNL     1      36.544 -19.652 -21.297  0.00  0.00    +0.152 HD
BRANCH  22  25
ATOM     24  N   UNL     1      32.741 -21.350 -19.820  0.00  0.00    -0.241 NA
ATOM     25  C   UNL     1      34.857 -20.373 -20.461  0.00  0.00    +0.068 C 
ATOM     26  C   UNL     1      35.504 -21.110 -19.476  0.00  0.00    +0.022 C 
ATOM     27  C   UNL     1      33.486 -20.527 -20.591  0.00  0.00    +0.113 C 
ATOM     28  C   UNL     1      34.771 -21.968 -18.663  0.00  0.00    +0.073 C 
ATOM     29  C   UNL     1      33.404 -22.051 -18.873  0.00  0.00    +0.103 C 
BRANCH  28  32
ATOM     30  O   UNL     1      36.608 -22.564 -17.314  0.00  0.00    -0.270 OA
ATOM     31  N   UNL     1      34.656 -23.716 -16.970  0.00  0.00    -0.325 N 
ATOM     32  C   UNL     1      35.418 -22.752 -17.626  0.00  0.00    +0.244 C 
ATOM     33  H   UNL     1      35.061 -24.266 -16.261  0.00  0.00    +0.145 HD
ATOM     34  H   UNL     1      33.711 -23.847 -17.215  0.00  0.00    +0.145 HD
ENDBRANCH  28  32
ENDBRANCH  22  25
ENDBRANCH   1  22
TORSDOF 6
ENDMDL
MODEL 7
REMARK VINA RESULT:     -10.9      5.856     11.129
REMARK  Name = 24875320
REMARK  6 active torsions:
REMARK  status: ('A' for Active; 'I' for Inactive)
REMARK    1  A    between atoms: C_1  and  N_22
REMARK    2  A    between atoms: C_3  and  C_10
REMARK    3  A    between atoms: N_9  and  C_12
REMARK    4  A    between atoms: C_14  and  C_21
REMARK    5  A    between atoms: N_22  and  C_25
REMARK    6  A    between atoms: C_28  and  C_32
REMARK                            x       y       z     vdW  Elec       q    Type
REMARK                         _______ _______ _______ _____ _____    ______ ____
ROOT
ATOM      1  C   UNL     1      34.103 -13.859 -23.982  0.00  0.00    +0.044 C 
ATOM      2  C   UNL     1      33.812 -14.451 -25.211  0.00  0.00    -0.008 C 
ATOM      3  C   UNL     1      34.499 -16.042 -23.024  0.00  0.00    +0.055 C 
ATOM      4  C   UNL     1      34.446 -14.654 -22.889  0.00  0.00    +0.019 C 
ATOM      5  C   UNL     1      33.865 -15.838 -25.347  0.00  0.00    -0.003 C 
ATOM      6  C   UNL     1      34.208 -16.634 -24.254  0.00  0.00    +0.004 C 
ATOM      7  C   UNL     1      33.443 -13.623 -26.399  0.00  0.00    +0.032 C 
ENDROOT
BRANCH   3  10
ATOM      8  O   UNL     1      34.961 -16.344 -20.765  0.00  0.00    -0.270 OA
ATOM      9  N   UNL     1      35.078 -18.227 -22.160  0.00  0.00    -0.280 N 
ATOM     10  C   UNL     1      34.856 -16.871 -21.885  0.00  0.00    +0.250 C 
ATOM     11  H   UNL     1      34.956 -18.499 -23.099  0.00  0.00    +0.155 HD
BRANCH   9  12
ATOM     12  C   UNL     1      35.457 -19.258 -21.265  0.00  0.00    +0.050 C 
ATOM     13  C   UNL     1      34.481 -20.042 -20.650  0.00  0.00    +0.019 C 
ATOM     14  C   UNL     1      34.854 -21.057 -19.769  0.00  0.00    +0.073 C 
ATOM     15  C   UNL     1      36.807 -19.489 -21.000  0.00  0.00    +0.015 C 
ATOM     16  C   UNL     1      36.205 -21.288 -19.503  0.00  0.00    +0.004 C 
ATOM     17  C   UNL     1      37.180 -20.504 -20.119  0.00  0.00    +0.001 C 
BRANCH  14  21
ATOM     18  F   UNL     1      33.460 -23.000 -19.832  0.00  0.00    -0.166 F 
ATOM     19  F   UNL     1      34.188 -22.373 -17.887  0.00  0.00    -0.166 F 
ATOM     20  F   UNL     1      32.649 -21.213 -18.895  0.00  0.00    -0.166 F 
ATOM     21  C   UNL     1      33.812 -21.895 -19.111  0.00  0.00    +0.419 C 
ENDBRANCH  14  21
ENDBRANCH   9  12
ENDBRANCH   3  10
BRANCH   1  22
ATOM     22  N   UNL     1      34.055 -12.456 -23.826  0.00  0.00    -0.312 N 
ATOM     23  H   UNL     1      34.737 -11.976 -24.349  0.00  0.00    +0.152 HD
BRANCH  22  25
ATOM     24  N   UNL     1      31.526 -11.368 -21.366  0.00  0.00    -0.241 NA
ATOM     25  C   UNL     1      33.223 -11.610 -23.070  0.00  0.00    +0.068 C 
ATOM     26  C   UNL     1      33.252 -10.231 -23.247  0.00  0.00    +0.022 C 
ATOM     27  C   UNL     1      32.350 -12.124 -22.125  0.00  0.00    +0.113 C 
ATOM     28  C   UNL     1      32.419  -9.420 -22.484  0.00  0.00    +0.073 C 
ATOM     29  C   UNL     1      31.581 -10.032 -21.566  0.00  0.00    +0.103 C 
BRANCH  28  32
ATOM     30  O   UNL     1      33.460  -7.307 -22.474  0.00  0.00    -0.270 OA
ATOM     31  N   UNL     1      31.233  -7.360 -23.020  0.00  0.00    -0.325 N 
ATOM     32  C   UNL     1      32.425  -7.977 -22.646  0.00  0.00    +0.244 C 
ATOM     33  H   UNL     1      31.201  -6.383 -23.139  0.00  0.00    +0.145 HD
ATOM     34  H   UNL     1      30.424  -7.901 -23.167  0.00  0.00    +0.145 HD
ENDBRANCH  28  32
ENDBRANCH  22  25
ENDBRANCH   1  22
TORSDOF 6
ENDMDL
MODEL 8
REMARK VINA RESULT:     -10.9      3.947      7.468
REMARK  Name = 24875320
REMARK  6 active torsions:
REMARK  status: ('A' for Active; 'I' for Inactive)
REMARK    1  A    between atoms: C_1  and  N_22
REMARK    2  A    between atoms: C_3  and  C_10
REMARK    3  A    between atoms: N_9  and  C_12
REMARK    4  A    between atoms: C_14  and  C_21
REMARK    5  A    between atoms: N_22  and  C_25
REMARK    6  A    between atoms: C_28  and  C_32
REMARK                            x       y       z     vdW  Elec       q    Type
REMARK                         _______ _______ _______ _____ _____    ______ ____
ROOT
ATOM      1  C   UNL     1      35.059 -18.185 -22.519  0.00  0.00    +0.044 C 
ATOM      2  C   UNL     1      34.850 -18.557 -23.847  0.00  0.00    -0.008 C 
ATOM      3  C   UNL     1      34.361 -15.931 -23.042  0.00  0.00    +0.055 C 
ATOM      4  C   UNL     1      34.815 -16.871 -22.117  0.00  0.00    +0.019 C 
ATOM      5  C   UNL     1      34.396 -17.617 -24.772  0.00  0.00    -0.003 C 
ATOM      6  C   UNL     1      34.152 -16.304 -24.370  0.00  0.00    +0.004 C 
ATOM      7  C   UNL     1      35.101 -19.957 -24.305  0.00  0.00    +0.032 C 
ENDROOT
BRANCH   3  10
ATOM      8  O   UNL     1      34.945 -13.685 -22.890  0.00  0.00    -0.270 OA
ATOM      9  N   UNL     1      32.917 -14.349 -21.915  0.00  0.00    -0.280 N 
ATOM     10  C   UNL     1      34.108 -14.562 -22.623  0.00  0.00    +0.250 C 
ATOM     11  H   UNL     1      32.351 -15.144 -21.781  0.00  0.00    +0.155 HD
BRANCH   9  12
ATOM     12  C   UNL     1      32.421 -13.141 -21.367  0.00  0.00    +0.050 C 
ATOM     13  C   UNL     1      32.467 -11.964 -22.114  0.00  0.00    +0.019 C 
ATOM     14  C   UNL     1      31.979 -10.774 -21.574  0.00  0.00    +0.073 C 
ATOM     15  C   UNL     1      31.887 -13.128 -20.078  0.00  0.00    +0.015 C 
ATOM     16  C   UNL     1      31.444 -10.762 -20.285  0.00  0.00    +0.004 C 
ATOM     17  C   UNL     1      31.399 -11.939 -19.538  0.00  0.00    +0.001 C 
BRANCH  14  21
ATOM     18  F   UNL     1      32.892  -8.584 -21.874  0.00  0.00    -0.166 F 
ATOM     19  F   UNL     1      32.416  -9.707 -23.668  0.00  0.00    -0.166 F 
ATOM     20  F   UNL     1      30.816  -8.891 -22.442  0.00  0.00    -0.166 F 
ATOM     21  C   UNL     1      32.028  -9.516 -22.372  0.00  0.00    +0.419 C 
ENDBRANCH  14  21
ENDBRANCH   9  12
ENDBRANCH   3  10
BRANCH   1  22
ATOM     22  N   UNL     1      35.517 -19.124 -21.569  0.00  0.00    -0.312 N 
ATOM     23  H   UNL     1      36.496 -19.137 -21.466  0.00  0.00    +0.152 HD
BRANCH  22  25
ATOM     24  N   UNL     1      32.773 -21.083 -20.063  0.00  0.00    -0.241 NA
ATOM     25  C   UNL     1      34.847 -20.044 -20.740  0.00  0.00    +0.068 C 
ATOM     26  C   UNL     1      35.543 -20.807 -19.809  0.00  0.00    +0.022 C 
ATOM     27  C   UNL     1      33.476 -20.218 -20.827  0.00  0.00    +0.113 C 
ATOM     28  C   UNL     1      34.855 -21.709 -19.005  0.00  0.00    +0.073 C 
ATOM     29  C   UNL     1      33.483 -21.808 -19.169  0.00  0.00    +0.103 C 
BRANCH  28  32
ATOM     30  O   UNL     1      36.772 -22.385 -17.815  0.00  0.00    -0.270 OA
ATOM     31  N   UNL     1      34.806 -23.448 -17.299  0.00  0.00    -0.325 N 
ATOM     32  C   UNL     1      35.552 -22.520 -18.023  0.00  0.00    +0.244 C 
ATOM     33  H   UNL     1      35.246 -24.015 -16.625  0.00  0.00    +0.145 HD
ATOM     34  H   UNL     1      33.839 -23.536 -17.462  0.00  0.00    +0.145 HD
ENDBRANCH  28  32
ENDBRANCH  22  25
ENDBRANCH   1  22
TORSDOF 6
ENDMDL
MODEL 9
REMARK VINA RESULT:     -10.8      2.846      4.149
REMARK  Name = 24875320
REMARK  6 active torsions:
REMARK  status: ('A' for Active; 'I' for Inactive)
REMARK    1  A    between atoms: C_1  and  N_22
REMARK    2  A    between atoms: C_3  and  C_10
REMARK    3  A    between atoms: N_9  and  C_12
REMARK    4  A    between atoms: C_14  and  C_21
REMARK    5  A    between atoms: N_22  and  C_25
REMARK    6  A    between atoms: C_28  and  C_32
REMARK                            x       y       z     vdW  Elec       q    Type
REMARK                         _______ _______ _______ _____ _____    ______ ____
ROOT
ATOM      1  C   UNL     1      35.834 -22.957 -16.407  0.00  0.00    +0.044 C 
ATOM      2  C   UNL     1      34.557 -23.517 -16.377  0.00  0.00    -0.008 C 
ATOM      3  C   UNL     1      35.335 -21.933 -18.538  0.00  0.00    +0.055 C 
ATOM      4  C   UNL     1      36.223 -22.166 -17.488  0.00  0.00    +0.019 C 
ATOM      5  C   UNL     1      33.669 -23.286 -17.427  0.00  0.00    -0.003 C 
ATOM      6  C   UNL     1      34.058 -22.494 -18.508  0.00  0.00    +0.004 C 
ATOM      7  C   UNL     1      34.114 -24.369 -15.232  0.00  0.00    +0.032 C 
ENDROOT
BRANCH   3  10
ATOM      8  O   UNL     1      36.935 -21.098 -20.005  0.00  0.00    -0.270 OA
ATOM      9  N   UNL     1      34.723 -20.361 -20.273  0.00  0.00    -0.280 N 
ATOM     10  C   UNL     1      35.741 -21.109 -19.665  0.00  0.00    +0.250 C 
ATOM     11  H   UNL     1      33.822 -20.474 -19.893  0.00  0.00    +0.155 HD
BRANCH   9  12
ATOM     12  C   UNL     1      34.822 -19.461 -21.363  0.00  0.00    +0.050 C 
ATOM     13  C   UNL     1      34.646 -18.093 -21.157  0.00  0.00    +0.019 C 
ATOM     14  C   UNL     1      34.743 -17.207 -22.231  0.00  0.00    +0.073 C 
ATOM     15  C   UNL     1      35.095 -19.944 -22.643  0.00  0.00    +0.015 C 
ATOM     16  C   UNL     1      35.016 -17.691 -23.511  0.00  0.00    +0.004 C 
ATOM     17  C   UNL     1      35.192 -19.059 -23.716  0.00  0.00    +0.001 C 
BRANCH  14  21
ATOM     18  F   UNL     1      35.244 -14.965 -22.895  0.00  0.00    -0.166 F 
ATOM     19  F   UNL     1      33.254 -15.340 -22.117  0.00  0.00    -0.166 F 
ATOM     20  F   UNL     1      34.963 -15.343 -20.772  0.00  0.00    -0.166 F 
ATOM     21  C   UNL     1      34.555 -15.745 -22.011  0.00  0.00    +0.419 C 
ENDBRANCH  14  21
ENDBRANCH   9  12
ENDBRANCH   3  10
BRANCH   1  22
ATOM     22  N   UNL     1      36.746 -23.181 -15.352  0.00  0.00    -0.312 N 
ATOM     23  H   UNL     1      37.448 -22.493 -15.283  0.00  0.00    +0.152 HD
BRANCH  22  25
ATOM     24  N   UNL     1      37.477 -26.459 -13.818  0.00  0.00    -0.241 NA
ATOM     25  C   UNL     1      36.849 -24.194 -14.380  0.00  0.00    +0.068 C 
ATOM     26  C   UNL     1      36.448 -23.971 -13.068  0.00  0.00    +0.022 C 
ATOM     27  C   UNL     1      37.352 -25.444 -14.701  0.00  0.00    +0.113 C 
ATOM     28  C   UNL     1      36.563 -24.990 -12.129  0.00  0.00    +0.073 C 
ATOM     29  C   UNL     1      37.078 -26.205 -12.551  0.00  0.00    +0.103 C 
BRANCH  28  32
ATOM     30  O   UNL     1      35.287 -25.507 -10.218  0.00  0.00    -0.270 OA
ATOM     31  N   UNL     1      36.776 -23.773 -10.030  0.00  0.00    -0.325 N 
ATOM     32  C   UNL     1      36.153 -24.789 -10.751  0.00  0.00    +0.244 C 
ATOM     33  H   UNL     1      36.523 -23.608  -9.092  0.00  0.00    +0.145 HD
ATOM     34  H   UNL     1      37.469 -23.220 -10.457  0.00  0.00    +0.145 HD
ENDBRANCH  28  32
ENDBRANCH  22  25
ENDBRANCH   1  22
TORSDOF 6
ENDMDL
