MODEL 1
REMARK VINA RESULT:     -10.9      0.000      0.000
REMARK  Name = 54674461
REMARK  5 active torsions:
REMARK  status: ('A' for Active; 'I' for Inactive)
REMARK    1  A    between atoms: N_2  and  C_29
REMARK    2  A    between atoms: C_7  and  C_14
REMARK    3  A    between atoms: C_15  and  N_21
REMARK    4  A    between atoms: C_22  and  O_24
REMARK    5  A    between atoms: C_29  and  C_31
REMARK                            x       y       z     vdW  Elec       q    Type
REMARK                         _______ _______ _______ _____ _____    ______ ____
ROOT
ATOM      1  F   UNL     1      29.490 -23.156 -15.271  0.00  0.00    -0.207 F 
ATOM      2  N   UNL     1      34.683 -24.530 -15.266  0.00  0.00    -0.193 N 
ATOM      3  N   UNL     1      35.229 -23.893 -16.317  0.00  0.00    -0.168 NA
ATOM      4  N   UNL     1      32.549 -24.792 -14.156  0.00  0.00    -0.251 NA
ATOM      5  C   UNL     1      32.994 -23.433 -16.143  0.00  0.00    +0.133 C 
ATOM      6  C   UNL     1      33.348 -24.291 -15.114  0.00  0.00    +0.133 C 
ATOM      7  C   UNL     1      34.198 -23.227 -16.848  0.00  0.00    +0.172 C 
ATOM      8  C   UNL     1      31.659 -23.021 -16.225  0.00  0.00    +0.015 C 
ATOM      9  C   UNL     1      30.781 -23.508 -15.256  0.00  0.00    +0.139 C 
ATOM     10  C   UNL     1      31.269 -24.366 -14.276  0.00  0.00    +0.182 C 
ENDROOT
BRANCH   7  14
ATOM     11  N   UNL     1      33.280 -22.056 -18.694  0.00  0.00    -0.326 NA
ATOM     12  N   UNL     1      35.660 -22.078 -18.319  0.00  0.00    -0.326 NA
ATOM     13  N   UNL     1      32.368 -20.884 -20.539  0.00  0.00    -0.334 N 
ATOM     14  C   UNL     1      34.390 -22.408 -18.018  0.00  0.00    +0.156 C 
ATOM     15  C   UNL     1      34.747 -20.885 -20.200  0.00  0.00    +0.210 C 
ATOM     16  C   UNL     1      33.496 -21.291 -19.784  0.00  0.00    +0.193 C 
ATOM     17  C   UNL     1      35.803 -21.313 -19.421  0.00  0.00    +0.193 C 
ATOM     18  H   UNL     1      31.464 -21.162 -20.262  0.00  0.00    +0.144 HD
ATOM     19  H   UNL     1      32.487 -20.325 -21.340  0.00  0.00    +0.144 HD
ATOM     20  N   UNL     1      37.117 -20.933 -19.793  0.00  0.00    -0.334 N 
ATOM     21  H   UNL     1      37.885 -21.226 -19.252  0.00  0.00    +0.144 HD
ATOM     22  H   UNL     1      37.260 -20.376 -20.592  0.00  0.00    +0.144 HD
BRANCH  15  24
ATOM     23  O   UNL     1      35.711 -18.053 -20.486  0.00  0.00    -0.226 OA
ATOM     24  N   UNL     1      34.934 -20.095 -21.336  0.00  0.00    -0.258 N 
ATOM     25  C   UNL     1      35.386 -18.781 -21.416  0.00  0.00    +0.402 C 
ATOM     26  H   UNL     1      34.719 -20.525 -22.196  0.00  0.00    +0.154 HD
BRANCH  25  27
ATOM     27  O   UNL     1      35.420 -18.394 -22.728  0.00  0.00    -0.431 OA
ATOM     28  C   UNL     1      34.652 -19.189 -23.639  0.00  0.00    +0.257 C 
ENDBRANCH  25  27
ENDBRANCH  15  24
ENDBRANCH   7  14
BRANCH   2  29
ATOM     29  C   UNL     1      35.512 -25.369 -14.432  0.00  0.00    +0.146 C 
BRANCH  29  31
ATOM     30  F   UNL     1      37.687 -23.555 -14.326  0.00  0.00    -0.204 F 
ATOM     31  C   UNL     1      35.958 -24.692 -13.161  0.00  0.00    +0.027 C 
ATOM     32  C   UNL     1      37.038 -23.808 -13.180  0.00  0.00    +0.138 C 
ATOM     33  C   UNL     1      35.289 -24.949 -11.964  0.00  0.00    -0.000 C 
ATOM     34  C   UNL     1      37.449 -23.183 -12.003  0.00  0.00    +0.029 C 
ATOM     35  C   UNL     1      35.701 -24.324 -10.786  0.00  0.00    -0.000 C 
ATOM     36  C   UNL     1      36.781 -23.441 -10.806  0.00  0.00    +0.002 C 
ENDBRANCH  29  31
ENDBRANCH   2  29
TORSDOF 5
ENDMDL
MODEL 2
REMARK VINA RESULT:     -10.6      1.135      2.237
REMARK  Name = 54674461
REMARK  5 active torsions:
REMARK  status: ('A' for Active; 'I' for Inactive)
REMARK    1  A    between atoms: N_2  and  C_29
REMARK    2  A    between atoms: C_7  and  C_14
REMARK    3  A    between atoms: C_15  and  N_21
REMARK    4  A    between atoms: C_22  and  O_24
REMARK    5  A    between atoms: C_29  and  C_31
REMARK                            x       y       z     vdW  Elec       q    Type
REMARK                         _______ _______ _______ _____ _____    ______ ____
ROOT
ATOM      1  F   UNL     1      28.853 -23.850 -15.920  0.00  0.00    -0.207 F 
ATOM      2  N   UNL     1      34.030 -24.060 -14.504  0.00  0.00    -0.193 N 
ATOM      3  N   UNL     1      34.709 -23.495 -15.519  0.00  0.00    -0.168 NA
ATOM      4  N   UNL     1      31.762 -24.594 -13.855  0.00  0.00    -0.251 NA
ATOM      5  C   UNL     1      32.459 -23.503 -15.933  0.00  0.00    +0.133 C 
ATOM      6  C   UNL     1      32.681 -24.091 -14.698  0.00  0.00    +0.133 C 
ATOM      7  C   UNL     1      33.748 -23.158 -16.386  0.00  0.00    +0.172 C 
ATOM      8  C   UNL     1      31.137 -23.405 -16.386  0.00  0.00    +0.015 C 
ATOM      9  C   UNL     1      30.138 -23.910 -15.553  0.00  0.00    +0.139 C 
ATOM     10  C   UNL     1      30.501 -24.477 -14.335  0.00  0.00    +0.182 C 
ENDROOT
BRANCH   7  14
ATOM     11  N   UNL     1      35.400 -22.420 -17.918  0.00  0.00    -0.326 NA
ATOM     12  N   UNL     1      33.061 -22.064 -18.374  0.00  0.00    -0.326 NA
ATOM     13  N   UNL     1      37.046 -21.681 -19.453  0.00  0.00    -0.334 N 
ATOM     14  C   UNL     1      34.088 -22.512 -17.628  0.00  0.00    +0.156 C 
ATOM     15  C   UNL     1      34.723 -21.306 -19.941  0.00  0.00    +0.210 C 
ATOM     16  C   UNL     1      35.683 -21.809 -19.087  0.00  0.00    +0.193 C 
ATOM     17  C   UNL     1      33.415 -21.463 -19.529  0.00  0.00    +0.193 C 
ATOM     18  H   UNL     1      37.749 -22.032 -18.859  0.00  0.00    +0.144 HD
ATOM     19  H   UNL     1      37.290 -21.243 -20.299  0.00  0.00    +0.144 HD
ATOM     20  N   UNL     1      32.378 -20.968 -20.359  0.00  0.00    -0.334 N 
ATOM     21  H   UNL     1      31.439 -21.069 -20.086  0.00  0.00    +0.144 HD
ATOM     22  H   UNL     1      32.600 -20.523 -21.209  0.00  0.00    +0.144 HD
BRANCH  15  24
ATOM     23  O   UNL     1      35.989 -18.634 -20.475  0.00  0.00    -0.226 OA
ATOM     24  N   UNL     1      35.052 -20.676 -21.144  0.00  0.00    -0.258 N 
ATOM     25  C   UNL     1      35.641 -19.431 -21.338  0.00  0.00    +0.402 C 
ATOM     26  H   UNL     1      34.840 -21.180 -21.963  0.00  0.00    +0.154 HD
BRANCH  25  27
ATOM     27  O   UNL     1      35.786 -19.204 -22.680  0.00  0.00    -0.431 OA
ATOM     28  C   UNL     1      34.647 -19.504 -23.496  0.00  0.00    +0.257 C 
ENDBRANCH  25  27
ENDBRANCH  15  24
ENDBRANCH   7  14
BRANCH   2  29
ATOM     29  C   UNL     1      34.751 -24.559 -13.356  0.00  0.00    +0.146 C 
BRANCH  29  31
ATOM     30  F   UNL     1      37.274 -23.587 -12.505  0.00  0.00    -0.204 F 
ATOM     31  C   UNL     1      36.055 -25.227 -13.714  0.00  0.00    +0.027 C 
ATOM     32  C   UNL     1      37.262 -24.694 -13.261  0.00  0.00    +0.138 C 
ATOM     33  C   UNL     1      36.053 -26.380 -14.500  0.00  0.00    -0.000 C 
ATOM     34  C   UNL     1      38.466 -25.314 -13.592  0.00  0.00    +0.029 C 
ATOM     35  C   UNL     1      37.258 -26.999 -14.833  0.00  0.00    -0.000 C 
ATOM     36  C   UNL     1      38.465 -26.467 -14.380  0.00  0.00    +0.002 C 
ENDBRANCH  29  31
ENDBRANCH   2  29
TORSDOF 5
ENDMDL
MODEL 3
REMARK VINA RESULT:     -10.6      1.374      4.718
REMARK  Name = 54674461
REMARK  5 active torsions:
REMARK  status: ('A' for Active; 'I' for Inactive)
REMARK    1  A    between atoms: N_2  and  C_29
REMARK    2  A    between atoms: C_7  and  C_14
REMARK    3  A    between atoms: C_15  and  N_21
REMARK    4  A    between atoms: C_22  and  O_24
REMARK    5  A    between atoms: C_29  and  C_31
REMARK                            x       y       z     vdW  Elec       q    Type
REMARK                         _______ _______ _______ _____ _____    ______ ____
ROOT
ATOM      1  F   UNL     1      38.476 -23.968 -14.356  0.00  0.00    -0.207 F 
ATOM      2  N   UNL     1      33.193 -24.354 -15.248  0.00  0.00    -0.193 N 
ATOM      3  N   UNL     1      32.966 -23.680 -16.390  0.00  0.00    -0.168 NA
ATOM      4  N   UNL     1      35.015 -24.950 -13.773  0.00  0.00    -0.251 NA
ATOM      5  C   UNL     1      35.184 -23.634 -15.831  0.00  0.00    +0.133 C 
ATOM      6  C   UNL     1      34.502 -24.358 -14.866  0.00  0.00    +0.133 C 
ATOM      7  C   UNL     1      34.181 -23.245 -16.741  0.00  0.00    +0.172 C 
ATOM      8  C   UNL     1      36.568 -23.480 -15.680  0.00  0.00    +0.015 C 
ATOM      9  C   UNL     1      37.158 -24.073 -14.564  0.00  0.00    +0.139 C 
ATOM     10  C   UNL     1      36.354 -24.774 -13.671  0.00  0.00    +0.182 C 
ENDROOT
BRANCH   7  14
ATOM     11  N   UNL     1      35.620 -22.228 -18.328  0.00  0.00    -0.326 NA
ATOM     12  N   UNL     1      33.228 -22.050 -18.553  0.00  0.00    -0.326 NA
ATOM     13  N   UNL     1      37.053 -21.212 -19.916  0.00  0.00    -0.334 N 
ATOM     14  C   UNL     1      34.352 -22.465 -17.940  0.00  0.00    +0.156 C 
ATOM     15  C   UNL     1      34.672 -21.009 -20.174  0.00  0.00    +0.210 C 
ATOM     16  C   UNL     1      35.744 -21.495 -19.453  0.00  0.00    +0.193 C 
ATOM     17  C   UNL     1      33.424 -21.321 -19.672  0.00  0.00    +0.193 C 
ATOM     18  H   UNL     1      37.834 -21.547 -19.419  0.00  0.00    +0.144 HD
ATOM     19  H   UNL     1      37.182 -20.680 -20.735  0.00  0.00    +0.144 HD
ATOM     20  N   UNL     1      32.279 -20.852 -20.362  0.00  0.00    -0.334 N 
ATOM     21  H   UNL     1      31.380 -21.061 -20.023  0.00  0.00    +0.144 HD
ATOM     22  H   UNL     1      32.385 -20.315 -21.182  0.00  0.00    +0.144 HD
BRANCH  15  24
ATOM     23  O   UNL     1      35.729 -18.224 -20.563  0.00  0.00    -0.226 OA
ATOM     24  N   UNL     1      34.837 -20.249 -21.334  0.00  0.00    -0.258 N 
ATOM     25  C   UNL     1      35.334 -18.956 -21.461  0.00  0.00    +0.402 C 
ATOM     26  H   UNL     1      34.566 -20.687 -22.174  0.00  0.00    +0.154 HD
BRANCH  25  27
ATOM     27  O   UNL     1      35.324 -18.596 -22.782  0.00  0.00    -0.431 OA
ATOM     28  C   UNL     1      34.513 -19.400 -23.646  0.00  0.00    +0.257 C 
ENDBRANCH  25  27
ENDBRANCH  15  24
ENDBRANCH   7  14
BRANCH   2  29
ATOM     29  C   UNL     1      32.088 -24.980 -14.560  0.00  0.00    +0.146 C 
BRANCH  29  31
ATOM     30  F   UNL     1      31.284 -22.341 -13.911  0.00  0.00    -0.204 F 
ATOM     31  C   UNL     1      30.746 -24.410 -14.944  0.00  0.00    +0.027 C 
ATOM     32  C   UNL     1      30.414 -23.102 -14.591  0.00  0.00    +0.138 C 
ATOM     33  C   UNL     1      29.834 -25.193 -15.652  0.00  0.00    -0.000 C 
ATOM     34  C   UNL     1      29.172 -22.577 -14.948  0.00  0.00    +0.029 C 
ATOM     35  C   UNL     1      28.591 -24.668 -16.008  0.00  0.00    -0.000 C 
ATOM     36  C   UNL     1      28.260 -23.360 -15.655  0.00  0.00    +0.002 C 
ENDBRANCH  29  31
ENDBRANCH   2  29
TORSDOF 5
ENDMDL
MODEL 4
REMARK VINA RESULT:     -10.5      3.969      7.607
REMARK  Name = 54674461
REMARK  5 active torsions:
REMARK  status: ('A' for Active; 'I' for Inactive)
REMARK    1  A    between atoms: N_2  and  C_29
REMARK    2  A    between atoms: C_7  and  C_14
REMARK    3  A    between atoms: C_15  and  N_21
REMARK    4  A    between atoms: C_22  and  O_24
REMARK    5  A    between atoms: C_29  and  C_31
REMARK                            x       y       z     vdW  Elec       q    Type
REMARK                         _______ _______ _______ _____ _____    ______ ____
ROOT
ATOM      1  F   UNL     1      30.721 -24.456 -12.422  0.00  0.00    -0.207 F 
ATOM      2  N   UNL     1      33.120 -23.126 -17.042  0.00  0.00    -0.193 N 
ATOM      3  N   UNL     1      34.414 -23.457 -16.888  0.00  0.00    -0.168 NA
ATOM      4  N   UNL     1      31.032 -23.174 -15.820  0.00  0.00    -0.251 NA
ATOM      5  C   UNL     1      33.208 -23.951 -15.008  0.00  0.00    +0.133 C 
ATOM      6  C   UNL     1      32.352 -23.399 -15.948  0.00  0.00    +0.133 C 
ATOM      7  C   UNL     1      34.462 -23.959 -15.649  0.00  0.00    +0.172 C 
ATOM      8  C   UNL     1      32.670 -24.328 -13.771  0.00  0.00    +0.015 C 
ATOM      9  C   UNL     1      31.304 -24.119 -13.579  0.00  0.00    +0.139 C 
ATOM     10  C   UNL     1      30.558 -23.555 -14.609  0.00  0.00    +0.182 C 
ENDROOT
BRANCH   7  14
ATOM     11  N   UNL     1      36.829 -23.836 -15.563  0.00  0.00    -0.326 NA
ATOM     12  N   UNL     1      35.635 -25.429 -14.205  0.00  0.00    -0.326 NA
ATOM     13  N   UNL     1      39.193 -23.718 -15.472  0.00  0.00    -0.334 N 
ATOM     14  C   UNL     1      35.711 -24.434 -15.109  0.00  0.00    +0.156 C 
ATOM     15  C   UNL     1      38.037 -25.322 -14.105  0.00  0.00    +0.210 C 
ATOM     16  C   UNL     1      37.979 -24.307 -15.037  0.00  0.00    +0.193 C 
ATOM     17  C   UNL     1      36.822 -25.852 -13.721  0.00  0.00    +0.193 C 
ATOM     18  H   UNL     1      39.176 -22.992 -16.137  0.00  0.00    +0.144 HD
ATOM     19  H   UNL     1      40.051 -24.034 -15.110  0.00  0.00    +0.144 HD
ATOM     20  N   UNL     1      36.810 -26.899 -12.767  0.00  0.00    -0.334 N 
ATOM     21  H   UNL     1      35.955 -27.292 -12.479  0.00  0.00    +0.144 HD
ATOM     22  H   UNL     1      37.657 -27.234 -12.394  0.00  0.00    +0.144 HD
BRANCH  15  24
ATOM     23  O   UNL     1      40.449 -26.480 -15.474  0.00  0.00    -0.226 OA
ATOM     24  N   UNL     1      39.247 -25.786 -13.584  0.00  0.00    -0.258 N 
ATOM     25  C   UNL     1      40.339 -26.316 -14.265  0.00  0.00    +0.402 C 
ATOM     26  H   UNL     1      39.341 -25.731 -12.605  0.00  0.00    +0.154 HD
BRANCH  25  27
ATOM     27  O   UNL     1      41.317 -26.644 -13.365  0.00  0.00    -0.431 OA
ATOM     28  C   UNL     1      41.715 -28.020 -13.343  0.00  0.00    +0.257 C 
ENDBRANCH  25  27
ENDBRANCH  15  24
ENDBRANCH   7  14
BRANCH   2  29
ATOM     29  C   UNL     1      32.677 -22.540 -18.285  0.00  0.00    +0.146 C 
BRANCH  29  31
ATOM     30  F   UNL     1      32.211 -20.437 -20.126  0.00  0.00    -0.204 F 
ATOM     31  C   UNL     1      33.782 -21.854 -19.047  0.00  0.00    +0.027 C 
ATOM     32  C   UNL     1      33.481 -20.824 -19.940  0.00  0.00    +0.138 C 
ATOM     33  C   UNL     1      35.107 -22.248 -18.860  0.00  0.00    -0.000 C 
ATOM     34  C   UNL     1      34.505 -20.189 -20.644  0.00  0.00    +0.029 C 
ATOM     35  C   UNL     1      36.131 -21.614 -19.565  0.00  0.00    -0.000 C 
ATOM     36  C   UNL     1      35.830 -20.585 -20.457  0.00  0.00    +0.002 C 
ENDBRANCH  29  31
ENDBRANCH   2  29
TORSDOF 5
ENDMDL
MODEL 5
REMARK VINA RESULT:      -9.7      1.705      4.571
REMARK  Name = 54674461
REMARK  5 active torsions:
REMARK  status: ('A' for Active; 'I' for Inactive)
REMARK    1  A    between atoms: N_2  and  C_29
REMARK    2  A    between atoms: C_7  and  C_14
REMARK    3  A    between atoms: C_15  and  N_21
REMARK    4  A    between atoms: C_22  and  O_24
REMARK    5  A    between atoms: C_29  and  C_31
REMARK                            x       y       z     vdW  Elec       q    Type
REMARK                         _______ _______ _______ _____ _____    ______ ____
ROOT
ATOM      1  F   UNL     1      39.049 -25.223 -13.398  0.00  0.00    -0.207 F 
ATOM      2  N   UNL     1      33.739 -24.560 -13.873  0.00  0.00    -0.193 N 
ATOM      3  N   UNL     1      33.557 -23.895 -15.027  0.00  0.00    -0.168 NA
ATOM      4  N   UNL     1      35.523 -25.461 -12.509  0.00  0.00    -0.251 NA
ATOM      5  C   UNL     1      35.779 -24.280 -14.639  0.00  0.00    +0.133 C 
ATOM      6  C   UNL     1      35.049 -24.817 -13.590  0.00  0.00    +0.133 C 
ATOM      7  C   UNL     1      34.801 -23.727 -15.490  0.00  0.00    +0.172 C 
ATOM      8  C   UNL     1      37.173 -24.405 -14.600  0.00  0.00    +0.015 C 
ATOM      9  C   UNL     1      37.724 -25.066 -13.502  0.00  0.00    +0.139 C 
ATOM     10  C   UNL     1      36.874 -25.557 -12.516  0.00  0.00    +0.182 C 
ENDROOT
BRANCH   7  14
ATOM     11  N   UNL     1      34.055 -23.153 -17.666  0.00  0.00    -0.326 NA
ATOM     12  N   UNL     1      36.178 -22.357 -16.850  0.00  0.00    -0.326 NA
ATOM     13  N   UNL     1      33.314 -22.576 -19.840  0.00  0.00    -0.334 N 
ATOM     14  C   UNL     1      35.024 -23.041 -16.737  0.00  0.00    +0.156 C 
ATOM     15  C   UNL     1      35.439 -21.765 -19.063  0.00  0.00    +0.210 C 
ATOM     16  C   UNL     1      34.296 -22.500 -18.821  0.00  0.00    +0.193 C 
ATOM     17  C   UNL     1      36.355 -21.729 -18.031  0.00  0.00    +0.193 C 
ATOM     18  H   UNL     1      32.490 -23.095 -19.691  0.00  0.00    +0.144 HD
ATOM     19  H   UNL     1      33.455 -22.111 -20.696  0.00  0.00    +0.144 HD
ATOM     20  N   UNL     1      37.552 -20.993 -18.213  0.00  0.00    -0.334 N 
ATOM     21  H   UNL     1      38.220 -20.953 -17.491  0.00  0.00    +0.144 HD
ATOM     22  H   UNL     1      37.716 -20.522 -19.062  0.00  0.00    +0.144 HD
BRANCH  15  24
ATOM     23  O   UNL     1      33.790 -19.705 -20.500  0.00  0.00    -0.226 OA
ATOM     24  N   UNL     1      35.657 -21.103 -20.273  0.00  0.00    -0.258 N 
ATOM     25  C   UNL     1      34.858 -20.152 -20.899  0.00  0.00    +0.402 C 
ATOM     26  H   UNL     1      36.488 -21.341 -20.747  0.00  0.00    +0.154 HD
BRANCH  25  27
ATOM     27  O   UNL     1      35.450 -19.764 -22.071  0.00  0.00    -0.431 OA
ATOM     28  C   UNL     1      34.562 -19.457 -23.152  0.00  0.00    +0.257 C 
ENDBRANCH  25  27
ENDBRANCH  15  24
ENDBRANCH   7  14
BRANCH   2  29
ATOM     29  C   UNL     1      32.594 -24.924 -13.073  0.00  0.00    +0.146 C 
BRANCH  29  31
ATOM     30  F   UNL     1      31.580 -22.338 -13.633  0.00  0.00    -0.204 F 
ATOM     31  C   UNL     1      31.279 -24.689 -13.772  0.00  0.00    +0.027 C 
ATOM     32  C   UNL     1      30.839 -23.388 -14.017  0.00  0.00    +0.138 C 
ATOM     33  C   UNL     1      30.501 -25.775 -14.175  0.00  0.00    -0.000 C 
ATOM     34  C   UNL     1      29.623 -23.172 -14.664  0.00  0.00    +0.029 C 
ATOM     35  C   UNL     1      29.283 -25.559 -14.822  0.00  0.00    -0.000 C 
ATOM     36  C   UNL     1      28.844 -24.258 -15.066  0.00  0.00    +0.002 C 
ENDBRANCH  29  31
ENDBRANCH   2  29
TORSDOF 5
ENDMDL
MODEL 6
REMARK VINA RESULT:      -9.7      3.935      7.407
REMARK  Name = 54674461
REMARK  5 active torsions:
REMARK  status: ('A' for Active; 'I' for Inactive)
REMARK    1  A    between atoms: N_2  and  C_29
REMARK    2  A    between atoms: C_7  and  C_14
REMARK    3  A    between atoms: C_15  and  N_21
REMARK    4  A    between atoms: C_22  and  O_24
REMARK    5  A    between atoms: C_29  and  C_31
REMARK                            x       y       z     vdW  Elec       q    Type
REMARK                         _______ _______ _______ _____ _____    ______ ____
ROOT
ATOM      1  F   UNL     1      35.851 -21.092 -20.421  0.00  0.00    -0.207 F 
ATOM      2  N   UNL     1      32.574 -23.184 -16.713  0.00  0.00    -0.193 N 
ATOM      3  N   UNL     1      33.374 -23.817 -15.836  0.00  0.00    -0.168 NA
ATOM      4  N   UNL     1      32.711 -21.888 -18.752  0.00  0.00    -0.251 NA
ATOM      5  C   UNL     1      34.592 -22.847 -17.513  0.00  0.00    +0.133 C 
ATOM      6  C   UNL     1      33.250 -22.586 -17.737  0.00  0.00    +0.133 C 
ATOM      7  C   UNL     1      34.601 -23.609 -16.327  0.00  0.00    +0.172 C 
ATOM      8  C   UNL     1      35.521 -22.341 -18.430  0.00  0.00    +0.015 C 
ATOM      9  C   UNL     1      35.021 -21.607 -19.505  0.00  0.00    +0.139 C 
ATOM     10  C   UNL     1      33.647 -21.419 -19.611  0.00  0.00    +0.182 C 
ENDROOT
BRANCH   7  14
ATOM     11  N   UNL     1      36.938 -23.573 -15.931  0.00  0.00    -0.326 NA
ATOM     12  N   UNL     1      35.529 -25.166 -14.799  0.00  0.00    -0.326 NA
ATOM     13  N   UNL     1      39.272 -23.540 -15.532  0.00  0.00    -0.334 N 
ATOM     14  C   UNL     1      35.753 -24.145 -15.648  0.00  0.00    +0.156 C 
ATOM     15  C   UNL     1      37.900 -25.147 -14.385  0.00  0.00    +0.210 C 
ATOM     16  C   UNL     1      37.995 -24.100 -15.279  0.00  0.00    +0.193 C 
ATOM     17  C   UNL     1      36.629 -25.645 -14.182  0.00  0.00    +0.193 C 
ATOM     18  H   UNL     1      39.365 -22.793 -16.166  0.00  0.00    +0.144 HD
ATOM     19  H   UNL     1      40.066 -23.898 -15.073  0.00  0.00    +0.144 HD
ATOM     20  N   UNL     1      36.461 -26.722 -13.277  0.00  0.00    -0.334 N 
ATOM     21  H   UNL     1      35.564 -27.095 -13.116  0.00  0.00    +0.144 HD
ATOM     22  H   UNL     1      37.242 -27.099 -12.809  0.00  0.00    +0.144 HD
BRANCH  15  24
ATOM     23  O   UNL     1      40.383 -26.446 -15.470  0.00  0.00    -0.226 OA
ATOM     24  N   UNL     1      39.017 -25.670 -13.730  0.00  0.00    -0.258 N 
ATOM     25  C   UNL     1      40.148 -26.264 -14.282  0.00  0.00    +0.402 C 
ATOM     26  H   UNL     1      39.003 -25.610 -12.747  0.00  0.00    +0.154 HD
BRANCH  25  27
ATOM     27  O   UNL     1      40.999 -26.635 -13.276  0.00  0.00    -0.431 OA
ATOM     28  C   UNL     1      41.717 -27.858 -13.480  0.00  0.00    +0.257 C 
ENDBRANCH  25  27
ENDBRANCH  15  24
ENDBRANCH   7  14
BRANCH   2  29
ATOM     29  C   UNL     1      31.145 -23.192 -16.507  0.00  0.00    +0.146 C 
BRANCH  29  31
ATOM     30  F   UNL     1      31.644 -22.326 -13.855  0.00  0.00    -0.204 F 
ATOM     31  C   UNL     1      30.721 -23.976 -15.291  0.00  0.00    +0.027 C 
ATOM     32  C   UNL     1      31.000 -23.490 -14.013  0.00  0.00    +0.138 C 
ATOM     33  C   UNL     1      30.050 -25.189 -15.445  0.00  0.00    -0.000 C 
ATOM     34  C   UNL     1      30.606 -24.217 -12.890  0.00  0.00    +0.029 C 
ATOM     35  C   UNL     1      29.657 -25.917 -14.321  0.00  0.00    -0.000 C 
ATOM     36  C   UNL     1      29.936 -25.431 -13.043  0.00  0.00    +0.002 C 
ENDBRANCH  29  31
ENDBRANCH   2  29
TORSDOF 5
ENDMDL
MODEL 7
REMARK VINA RESULT:      -9.3      1.623      2.636
REMARK  Name = 54674461
REMARK  5 active torsions:
REMARK  status: ('A' for Active; 'I' for Inactive)
REMARK    1  A    between atoms: N_2  and  C_29
REMARK    2  A    between atoms: C_7  and  C_14
REMARK    3  A    between atoms: C_15  and  N_21
REMARK    4  A    between atoms: C_22  and  O_24
REMARK    5  A    between atoms: C_29  and  C_31
REMARK                            x       y       z     vdW  Elec       q    Type
REMARK                         _______ _______ _______ _____ _____    ______ ____
ROOT
ATOM      1  F   UNL     1      31.657 -24.202 -15.426  0.00  0.00    -0.207 F 
ATOM      2  N   UNL     1      36.943 -23.338 -15.846  0.00  0.00    -0.193 N 
ATOM      3  N   UNL     1      37.102 -22.580 -16.946  0.00  0.00    -0.168 NA
ATOM      4  N   UNL     1      35.191 -24.399 -14.558  0.00  0.00    -0.251 NA
ATOM      5  C   UNL     1      34.894 -23.063 -16.588  0.00  0.00    +0.133 C 
ATOM      6  C   UNL     1      35.642 -23.657 -15.585  0.00  0.00    +0.133 C 
ATOM      7  C   UNL     1      35.852 -22.415 -17.393  0.00  0.00    +0.172 C 
ATOM      8  C   UNL     1      33.505 -23.235 -16.560  0.00  0.00    +0.015 C 
ATOM      9  C   UNL     1      32.976 -23.996 -15.517  0.00  0.00    +0.139 C 
ATOM     10  C   UNL     1      33.844 -24.537 -14.573  0.00  0.00    +0.182 C 
ENDROOT
BRANCH   7  14
ATOM     11  N   UNL     1      36.668 -21.011 -19.122  0.00  0.00    -0.326 NA
ATOM     12  N   UNL     1      34.338 -21.620 -19.035  0.00  0.00    -0.326 NA
ATOM     13  N   UNL     1      37.477 -19.609 -20.850  0.00  0.00    -0.334 N 
ATOM     14  C   UNL     1      35.606 -21.639 -18.583  0.00  0.00    +0.156 C 
ATOM     15  C   UNL     1      35.146 -20.192 -20.797  0.00  0.00    +0.210 C 
ATOM     16  C   UNL     1      36.401 -20.294 -20.233  0.00  0.00    +0.193 C 
ATOM     17  C   UNL     1      34.142 -20.883 -20.149  0.00  0.00    +0.193 C 
ATOM     18  H   UNL     1      38.382 -19.667 -20.466  0.00  0.00    +0.144 HD
ATOM     19  H   UNL     1      37.321 -19.077 -21.663  0.00  0.00    +0.144 HD
ATOM     20  N   UNL     1      32.828 -20.820 -20.675  0.00  0.00    -0.334 N 
ATOM     21  H   UNL     1      32.096 -21.305 -20.230  0.00  0.00    +0.144 HD
ATOM     22  H   UNL     1      32.648 -20.291 -21.486  0.00  0.00    +0.144 HD
BRANCH  15  24
ATOM     23  O   UNL     1      35.241 -17.224 -21.253  0.00  0.00    -0.226 OA
ATOM     24  N   UNL     1      34.906 -19.437 -21.947  0.00  0.00    -0.258 N 
ATOM     25  C   UNL     1      34.964 -18.057 -22.107  0.00  0.00    +0.402 C 
ATOM     26  H   UNL     1      34.664 -19.951 -22.752  0.00  0.00    +0.154 HD
BRANCH  25  27
ATOM     27  O   UNL     1      34.656 -17.738 -23.402  0.00  0.00    -0.431 OA
ATOM     28  C   UNL     1      35.194 -16.504 -23.891  0.00  0.00    +0.257 C 
ENDBRANCH  25  27
ENDBRANCH  15  24
ENDBRANCH   7  14
BRANCH   2  29
ATOM     29  C   UNL     1      38.101 -23.729 -15.078  0.00  0.00    +0.146 C 
BRANCH  29  31
ATOM     30  F   UNL     1      37.750 -23.190 -12.318  0.00  0.00    -0.204 F 
ATOM     31  C   UNL     1      37.807 -24.803 -14.060  0.00  0.00    +0.027 C 
ATOM     32  C   UNL     1      37.646 -24.466 -12.715  0.00  0.00    +0.138 C 
ATOM     33  C   UNL     1      37.697 -26.133 -14.464  0.00  0.00    -0.000 C 
ATOM     34  C   UNL     1      37.374 -25.460 -11.776  0.00  0.00    +0.029 C 
ATOM     35  C   UNL     1      37.425 -27.128 -13.524  0.00  0.00    -0.000 C 
ATOM     36  C   UNL     1      37.265 -26.792 -12.180  0.00  0.00    +0.002 C 
ENDBRANCH  29  31
ENDBRANCH   2  29
TORSDOF 5
ENDMDL
MODEL 8
REMARK VINA RESULT:      -9.2      1.571      2.022
REMARK  Name = 54674461
REMARK  5 active torsions:
REMARK  status: ('A' for Active; 'I' for Inactive)
REMARK    1  A    between atoms: N_2  and  C_29
REMARK    2  A    between atoms: C_7  and  C_14
REMARK    3  A    between atoms: C_15  and  N_21
REMARK    4  A    between atoms: C_22  and  O_24
REMARK    5  A    between atoms: C_29  and  C_31
REMARK                            x       y       z     vdW  Elec       q    Type
REMARK                         _______ _______ _______ _____ _____    ______ ____
ROOT
ATOM      1  F   UNL     1      31.372 -24.280 -15.606  0.00  0.00    -0.207 F 
ATOM      2  N   UNL     1      36.671 -23.464 -15.934  0.00  0.00    -0.193 N 
ATOM      3  N   UNL     1      36.851 -22.661 -16.998  0.00  0.00    -0.168 NA
ATOM      4  N   UNL     1      34.893 -24.559 -14.711  0.00  0.00    -0.251 NA
ATOM      5  C   UNL     1      34.633 -23.132 -16.684  0.00  0.00    +0.133 C 
ATOM      6  C   UNL     1      35.364 -23.778 -15.700  0.00  0.00    +0.133 C 
ATOM      7  C   UNL     1      35.608 -22.461 -17.450  0.00  0.00    +0.172 C 
ATOM      8  C   UNL     1      33.242 -23.288 -16.678  0.00  0.00    +0.015 C 
ATOM      9  C   UNL     1      32.694 -24.087 -15.674  0.00  0.00    +0.139 C 
ATOM     10  C   UNL     1      33.545 -24.679 -14.746  0.00  0.00    +0.182 C 
ENDROOT
BRANCH   7  14
ATOM     11  N   UNL     1      34.120 -21.573 -19.068  0.00  0.00    -0.326 NA
ATOM     12  N   UNL     1      36.460 -21.000 -19.112  0.00  0.00    -0.326 NA
ATOM     13  N   UNL     1      32.637 -20.684 -20.687  0.00  0.00    -0.334 N 
ATOM     14  C   UNL     1      35.383 -21.632 -18.607  0.00  0.00    +0.156 C 
ATOM     15  C   UNL     1      34.965 -20.090 -20.765  0.00  0.00    +0.210 C 
ATOM     16  C   UNL     1      33.946 -20.790 -20.153  0.00  0.00    +0.193 C 
ATOM     17  C   UNL     1      36.214 -20.234 -20.195  0.00  0.00    +0.193 C 
ATOM     18  H   UNL     1      31.893 -21.174 -20.267  0.00  0.00    +0.144 HD
ATOM     19  H   UNL     1      32.472 -20.120 -21.477  0.00  0.00    +0.144 HD
ATOM     20  N   UNL     1      37.307 -19.544 -20.776  0.00  0.00    -0.334 N 
ATOM     21  H   UNL     1      38.207 -19.632 -20.387  0.00  0.00    +0.144 HD
ATOM     22  H   UNL     1      37.166 -18.977 -21.568  0.00  0.00    +0.144 HD
BRANCH  15  24
ATOM     23  O   UNL     1      35.243 -20.703 -23.693  0.00  0.00    -0.226 OA
ATOM     24  N   UNL     1      34.749 -19.290 -21.889  0.00  0.00    -0.258 N 
ATOM     25  C   UNL     1      34.893 -19.623 -23.232  0.00  0.00    +0.402 C 
ATOM     26  H   UNL     1      34.456 -18.367 -21.707  0.00  0.00    +0.154 HD
BRANCH  25  27
ATOM     27  O   UNL     1      34.576 -18.538 -24.004  0.00  0.00    -0.431 OA
ATOM     28  C   UNL     1      35.042 -17.270 -23.526  0.00  0.00    +0.257 C 
ENDBRANCH  25  27
ENDBRANCH  15  24
ENDBRANCH   7  14
BRANCH   2  29
ATOM     29  C   UNL     1      37.816 -23.903 -15.172  0.00  0.00    +0.146 C 
BRANCH  29  31
ATOM     30  F   UNL     1      37.747 -26.493 -14.022  0.00  0.00    -0.204 F 
ATOM     31  C   UNL     1      37.506 -24.151 -13.717  0.00  0.00    +0.027 C 
ATOM     32  C   UNL     1      37.489 -25.453 -13.217  0.00  0.00    +0.138 C 
ATOM     33  C   UNL     1      37.236 -23.076 -12.870  0.00  0.00    -0.000 C 
ATOM     34  C   UNL     1      37.202 -25.680 -11.871  0.00  0.00    +0.029 C 
ATOM     35  C   UNL     1      36.948 -23.303 -11.524  0.00  0.00    -0.000 C 
ATOM     36  C   UNL     1      36.931 -24.604 -11.024  0.00  0.00    +0.002 C 
ENDBRANCH  29  31
ENDBRANCH   2  29
TORSDOF 5
ENDMDL
MODEL 9
REMARK VINA RESULT:      -9.0      4.305      7.957
REMARK  Name = 54674461
REMARK  5 active torsions:
REMARK  status: ('A' for Active; 'I' for Inactive)
REMARK    1  A    between atoms: N_2  and  C_29
REMARK    2  A    between atoms: C_7  and  C_14
REMARK    3  A    between atoms: C_15  and  N_21
REMARK    4  A    between atoms: C_22  and  O_24
REMARK    5  A    between atoms: C_29  and  C_31
REMARK                            x       y       z     vdW  Elec       q    Type
REMARK                         _______ _______ _______ _____ _____    ______ ____
ROOT
ATOM      1  F   UNL     1      34.152 -22.388 -19.148  0.00  0.00    -0.207 F 
ATOM      2  N   UNL     1      32.101 -23.939 -14.431  0.00  0.00    -0.193 N 
ATOM      3  N   UNL     1      33.126 -24.479 -13.749  0.00  0.00    -0.168 NA
ATOM      4  N   UNL     1      31.631 -22.904 -16.567  0.00  0.00    -0.251 NA
ATOM      5  C   UNL     1      33.801 -23.749 -15.809  0.00  0.00    +0.133 C 
ATOM      6  C   UNL     1      32.448 -23.486 -15.671  0.00  0.00    +0.133 C 
ATOM      7  C   UNL     1      34.158 -24.361 -14.591  0.00  0.00    +0.172 C 
ATOM      8  C   UNL     1      34.422 -23.379 -17.008  0.00  0.00    +0.015 C 
ATOM      9  C   UNL     1      33.626 -22.769 -17.978  0.00  0.00    +0.139 C 
ATOM     10  C   UNL     1      32.276 -22.564 -17.708  0.00  0.00    +0.182 C 
ENDROOT
BRANCH   7  14
ATOM     11  N   UNL     1      36.094 -24.149 -13.238  0.00  0.00    -0.326 NA
ATOM     12  N   UNL     1      35.922 -25.921 -14.861  0.00  0.00    -0.326 NA
ATOM     13  N   UNL     1      38.029 -23.942 -11.888  0.00  0.00    -0.334 N 
ATOM     14  C   UNL     1      35.463 -24.837 -14.209  0.00  0.00    +0.156 C 
ATOM     15  C   UNL     1      37.896 -25.722 -13.498  0.00  0.00    +0.210 C 
ATOM     16  C   UNL     1      37.313 -24.621 -12.906  0.00  0.00    +0.193 C 
ATOM     17  C   UNL     1      37.148 -26.339 -14.480  0.00  0.00    +0.193 C 
ATOM     18  H   UNL     1      37.633 -23.154 -11.451  0.00  0.00    +0.144 HD
ATOM     19  H   UNL     1      38.921 -24.259 -11.619  0.00  0.00    +0.144 HD
ATOM     20  N   UNL     1      37.689 -27.476 -15.131  0.00  0.00    -0.334 N 
ATOM     21  H   UNL     1      37.173 -27.932 -15.834  0.00  0.00    +0.144 HD
ATOM     22  H   UNL     1      38.581 -27.808 -14.879  0.00  0.00    +0.144 HD
BRANCH  15  24
ATOM     23  O   UNL     1      40.461 -25.865 -15.058  0.00  0.00    -0.226 OA
ATOM     24  N   UNL     1      39.164 -26.182 -13.131  0.00  0.00    -0.258 N 
ATOM     25  C   UNL     1      40.325 -26.226 -13.895  0.00  0.00    +0.402 C 
ATOM     26  H   UNL     1      39.245 -26.519 -12.209  0.00  0.00    +0.154 HD
BRANCH  25  27
ATOM     27  O   UNL     1      41.341 -26.751 -13.143  0.00  0.00    -0.431 OA
ATOM     28  C   UNL     1      41.737 -28.089 -13.466  0.00  0.00    +0.257 C 
ENDBRANCH  25  27
ENDBRANCH  15  24
ENDBRANCH   7  14
BRANCH   2  29
ATOM     29  C   UNL     1      30.791 -23.889 -13.827  0.00  0.00    +0.146 C 
BRANCH  29  31
ATOM     30  F   UNL     1      30.051 -26.087 -15.456  0.00  0.00    -0.204 F 
ATOM     31  C   UNL     1      29.670 -23.827 -14.834  0.00  0.00    +0.027 C 
ATOM     32  C   UNL     1      29.359 -24.948 -15.604  0.00  0.00    +0.138 C 
ATOM     33  C   UNL     1      28.944 -22.647 -14.996  0.00  0.00    -0.000 C 
ATOM     34  C   UNL     1      28.322 -24.889 -16.535  0.00  0.00    +0.029 C 
ATOM     35  C   UNL     1      27.907 -22.588 -15.928  0.00  0.00    -0.000 C 
ATOM     36  C   UNL     1      27.597 -23.709 -16.698  0.00  0.00    +0.002 C 
ENDBRANCH  29  31
ENDBRANCH   2  29
TORSDOF 5
ENDMDL
