MODEL 1
REMARK VINA RESULT:     -11.7      0.000      0.000
REMARK  Name = 93184
REMARK  8 active torsions:
REMARK  status: ('A' for Active; 'I' for Inactive)
REMARK    1  A    between atoms: C_1  and  C_2
REMARK    2  A    between atoms: C_1  and  C_10
REMARK    3  A    between atoms: C_1  and  C_27
REMARK    4  A    between atoms: N_9  and  CA_18
REMARK    5  A    between atoms: CA_17  and  C_23
REMARK    6  A    between atoms: C_23  and  O_24
REMARK    7  A    between atoms: C_27  and  O_28
REMARK    8  A    between atoms: O_28  and  C_35
REMARK                            x       y       z     vdW  Elec       q    Type
REMARK                         _______ _______ _______ _____ _____    ______ ____
ROOT
ATOM      1  C   UNL     1      32.492 -23.708 -16.526  0.00  0.00    +0.198 C 
ENDROOT
BRANCH   1   2
ATOM      2  C   UNL     1      31.079 -23.836 -15.985  0.00  0.00    -0.003 C 
ATOM      3  C   UNL     1      30.714 -24.998 -15.333  0.00  0.00    -0.003 C 
ATOM      4  C   UNL     1      30.197 -22.787 -16.159  0.00  0.00    -0.003 C 
ATOM      5  C   UNL     1      29.416 -25.116 -14.836  0.00  0.00    -0.000 C 
ATOM      6  C   UNL     1      28.899 -22.905 -15.662  0.00  0.00    -0.000 C 
ATOM      7  C   UNL     1      28.508 -24.070 -15.001  0.00  0.00    -0.000 C 
ENDBRANCH   1   2
BRANCH   1  10
ATOM      8  O   UNL     1      33.041 -23.056 -14.256  0.00  0.00    -0.274 OA
ATOM      9  N   UNL     1      34.785 -23.321 -15.762  0.00  0.00    -0.296 N 
ATOM     10  C   UNL     1      33.440 -23.322 -15.389  0.00  0.00    +0.237 C 
ATOM     11  H   UNL     1      35.016 -23.546 -16.691  0.00  0.00    +0.150 HD
BRANCH   9  18
ATOM     12  S   UNL     1      35.511 -25.718 -13.985  0.00  0.00    -0.118 S 
ATOM     13  O   UNL     1      37.895 -22.893 -16.385  0.00  0.00    -0.273 OA
ATOM     14  N   UNL     1      37.543 -24.168 -14.430  0.00  0.00    -0.260 N 
ATOM     15  C   UNL     1      36.238 -24.051 -13.773  0.00  0.00    +0.151 C 
ATOM     16  C   UNL     1      37.198 -26.504 -13.926  0.00  0.00    +0.068 C 
ATOM     17  CA  UNL     1      38.100 -25.486 -14.658  0.00  0.00    +0.184 C 
ATOM     18  CA  UNL     1      35.873 -22.999 -14.828  0.00  0.00    +0.178 C 
ATOM     19  C   UNL     1      37.284 -23.245 -15.401  0.00  0.00    +0.247 C 
ATOM     20  C   UNL     1      37.561 -26.733 -12.453  0.00  0.00    +0.013 C 
ATOM     21  C   UNL     1      37.150 -27.841 -14.669  0.00  0.00    +0.013 C 
BRANCH  17  23
ATOM     22  OXT UNL     1      39.911 -24.956 -13.152  0.00  0.00    -0.248 OA
ATOM     23  C   UNL     1      39.524 -25.449 -14.200  0.00  0.00    +0.333 C 
BRANCH  23  24
ATOM     24  O   UNL     1      40.335 -26.038 -15.113  0.00  0.00    -0.479 OA
ATOM     25  H   UNL     1      41.132 -26.447 -14.836  0.00  0.00    +0.295 HD
ENDBRANCH  23  24
ENDBRANCH  17  23
ENDBRANCH   9  18
ENDBRANCH   1  10
BRANCH   1  27
ATOM     26  O   UNL     1      31.971 -21.706 -17.818  0.00  0.00    -0.249 OA
ATOM     27  C   UNL     1      32.571 -22.769 -17.722  0.00  0.00    +0.334 C 
BRANCH  27  28
ATOM     28  O   UNL     1      33.466 -23.293 -18.655  0.00  0.00    -0.424 OA
BRANCH  28  35
ATOM     29  C   UNL     1      35.823 -18.907 -21.925  0.00  0.00    +0.009 C 
ATOM     30  C   UNL     1      34.416 -19.259 -21.420  0.00  0.00    +0.026 C 
ATOM     31  C   UNL     1      36.807 -19.322 -20.821  0.00  0.00    +0.026 C 
ATOM     32  C   UNL     1      34.712 -20.425 -20.529  0.00  0.00    -0.023 C 
ATOM     33  C   UNL     1      36.070 -20.460 -20.189  0.00  0.00    -0.026 C 
ATOM     34  C   UNL     1      33.825 -21.359 -20.023  0.00  0.00    +0.033 C 
ATOM     35  C   UNL     1      34.320 -22.349 -19.171  0.00  0.00    +0.148 C 
ATOM     36  C   UNL     1      36.567 -21.430 -19.336  0.00  0.00    -0.001 C 
ATOM     37  C   UNL     1      35.682 -22.384 -18.830  0.00  0.00    +0.037 C 
ENDBRANCH  28  35
ENDBRANCH  27  28
ENDBRANCH   1  27
TORSDOF 8
ENDMDL
MODEL 2
REMARK VINA RESULT:     -10.1      1.335      5.240
REMARK  Name = 93184
REMARK  8 active torsions:
REMARK  status: ('A' for Active; 'I' for Inactive)
REMARK    1  A    between atoms: C_1  and  C_2
REMARK    2  A    between atoms: C_1  and  C_10
REMARK    3  A    between atoms: C_1  and  C_27
REMARK    4  A    between atoms: N_9  and  CA_18
REMARK    5  A    between atoms: CA_17  and  C_23
REMARK    6  A    between atoms: C_23  and  O_24
REMARK    7  A    between atoms: C_27  and  O_28
REMARK    8  A    between atoms: O_28  and  C_35
REMARK                            x       y       z     vdW  Elec       q    Type
REMARK                         _______ _______ _______ _____ _____    ______ ____
ROOT
ATOM      1  C   UNL     1      34.341 -22.415 -17.553  0.00  0.00    +0.198 C 
ENDROOT
BRANCH   1   2
ATOM      2  C   UNL     1      34.317 -21.650 -18.865  0.00  0.00    -0.003 C 
ATOM      3  C   UNL     1      35.508 -21.422 -19.528  0.00  0.00    -0.003 C 
ATOM      4  C   UNL     1      33.107 -21.203 -19.359  0.00  0.00    -0.003 C 
ATOM      5  C   UNL     1      35.486 -20.718 -20.733  0.00  0.00    -0.000 C 
ATOM      6  C   UNL     1      33.086 -20.500 -20.563  0.00  0.00    -0.000 C 
ATOM      7  C   UNL     1      34.276 -20.257 -21.250  0.00  0.00    -0.000 C 
ENDBRANCH   1   2
BRANCH   1  10
ATOM      8  O   UNL     1      36.672 -21.753 -17.483  0.00  0.00    -0.274 OA
ATOM      9  N   UNL     1      35.771 -22.758 -15.597  0.00  0.00    -0.296 N 
ATOM     10  C   UNL     1      35.718 -22.269 -16.903  0.00  0.00    +0.237 C 
ATOM     11  H   UNL     1      34.958 -23.156 -15.210  0.00  0.00    +0.150 HD
BRANCH   9  18
ATOM     12  S   UNL     1      35.913 -25.107 -13.624  0.00  0.00    -0.118 S 
ATOM     13  O   UNL     1      38.797 -23.349 -16.456  0.00  0.00    -0.273 OA
ATOM     14  N   UNL     1      38.264 -24.292 -14.358  0.00  0.00    -0.260 N 
ATOM     15  C   UNL     1      37.118 -23.729 -13.637  0.00  0.00    +0.151 C 
ATOM     16  C   UNL     1      37.290 -26.362 -13.589  0.00  0.00    +0.068 C 
ATOM     17  CA  UNL     1      38.382 -25.731 -14.479  0.00  0.00    +0.184 C 
ATOM     18  CA  UNL     1      36.987 -22.707 -14.773  0.00  0.00    +0.178 C 
ATOM     19  C   UNL     1      38.202 -23.416 -15.403  0.00  0.00    +0.247 C 
ATOM     20  C   UNL     1      37.702 -26.568 -12.125  0.00  0.00    +0.013 C 
ATOM     21  C   UNL     1      36.779 -27.677 -14.180  0.00  0.00    +0.013 C 
BRANCH  17  23
ATOM     22  OXT UNL     1      40.300 -27.185 -14.300  0.00  0.00    -0.248 OA
ATOM     23  C   UNL     1      39.788 -26.091 -14.119  0.00  0.00    +0.333 C 
BRANCH  23  24
ATOM     24  O   UNL     1      40.423 -25.034 -13.555  0.00  0.00    -0.479 OA
ATOM     25  H   UNL     1      39.970 -24.222 -13.441  0.00  0.00    +0.295 HD
ENDBRANCH  23  24
ENDBRANCH  17  23
ENDBRANCH   9  18
ENDBRANCH   1  10
BRANCH   1  27
ATOM     26  O   UNL     1      33.835 -24.455 -18.791  0.00  0.00    -0.249 OA
ATOM     27  C   UNL     1      33.903 -23.864 -17.720  0.00  0.00    +0.334 C 
BRANCH  27  28
ATOM     28  O   UNL     1      33.643 -24.410 -16.463  0.00  0.00    -0.424 OA
BRANCH  28  35
ATOM     29  C   UNL     1      28.008 -22.639 -15.692  0.00  0.00    +0.009 C 
ATOM     30  C   UNL     1      28.721 -23.657 -16.595  0.00  0.00    +0.026 C 
ATOM     31  C   UNL     1      28.740 -22.655 -14.342  0.00  0.00    +0.026 C 
ATOM     32  C   UNL     1      30.112 -23.607 -16.046  0.00  0.00    -0.023 C 
ATOM     33  C   UNL     1      30.122 -23.038 -14.767  0.00  0.00    -0.026 C 
ATOM     34  C   UNL     1      31.277 -24.076 -16.628  0.00  0.00    +0.033 C 
ATOM     35  C   UNL     1      32.469 -23.958 -15.912  0.00  0.00    +0.148 C 
ATOM     36  C   UNL     1      31.298 -22.928 -14.044  0.00  0.00    -0.001 C 
ATOM     37  C   UNL     1      32.480 -23.388 -14.628  0.00  0.00    +0.037 C 
ENDBRANCH  28  35
ENDBRANCH  27  28
ENDBRANCH   1  27
TORSDOF 8
ENDMDL
MODEL 3
REMARK VINA RESULT:      -9.7      2.028      6.500
REMARK  Name = 93184
REMARK  8 active torsions:
REMARK  status: ('A' for Active; 'I' for Inactive)
REMARK    1  A    between atoms: C_1  and  C_2
REMARK    2  A    between atoms: C_1  and  C_10
REMARK    3  A    between atoms: C_1  and  C_27
REMARK    4  A    between atoms: N_9  and  CA_18
REMARK    5  A    between atoms: CA_17  and  C_23
REMARK    6  A    between atoms: C_23  and  O_24
REMARK    7  A    between atoms: C_27  and  O_28
REMARK    8  A    between atoms: O_28  and  C_35
REMARK                            x       y       z     vdW  Elec       q    Type
REMARK                         _______ _______ _______ _____ _____    ______ ____
ROOT
ATOM      1  C   UNL     1      36.529 -23.097 -15.237  0.00  0.00    +0.198 C 
ENDROOT
BRANCH   1   2
ATOM      2  C   UNL     1      37.634 -23.913 -14.589  0.00  0.00    -0.003 C 
ATOM      3  C   UNL     1      38.728 -24.280 -15.348  0.00  0.00    -0.003 C 
ATOM      4  C   UNL     1      37.515 -24.266 -13.258  0.00  0.00    -0.003 C 
ATOM      5  C   UNL     1      39.743 -25.030 -14.753  0.00  0.00    -0.000 C 
ATOM      6  C   UNL     1      38.529 -25.015 -12.664  0.00  0.00    -0.000 C 
ATOM      7  C   UNL     1      39.644 -25.397 -13.411  0.00  0.00    -0.000 C 
ENDBRANCH   1   2
BRANCH   1  10
ATOM      8  O   UNL     1      35.519 -25.258 -15.673  0.00  0.00    -0.274 OA
ATOM      9  N   UNL     1      34.270 -23.361 -16.142  0.00  0.00    -0.296 N 
ATOM     10  C   UNL     1      35.412 -24.033 -15.703  0.00  0.00    +0.237 C 
ATOM     11  H   UNL     1      34.271 -22.376 -16.132  0.00  0.00    +0.150 HD
BRANCH   9  18
ATOM     12  S   UNL     1      32.569 -24.418 -13.815  0.00  0.00    -0.118 S 
ATOM     13  O   UNL     1      31.629 -22.119 -17.455  0.00  0.00    -0.273 OA
ATOM     14  N   UNL     1      31.135 -23.816 -15.891  0.00  0.00    -0.260 N 
ATOM     15  C   UNL     1      32.201 -24.772 -15.573  0.00  0.00    +0.151 C 
ATOM     16  C   UNL     1      30.800 -23.924 -13.503  0.00  0.00    +0.068 C 
ATOM     17  CA  UNL     1      30.384 -23.212 -14.809  0.00  0.00    +0.184 C 
ATOM     18  CA  UNL     1      33.067 -24.056 -16.618  0.00  0.00    +0.178 C 
ATOM     19  C   UNL     1      31.851 -23.131 -16.830  0.00  0.00    +0.247 C 
ATOM     20  C   UNL     1      30.003 -25.198 -13.190  0.00  0.00    +0.013 C 
ATOM     21  C   UNL     1      30.753 -22.969 -12.309  0.00  0.00    +0.013 C 
BRANCH  17  23
ATOM     22  OXT UNL     1      28.434 -24.239 -15.793  0.00  0.00    -0.248 OA
ATOM     23  C   UNL     1      28.935 -23.320 -15.163  0.00  0.00    +0.333 C 
BRANCH  23  24
ATOM     24  O   UNL     1      28.246 -22.253 -14.689  0.00  0.00    -0.479 OA
ATOM     25  H   UNL     1      28.706 -21.493 -14.393  0.00  0.00    +0.295 HD
ENDBRANCH  23  24
ENDBRANCH  17  23
ENDBRANCH   9  18
ENDBRANCH   1  10
BRANCH   1  27
ATOM     26  O   UNL     1      37.574 -21.094 -16.156  0.00  0.00    -0.249 OA
ATOM     27  C   UNL     1      37.053 -22.186 -16.340  0.00  0.00    +0.334 C 
BRANCH  27  28
ATOM     28  O   UNL     1      36.885 -22.819 -17.572  0.00  0.00    -0.424 OA
BRANCH  28  35
ATOM     29  C   UNL     1      35.952 -18.445 -21.506  0.00  0.00    +0.009 C 
ATOM     30  C   UNL     1      37.177 -19.229 -21.012  0.00  0.00    +0.026 C 
ATOM     31  C   UNL     1      34.776 -19.432 -21.534  0.00  0.00    +0.026 C 
ATOM     32  C   UNL     1      36.529 -20.263 -20.146  0.00  0.00    -0.023 C 
ATOM     33  C   UNL     1      35.166 -20.377 -20.443  0.00  0.00    -0.026 C 
ATOM     34  C   UNL     1      37.125 -21.073 -19.194  0.00  0.00    +0.033 C 
ATOM     35  C   UNL     1      36.326 -22.003 -18.525  0.00  0.00    +0.148 C 
ATOM     36  C   UNL     1      34.371 -21.306 -19.793  0.00  0.00    -0.001 C 
ATOM     37  C   UNL     1      34.959 -22.119 -18.823  0.00  0.00    +0.037 C 
ENDBRANCH  28  35
ENDBRANCH  27  28
ENDBRANCH   1  27
TORSDOF 8
ENDMDL
MODEL 4
REMARK VINA RESULT:      -9.4      1.781      5.622
REMARK  Name = 93184
REMARK  8 active torsions:
REMARK  status: ('A' for Active; 'I' for Inactive)
REMARK    1  A    between atoms: C_1  and  C_2
REMARK    2  A    between atoms: C_1  and  C_10
REMARK    3  A    between atoms: C_1  and  C_27
REMARK    4  A    between atoms: N_9  and  CA_18
REMARK    5  A    between atoms: CA_17  and  C_23
REMARK    6  A    between atoms: C_23  and  O_24
REMARK    7  A    between atoms: C_27  and  O_28
REMARK    8  A    between atoms: O_28  and  C_35
REMARK                            x       y       z     vdW  Elec       q    Type
REMARK                         _______ _______ _______ _____ _____    ______ ____
ROOT
ATOM      1  C   UNL     1      34.541 -22.480 -17.437  0.00  0.00    +0.198 C 
ENDROOT
BRANCH   1   2
ATOM      2  C   UNL     1      34.669 -21.720 -18.746  0.00  0.00    -0.003 C 
ATOM      3  C   UNL     1      35.925 -21.532 -19.291  0.00  0.00    -0.003 C 
ATOM      4  C   UNL     1      33.528 -21.237 -19.356  0.00  0.00    -0.003 C 
ATOM      5  C   UNL     1      36.043 -20.834 -20.493  0.00  0.00    -0.000 C 
ATOM      6  C   UNL     1      33.646 -20.539 -20.557  0.00  0.00    -0.000 C 
ATOM      7  C   UNL     1      34.904 -20.337 -21.126  0.00  0.00    -0.000 C 
ENDBRANCH   1   2
BRANCH   1  10
ATOM      8  O   UNL     1      36.782 -21.756 -16.859  0.00  0.00    -0.274 OA
ATOM      9  N   UNL     1      36.100 -23.855 -16.145  0.00  0.00    -0.296 N 
ATOM     10  C   UNL     1      35.924 -22.636 -16.802  0.00  0.00    +0.237 C 
ATOM     11  H   UNL     1      35.359 -24.503 -16.149  0.00  0.00    +0.150 HD
BRANCH   9  18
ATOM     12  S   UNL     1      35.924 -23.280 -13.134  0.00  0.00    -0.118 S 
ATOM     13  O   UNL     1      37.250 -26.766 -15.482  0.00  0.00    -0.273 OA
ATOM     14  N   UNL     1      37.494 -25.275 -13.668  0.00  0.00    -0.260 N 
ATOM     15  C   UNL     1      37.457 -23.840 -13.964  0.00  0.00    +0.151 C 
ATOM     16  C   UNL     1      36.123 -24.574 -11.809  0.00  0.00    +0.068 C 
ATOM     17  CA  UNL     1      36.702 -25.788 -12.568  0.00  0.00    +0.184 C 
ATOM     18  CA  UNL     1      37.342 -24.215 -15.448  0.00  0.00    +0.178 C 
ATOM     19  C   UNL     1      37.390 -25.679 -14.967  0.00  0.00    +0.247 C 
ATOM     20  C   UNL     1      37.047 -24.001 -10.725  0.00  0.00    +0.013 C 
ATOM     21  C   UNL     1      34.750 -24.892 -11.214  0.00  0.00    +0.013 C 
BRANCH  17  23
ATOM     22  OXT UNL     1      37.208 -27.475 -10.916  0.00  0.00    -0.248 OA
ATOM     23  C   UNL     1      37.591 -26.681 -11.762  0.00  0.00    +0.333 C 
BRANCH  23  24
ATOM     24  O   UNL     1      38.891 -26.488 -12.094  0.00  0.00    -0.479 OA
ATOM     25  H   UNL     1      39.233 -25.618 -12.163  0.00  0.00    +0.295 HD
ENDBRANCH  23  24
ENDBRANCH  17  23
ENDBRANCH   9  18
ENDBRANCH   1  10
BRANCH   1  27
ATOM     26  O   UNL     1      33.548 -24.329 -18.681  0.00  0.00    -0.249 OA
ATOM     27  C   UNL     1      33.802 -23.801 -17.605  0.00  0.00    +0.334 C 
BRANCH  27  28
ATOM     28  O   UNL     1      33.511 -24.324 -16.345  0.00  0.00    -0.424 OA
BRANCH  28  35
ATOM     29  C   UNL     1      27.809 -22.687 -15.802  0.00  0.00    +0.009 C 
ATOM     30  C   UNL     1      28.575 -23.717 -16.645  0.00  0.00    +0.026 C 
ATOM     31  C   UNL     1      28.500 -22.634 -14.431  0.00  0.00    +0.026 C 
ATOM     32  C   UNL     1      29.948 -23.607 -16.059  0.00  0.00    -0.023 C 
ATOM     33  C   UNL     1      29.904 -22.992 -14.802  0.00  0.00    -0.026 C 
ATOM     34  C   UNL     1      31.142 -24.064 -16.590  0.00  0.00    +0.033 C 
ATOM     35  C   UNL     1      32.309 -23.885 -15.844  0.00  0.00    +0.148 C 
ATOM     36  C   UNL     1      31.055 -22.822 -14.051  0.00  0.00    -0.001 C 
ATOM     37  C   UNL     1      32.266 -23.269 -14.584  0.00  0.00    +0.037 C 
ENDBRANCH  28  35
ENDBRANCH  27  28
ENDBRANCH   1  27
TORSDOF 8
ENDMDL
MODEL 5
REMARK VINA RESULT:      -9.1      9.278     13.658
REMARK  Name = 93184
REMARK  8 active torsions:
REMARK  status: ('A' for Active; 'I' for Inactive)
REMARK    1  A    between atoms: C_1  and  C_2
REMARK    2  A    between atoms: C_1  and  C_10
REMARK    3  A    between atoms: C_1  and  C_27
REMARK    4  A    between atoms: N_9  and  CA_18
REMARK    5  A    between atoms: CA_17  and  C_23
REMARK    6  A    between atoms: C_23  and  O_24
REMARK    7  A    between atoms: C_27  and  O_28
REMARK    8  A    between atoms: O_28  and  C_35
REMARK                            x       y       z     vdW  Elec       q    Type
REMARK                         _______ _______ _______ _____ _____    ______ ____
ROOT
ATOM      1  C   UNL     1      34.268 -13.883 -23.926  0.00  0.00    +0.198 C 
ENDROOT
BRANCH   1   2
ATOM      2  C   UNL     1      33.846 -14.214 -22.505  0.00  0.00    -0.003 C 
ATOM      3  C   UNL     1      34.822 -14.421 -21.549  0.00  0.00    -0.003 C 
ATOM      4  C   UNL     1      32.500 -14.298 -22.207  0.00  0.00    -0.003 C 
ATOM      5  C   UNL     1      34.435 -14.725 -20.243  0.00  0.00    -0.000 C 
ATOM      6  C   UNL     1      32.113 -14.603 -20.903  0.00  0.00    -0.000 C 
ATOM      7  C   UNL     1      33.080 -14.816 -19.920  0.00  0.00    -0.000 C 
ENDBRANCH   1   2
BRANCH   1  10
ATOM      8  O   UNL     1      33.932 -11.993 -25.407  0.00  0.00    -0.274 OA
ATOM      9  N   UNL     1      33.162 -11.815 -23.227  0.00  0.00    -0.296 N 
ATOM     10  C   UNL     1      33.788 -12.476 -24.285  0.00  0.00    +0.237 C 
ATOM     11  H   UNL     1      33.090 -12.276 -22.361  0.00  0.00    +0.150 HD
BRANCH   9  18
ATOM     12  S   UNL     1      31.571 -11.008 -20.728  0.00  0.00    -0.118 S 
ATOM     13  O   UNL     1      34.693  -9.006 -23.108  0.00  0.00    -0.273 OA
ATOM     14  N   UNL     1      32.665  -8.970 -21.901  0.00  0.00    -0.260 N 
ATOM     15  C   UNL     1      31.658  -9.981 -22.240  0.00  0.00    +0.151 C 
ATOM     16  C   UNL     1      31.976  -9.538 -19.658  0.00  0.00    +0.068 C 
ATOM     17  CA  UNL     1      32.987  -8.737 -20.508  0.00  0.00    +0.184 C 
ATOM     18  CA  UNL     1      32.607 -10.460 -23.347  0.00  0.00    +0.178 C 
ATOM     19  C   UNL     1      33.557  -9.347 -22.862  0.00  0.00    +0.247 C 
ATOM     20  C   UNL     1      30.666  -8.797 -19.359  0.00  0.00    +0.013 C 
ATOM     21  C   UNL     1      32.610 -10.031 -18.356  0.00  0.00    +0.013 C 
BRANCH  17  23
ATOM     22  OXT UNL     1      32.556  -6.435 -21.095  0.00  0.00    -0.248 OA
ATOM     23  C   UNL     1      32.971  -7.257 -20.292  0.00  0.00    +0.333 C 
BRANCH  23  24
ATOM     24  O   UNL     1      33.484  -6.945 -19.077  0.00  0.00    -0.479 OA
ATOM     25  H   UNL     1      33.449  -6.062 -18.766  0.00  0.00    +0.295 HD
ENDBRANCH  23  24
ENDBRANCH  17  23
ENDBRANCH   9  18
ENDBRANCH   1  10
BRANCH   1  27
ATOM     26  O   UNL     1      32.715 -14.999 -25.440  0.00  0.00    -0.249 OA
ATOM     27  C   UNL     1      33.823 -14.945 -24.923  0.00  0.00    +0.334 C 
BRANCH  27  28
ATOM     28  O   UNL     1      34.892 -15.804 -25.181  0.00  0.00    -0.424 OA
BRANCH  28  35
ATOM     29  C   UNL     1      35.983 -19.833 -20.931  0.00  0.00    +0.009 C 
ATOM     30  C   UNL     1      35.963 -18.299 -21.004  0.00  0.00    +0.026 C 
ATOM     31  C   UNL     1      34.860 -20.335 -21.851  0.00  0.00    +0.026 C 
ATOM     32  C   UNL     1      35.432 -18.082 -22.387  0.00  0.00    -0.023 C 
ATOM     33  C   UNL     1      34.807 -19.239 -22.867  0.00  0.00    -0.026 C 
ATOM     34  C   UNL     1      35.467 -16.922 -23.142  0.00  0.00    +0.033 C 
ATOM     35  C   UNL     1      34.871 -16.937 -24.405  0.00  0.00    +0.148 C 
ATOM     36  C   UNL     1      34.202 -19.258 -24.112  0.00  0.00    -0.001 C 
ATOM     37  C   UNL     1      34.243 -18.097 -24.886  0.00  0.00    +0.037 C 
ENDBRANCH  28  35
ENDBRANCH  27  28
ENDBRANCH   1  27
TORSDOF 8
ENDMDL
MODEL 6
REMARK VINA RESULT:      -8.9      8.689     13.365
REMARK  Name = 93184
REMARK  8 active torsions:
REMARK  status: ('A' for Active; 'I' for Inactive)
REMARK    1  A    between atoms: C_1  and  C_2
REMARK    2  A    between atoms: C_1  and  C_10
REMARK    3  A    between atoms: C_1  and  C_27
REMARK    4  A    between atoms: N_9  and  CA_18
REMARK    5  A    between atoms: CA_17  and  C_23
REMARK    6  A    between atoms: C_23  and  O_24
REMARK    7  A    between atoms: C_27  and  O_28
REMARK    8  A    between atoms: O_28  and  C_35
REMARK                            x       y       z     vdW  Elec       q    Type
REMARK                         _______ _______ _______ _____ _____    ______ ____
ROOT
ATOM      1  C   UNL     1      34.730 -15.090 -22.966  0.00  0.00    +0.198 C 
ENDROOT
BRANCH   1   2
ATOM      2  C   UNL     1      33.865 -15.053 -21.718  0.00  0.00    -0.003 C 
ATOM      3  C   UNL     1      32.688 -14.330 -21.741  0.00  0.00    -0.003 C 
ATOM      4  C   UNL     1      34.279 -15.742 -20.595  0.00  0.00    -0.003 C 
ATOM      5  C   UNL     1      31.894 -14.296 -20.594  0.00  0.00    -0.000 C 
ATOM      6  C   UNL     1      33.485 -15.707 -19.449  0.00  0.00    -0.000 C 
ATOM      7  C   UNL     1      32.292 -14.984 -19.448  0.00  0.00    -0.000 C 
ENDBRANCH   1   2
BRANCH   1  10
ATOM      8  O   UNL     1      33.633 -14.373 -25.006  0.00  0.00    -0.274 OA
ATOM      9  N   UNL     1      34.465 -12.738 -23.588  0.00  0.00    -0.296 N 
ATOM     10  C   UNL     1      34.218 -14.057 -23.971  0.00  0.00    +0.237 C 
ATOM     11  H   UNL     1      34.941 -12.575 -22.742  0.00  0.00    +0.150 HD
BRANCH   9  18
ATOM     12  S   UNL     1      32.172 -11.194 -22.251  0.00  0.00    -0.118 S 
ATOM     13  O   UNL     1      35.999  -9.969 -24.060  0.00  0.00    -0.273 OA
ATOM     14  N   UNL     1      33.689  -9.658 -23.688  0.00  0.00    -0.260 N 
ATOM     15  C   UNL     1      32.807 -10.805 -23.923  0.00  0.00    +0.151 C 
ATOM     16  C   UNL     1      32.267  -9.401 -21.755  0.00  0.00    +0.068 C 
ATOM     17  CA  UNL     1      33.540  -8.893 -22.467  0.00  0.00    +0.184 C 
ATOM     18  CA  UNL     1      34.046 -11.580 -24.390  0.00  0.00    +0.178 C 
ATOM     19  C   UNL     1      34.832 -10.289 -24.086  0.00  0.00    +0.247 C 
ATOM     20  C   UNL     1      30.969  -8.717 -22.205  0.00  0.00    +0.013 C 
ATOM     21  C   UNL     1      32.407  -9.313 -20.234  0.00  0.00    +0.013 C 
BRANCH  17  23
ATOM     22  OXT UNL     1      33.541  -7.025 -23.997  0.00  0.00    -0.248 OA
ATOM     23  C   UNL     1      33.523  -7.447 -22.850  0.00  0.00    +0.333 C 
BRANCH  23  24
ATOM     24  O   UNL     1      33.488  -6.660 -21.747  0.00  0.00    -0.479 OA
ATOM     25  H   UNL     1      33.842  -6.972 -20.938  0.00  0.00    +0.295 HD
ENDBRANCH  23  24
ENDBRANCH  17  23
ENDBRANCH   9  18
ENDBRANCH   1  10
BRANCH   1  27
ATOM     26  O   UNL     1      34.013 -17.020 -24.274  0.00  0.00    -0.249 OA
ATOM     27  C   UNL     1      34.846 -16.493 -23.548  0.00  0.00    +0.334 C 
BRANCH  27  28
ATOM     28  O   UNL     1      36.066 -17.048 -23.160  0.00  0.00    -0.424 OA
BRANCH  28  35
ATOM     29  C   UNL     1      33.795 -21.201 -19.544  0.00  0.00    +0.009 C 
ATOM     30  C   UNL     1      33.323 -20.483 -20.816  0.00  0.00    +0.026 C 
ATOM     31  C   UNL     1      35.311 -21.406 -19.687  0.00  0.00    +0.026 C 
ATOM     32  C   UNL     1      34.552 -19.713 -21.187  0.00  0.00    -0.023 C 
ATOM     33  C   UNL     1      35.680 -20.238 -20.546  0.00  0.00    -0.026 C 
ATOM     34  C   UNL     1      34.660 -18.651 -22.069  0.00  0.00    +0.033 C 
ATOM     35  C   UNL     1      35.925 -18.105 -22.294  0.00  0.00    +0.148 C 
ATOM     36  C   UNL     1      36.940 -19.710 -20.774  0.00  0.00    -0.001 C 
ATOM     37  C   UNL     1      37.057 -18.631 -21.652  0.00  0.00    +0.037 C 
ENDBRANCH  28  35
ENDBRANCH  27  28
ENDBRANCH   1  27
TORSDOF 8
ENDMDL
