MODEL 1
REMARK VINA RESULT:     -11.4      0.000      0.000
REMARK  Name = 71183216
REMARK  5 active torsions:
REMARK  status: ('A' for Active; 'I' for Inactive)
REMARK    1  A    between atoms: N_3  and  C_24
REMARK    2  A    between atoms: C_10  and  C_13
REMARK    3  A    between atoms: C_18  and  O_19
REMARK    4  A    between atoms: O_19  and  C_23
REMARK    5  A    between atoms: C_24  and  C_27
REMARK                            x       y       z     vdW  Elec       q    Type
REMARK                         _______ _______ _______ _____ _____    ______ ____
ROOT
ATOM      1  O   UNL     1      34.746 -16.247 -25.529  0.00  0.00    -0.473 OA
ATOM      2  O   UNL     1      35.462 -14.762 -21.957  0.00  0.00    -0.270 OA
ATOM      3  N   UNL     1      33.851 -14.353 -23.595  0.00  0.00    -0.259 N 
ATOM      4  C   UNL     1      32.875 -14.923 -24.520  0.00  0.00    +0.142 C 
ATOM      5  C   UNL     1      34.686 -16.613 -23.138  0.00  0.00    +0.087 C 
ATOM      6  C   UNL     1      33.553 -15.487 -25.764  0.00  0.00    +0.227 C 
ATOM      7  C   UNL     1      34.704 -15.161 -22.839  0.00  0.00    +0.253 C 
ATOM      8  C   UNL     1      34.671 -17.090 -24.456  0.00  0.00    +0.143 C 
ATOM      9  C   UNL     1      34.719 -17.517 -22.072  0.00  0.00    +0.008 C 
ATOM     10  C   UNL     1      34.728 -18.889 -22.326  0.00  0.00    +0.000 C 
ATOM     11  C   UNL     1      34.703 -18.461 -24.706  0.00  0.00    +0.037 C 
ATOM     12  C   UNL     1      34.719 -19.360 -23.640  0.00  0.00    +0.003 C 
ENDROOT
BRANCH  10  13
ATOM     13  C   UNL     1      34.752 -19.827 -21.224  0.00  0.00    +0.000 C 
ATOM     14  C   UNL     1      33.556 -20.281 -20.667  0.00  0.00    +0.003 C 
ATOM     15  C   UNL     1      35.972 -20.275 -20.717  0.00  0.00    +0.003 C 
ATOM     16  C   UNL     1      33.580 -21.184 -19.605  0.00  0.00    +0.037 C 
ATOM     17  C   UNL     1      35.996 -21.178 -19.654  0.00  0.00    +0.037 C 
ATOM     18  C   UNL     1      34.800 -21.632 -19.098  0.00  0.00    +0.147 C 
BRANCH  18  19
ATOM     19  O   UNL     1      34.824 -22.512 -18.059  0.00  0.00    -0.404 OA
BRANCH  19  23
ATOM     20  F   UNL     1      32.578 -22.808 -17.740  0.00  0.00    -0.133 F 
ATOM     21  F   UNL     1      33.984 -24.238 -16.872  0.00  0.00    -0.133 F 
ATOM     22  F   UNL     1      33.670 -24.229 -19.034  0.00  0.00    -0.133 F 
ATOM     23  C   UNL     1      33.753 -23.443 -17.941  0.00  0.00    +0.575 C 
ENDBRANCH  19  23
ENDBRANCH  18  19
ENDBRANCH  10  13
BRANCH   3  24
ATOM     24  C   UNL     1      33.880 -12.906 -23.459  0.00  0.00    +0.194 C 
BRANCH  24  27
ATOM     25  N   UNL     1      32.499 -11.139 -22.541  0.00  0.00    -0.217 NA
ATOM     26  N   UNL     1      32.524 -13.308 -21.491  0.00  0.00    -0.195 NA
ATOM     27  C   UNL     1      32.903 -12.419 -22.429  0.00  0.00    +0.028 C 
ATOM     28  C   UNL     1      31.621 -10.734 -21.598  0.00  0.00    +0.164 C 
ATOM     29  C   UNL     1      31.646 -12.837 -20.581  0.00  0.00    +0.107 C 
ATOM     30  C   UNL     1      31.156 -11.547 -20.585  0.00  0.00    +0.022 C 
ENDBRANCH  24  27
ENDBRANCH   3  24
TORSDOF 5
ENDMDL
MODEL 2
REMARK VINA RESULT:     -10.5      6.432     11.203
REMARK  Name = 71183216
REMARK  5 active torsions:
REMARK  status: ('A' for Active; 'I' for Inactive)
REMARK    1  A    between atoms: N_3  and  C_24
REMARK    2  A    between atoms: C_10  and  C_13
REMARK    3  A    between atoms: C_18  and  O_19
REMARK    4  A    between atoms: O_19  and  C_23
REMARK    5  A    between atoms: C_24  and  C_27
REMARK                            x       y       z     vdW  Elec       q    Type
REMARK                         _______ _______ _______ _____ _____    ______ ____
ROOT
ATOM      1  O   UNL     1      33.830 -24.439 -14.793  0.00  0.00    -0.473 OA
ATOM      2  O   UNL     1      37.152 -22.367 -15.166  0.00  0.00    -0.270 OA
ATOM      3  N   UNL     1      36.673 -24.632 -14.870  0.00  0.00    -0.259 N 
ATOM      4  C   UNL     1      35.881 -25.782 -15.301  0.00  0.00    +0.142 C 
ATOM      5  C   UNL     1      35.275 -23.187 -16.274  0.00  0.00    +0.087 C 
ATOM      6  C   UNL     1      34.466 -25.722 -14.738  0.00  0.00    +0.227 C 
ATOM      7  C   UNL     1      36.454 -23.353 -15.388  0.00  0.00    +0.253 C 
ATOM      8  C   UNL     1      34.036 -23.761 -15.961  0.00  0.00    +0.143 C 
ATOM      9  C   UNL     1      35.410 -22.409 -17.428  0.00  0.00    +0.008 C 
ATOM     10  C   UNL     1      34.312 -22.216 -18.266  0.00  0.00    +0.000 C 
ATOM     11  C   UNL     1      32.935 -23.547 -16.789  0.00  0.00    +0.037 C 
ATOM     12  C   UNL     1      33.077 -22.784 -17.948  0.00  0.00    +0.003 C 
ENDROOT
BRANCH  10  13
ATOM     13  C   UNL     1      34.450 -21.419 -19.466  0.00  0.00    +0.000 C 
ATOM     14  C   UNL     1      35.715 -21.176 -20.001  0.00  0.00    +0.003 C 
ATOM     15  C   UNL     1      33.318 -20.890 -20.086  0.00  0.00    +0.003 C 
ATOM     16  C   UNL     1      35.848 -20.407 -21.157  0.00  0.00    +0.037 C 
ATOM     17  C   UNL     1      33.451 -20.121 -21.242  0.00  0.00    +0.037 C 
ATOM     18  C   UNL     1      34.716 -19.879 -21.777  0.00  0.00    +0.147 C 
BRANCH  18  19
ATOM     19  O   UNL     1      34.846 -19.127 -22.904  0.00  0.00    -0.404 OA
BRANCH  19  23
ATOM     20  F   UNL     1      35.053 -17.073 -23.890  0.00  0.00    -0.133 F 
ATOM     21  F   UNL     1      36.641 -17.798 -22.575  0.00  0.00    -0.133 F 
ATOM     22  F   UNL     1      34.734 -17.182 -21.705  0.00  0.00    -0.133 F 
ATOM     23  C   UNL     1      35.303 -17.785 -22.770  0.00  0.00    +0.575 C 
ENDBRANCH  19  23
ENDBRANCH  18  19
ENDBRANCH  10  13
BRANCH   3  24
ATOM     24  C   UNL     1      37.730 -24.872 -13.900  0.00  0.00    +0.194 C 
BRANCH  24  27
ATOM     25  N   UNL     1      36.523 -25.456 -11.881  0.00  0.00    -0.217 NA
ATOM     26  N   UNL     1      37.717 -23.366 -12.001  0.00  0.00    -0.195 NA
ATOM     27  C   UNL     1      37.294 -24.543 -12.501  0.00  0.00    +0.028 C 
ATOM     28  C   UNL     1      36.150 -25.128 -10.626  0.00  0.00    +0.164 C 
ATOM     29  C   UNL     1      37.308 -23.103 -10.742  0.00  0.00    +0.107 C 
ATOM     30  C   UNL     1      36.516 -23.955 -10.000  0.00  0.00    +0.022 C 
ENDBRANCH  24  27
ENDBRANCH   3  24
TORSDOF 5
ENDMDL
MODEL 3
REMARK VINA RESULT:     -10.3      5.703     10.122
REMARK  Name = 71183216
REMARK  5 active torsions:
REMARK  status: ('A' for Active; 'I' for Inactive)
REMARK    1  A    between atoms: N_3  and  C_24
REMARK    2  A    between atoms: C_10  and  C_13
REMARK    3  A    between atoms: C_18  and  O_19
REMARK    4  A    between atoms: O_19  and  C_23
REMARK    5  A    between atoms: C_24  and  C_27
REMARK                            x       y       z     vdW  Elec       q    Type
REMARK                         _______ _______ _______ _____ _____    ______ ____
ROOT
ATOM      1  O   UNL     1      36.166 -24.016 -15.307  0.00  0.00    -0.473 OA
ATOM      2  O   UNL     1      32.938 -24.507 -17.501  0.00  0.00    -0.270 OA
ATOM      3  N   UNL     1      33.316 -23.948 -15.266  0.00  0.00    -0.259 N 
ATOM      4  C   UNL     1      34.050 -23.109 -14.323  0.00  0.00    +0.142 C 
ATOM      5  C   UNL     1      34.764 -23.128 -17.067  0.00  0.00    +0.087 C 
ATOM      6  C   UNL     1      35.472 -23.617 -14.118  0.00  0.00    +0.227 C 
ATOM      7  C   UNL     1      33.589 -23.923 -16.637  0.00  0.00    +0.253 C 
ATOM      8  C   UNL     1      35.979 -23.179 -16.371  0.00  0.00    +0.143 C 
ATOM      9  C   UNL     1      34.654 -22.339 -18.217  0.00  0.00    +0.008 C 
ATOM     10  C   UNL     1      35.752 -21.601 -18.659  0.00  0.00    +0.000 C 
ATOM     11  C   UNL     1      37.081 -22.457 -16.829  0.00  0.00    +0.037 C 
ATOM     12  C   UNL     1      36.963 -21.659 -17.966  0.00  0.00    +0.003 C 
ENDROOT
BRANCH  10  13
ATOM     13  C   UNL     1      35.638 -20.776 -19.843  0.00  0.00    +0.000 C 
ATOM     14  C   UNL     1      36.750 -20.082 -20.320  0.00  0.00    +0.003 C 
ATOM     15  C   UNL     1      34.415 -20.673 -20.505  0.00  0.00    +0.003 C 
ATOM     16  C   UNL     1      36.639 -19.286 -21.460  0.00  0.00    +0.037 C 
ATOM     17  C   UNL     1      34.304 -19.877 -21.645  0.00  0.00    +0.037 C 
ATOM     18  C   UNL     1      35.416 -19.183 -22.122  0.00  0.00    +0.147 C 
BRANCH  18  19
ATOM     19  O   UNL     1      35.308 -18.405 -23.233  0.00  0.00    -0.404 OA
BRANCH  19  23
ATOM     20  F   UNL     1      34.037 -16.654 -23.976  0.00  0.00    -0.133 F 
ATOM     21  F   UNL     1      36.065 -16.279 -23.253  0.00  0.00    -0.133 F 
ATOM     22  F   UNL     1      34.500 -16.800 -21.819  0.00  0.00    -0.133 F 
ATOM     23  C   UNL     1      34.959 -17.035 -23.066  0.00  0.00    +0.575 C 
ENDBRANCH  19  23
ENDBRANCH  18  19
ENDBRANCH  10  13
BRANCH   3  24
ATOM     24  C   UNL     1      32.259 -24.791 -14.732  0.00  0.00    +0.194 C 
BRANCH  24  27
ATOM     25  N   UNL     1      30.050 -25.023 -15.702  0.00  0.00    -0.217 NA
ATOM     26  N   UNL     1      30.649 -22.988 -14.558  0.00  0.00    -0.195 NA
ATOM     27  C   UNL     1      30.896 -24.231 -15.016  0.00  0.00    +0.028 C 
ATOM     28  C   UNL     1      28.834 -24.488 -15.939  0.00  0.00    +0.164 C 
ATOM     29  C   UNL     1      29.415 -22.516 -14.831  0.00  0.00    +0.107 C 
ATOM     30  C   UNL     1      28.457 -23.227 -15.524  0.00  0.00    +0.022 C 
ENDBRANCH  24  27
ENDBRANCH   3  24
TORSDOF 5
ENDMDL
MODEL 4
REMARK VINA RESULT:     -10.1      5.669      9.963
REMARK  Name = 71183216
REMARK  5 active torsions:
REMARK  status: ('A' for Active; 'I' for Inactive)
REMARK    1  A    between atoms: N_3  and  C_24
REMARK    2  A    between atoms: C_10  and  C_13
REMARK    3  A    between atoms: C_18  and  O_19
REMARK    4  A    between atoms: O_19  and  C_23
REMARK    5  A    between atoms: C_24  and  C_27
REMARK                            x       y       z     vdW  Elec       q    Type
REMARK                         _______ _______ _______ _____ _____    ______ ____
ROOT
ATOM      1  O   UNL     1      36.113 -23.945 -15.543  0.00  0.00    -0.473 OA
ATOM      2  O   UNL     1      32.854 -24.374 -17.702  0.00  0.00    -0.270 OA
ATOM      3  N   UNL     1      33.266 -23.849 -15.465  0.00  0.00    -0.259 N 
ATOM      4  C   UNL     1      34.019 -23.030 -14.520  0.00  0.00    +0.142 C 
ATOM      5  C   UNL     1      34.699 -23.019 -17.273  0.00  0.00    +0.087 C 
ATOM      6  C   UNL     1      35.439 -23.555 -14.340  0.00  0.00    +0.227 C 
ATOM      7  C   UNL     1      33.521 -23.809 -16.839  0.00  0.00    +0.253 C 
ATOM      8  C   UNL     1      35.922 -23.092 -16.594  0.00  0.00    +0.143 C 
ATOM      9  C   UNL     1      34.582 -22.214 -18.411  0.00  0.00    +0.008 C 
ATOM     10  C   UNL     1      35.682 -21.481 -18.857  0.00  0.00    +0.000 C 
ATOM     11  C   UNL     1      37.025 -22.374 -17.055  0.00  0.00    +0.037 C 
ATOM     12  C   UNL     1      36.901 -21.560 -18.180  0.00  0.00    +0.003 C 
ENDROOT
BRANCH  10  13
ATOM     13  C   UNL     1      35.562 -20.639 -20.028  0.00  0.00    +0.000 C 
ATOM     14  C   UNL     1      34.324 -20.483 -20.651  0.00  0.00    +0.003 C 
ATOM     15  C   UNL     1      36.685 -19.987 -20.535  0.00  0.00    +0.003 C 
ATOM     16  C   UNL     1      34.209 -19.673 -21.781  0.00  0.00    +0.037 C 
ATOM     17  C   UNL     1      36.570 -19.177 -21.665  0.00  0.00    +0.037 C 
ATOM     18  C   UNL     1      35.332 -19.020 -22.288  0.00  0.00    +0.147 C 
BRANCH  18  19
ATOM     19  O   UNL     1      35.220 -18.231 -23.391  0.00  0.00    -0.404 OA
BRANCH  19  23
ATOM     20  F   UNL     1      35.994 -16.079 -23.370  0.00  0.00    -0.133 F 
ATOM     21  F   UNL     1      34.450 -16.679 -21.945  0.00  0.00    -0.133 F 
ATOM     22  F   UNL     1      33.929 -16.465 -24.056  0.00  0.00    -0.133 F 
ATOM     23  C   UNL     1      34.902 -16.856 -23.207  0.00  0.00    +0.575 C 
ENDBRANCH  19  23
ENDBRANCH  18  19
ENDBRANCH  10  13
BRANCH   3  24
ATOM     24  C   UNL     1      32.207 -24.689 -14.929  0.00  0.00    +0.194 C 
BRANCH  24  27
ATOM     25  N   UNL     1      30.011 -24.730 -15.955  0.00  0.00    -0.217 NA
ATOM     26  N   UNL     1      30.601 -22.936 -14.458  0.00  0.00    -0.195 NA
ATOM     27  C   UNL     1      30.850 -24.078 -15.127  0.00  0.00    +0.028 C 
ATOM     28  C   UNL     1      28.801 -24.152 -16.110  0.00  0.00    +0.164 C 
ATOM     29  C   UNL     1      29.373 -22.414 -14.659  0.00  0.00    +0.107 C 
ATOM     30  C   UNL     1      28.423 -22.984 -15.482  0.00  0.00    +0.022 C 
ENDBRANCH  24  27
ENDBRANCH   3  24
TORSDOF 5
ENDMDL
MODEL 5
REMARK VINA RESULT:      -9.9      5.346      9.560
REMARK  Name = 71183216
REMARK  5 active torsions:
REMARK  status: ('A' for Active; 'I' for Inactive)
REMARK    1  A    between atoms: N_3  and  C_24
REMARK    2  A    between atoms: C_10  and  C_13
REMARK    3  A    between atoms: C_18  and  O_19
REMARK    4  A    between atoms: O_19  and  C_23
REMARK    5  A    between atoms: C_24  and  C_27
REMARK                            x       y       z     vdW  Elec       q    Type
REMARK                         _______ _______ _______ _____ _____    ______ ____
ROOT
ATOM      1  O   UNL     1      36.899 -22.813 -17.495  0.00  0.00    -0.473 OA
ATOM      2  O   UNL     1      33.599 -23.582 -19.492  0.00  0.00    -0.270 OA
ATOM      3  N   UNL     1      34.095 -23.253 -17.235  0.00  0.00    -0.259 N 
ATOM      4  C   UNL     1      34.768 -22.424 -16.239  0.00  0.00    +0.142 C 
ATOM      5  C   UNL     1      35.207 -21.970 -19.004  0.00  0.00    +0.087 C 
ATOM      6  C   UNL     1      36.268 -22.696 -16.213  0.00  0.00    +0.227 C 
ATOM      7  C   UNL     1      34.225 -23.008 -18.604  0.00  0.00    +0.253 C 
ATOM      8  C   UNL     1      36.475 -21.894 -18.414  0.00  0.00    +0.143 C 
ATOM      9  C   UNL     1      34.858 -21.074 -20.019  0.00  0.00    +0.008 C 
ATOM     10  C   UNL     1      35.771 -20.104 -20.432  0.00  0.00    +0.000 C 
ATOM     11  C   UNL     1      37.394 -20.937 -18.844  0.00  0.00    +0.037 C 
ATOM     12  C   UNL     1      37.036 -20.035 -19.846  0.00  0.00    +0.003 C 
ENDROOT
BRANCH  10  13
ATOM     13  C   UNL     1      35.409 -19.169 -21.476  0.00  0.00    +0.000 C 
ATOM     14  C   UNL     1      35.496 -17.796 -21.244  0.00  0.00    +0.003 C 
ATOM     15  C   UNL     1      34.971 -19.641 -22.713  0.00  0.00    +0.003 C 
ATOM     16  C   UNL     1      35.145 -16.896 -22.250  0.00  0.00    +0.037 C 
ATOM     17  C   UNL     1      34.620 -18.741 -23.719  0.00  0.00    +0.037 C 
ATOM     18  C   UNL     1      34.707 -17.368 -23.487  0.00  0.00    +0.147 C 
BRANCH  18  19
ATOM     19  O   UNL     1      34.363 -16.489 -24.468  0.00  0.00    -0.404 OA
BRANCH  19  23
ATOM     20  F   UNL     1      33.119 -15.258 -22.996  0.00  0.00    -0.133 F 
ATOM     21  F   UNL     1      33.190 -14.667 -25.098  0.00  0.00    -0.133 F 
ATOM     22  F   UNL     1      34.956 -14.369 -23.847  0.00  0.00    -0.133 F 
ATOM     23  C   UNL     1      33.914 -15.194 -24.085  0.00  0.00    +0.575 C 
ENDBRANCH  19  23
ENDBRANCH  18  19
ENDBRANCH  10  13
BRANCH   3  24
ATOM     24  C   UNL     1      33.247 -24.330 -16.748  0.00  0.00    +0.194 C 
BRANCH  24  27
ATOM     25  N   UNL     1      32.072 -23.995 -14.655  0.00  0.00    -0.217 NA
ATOM     26  N   UNL     1      31.097 -23.212 -16.716  0.00  0.00    -0.195 NA
ATOM     27  C   UNL     1      32.060 -23.811 -15.989  0.00  0.00    +0.028 C 
ATOM     28  C   UNL     1      30.990 -23.517 -14.005  0.00  0.00    +0.164 C 
ATOM     29  C   UNL     1      30.045 -22.759 -16.002  0.00  0.00    +0.107 C 
ATOM     30  C   UNL     1      29.936 -22.885 -14.632  0.00  0.00    +0.022 C 
ENDBRANCH  24  27
ENDBRANCH   3  24
TORSDOF 5
ENDMDL
MODEL 6
REMARK VINA RESULT:      -9.7      6.514     11.438
REMARK  Name = 71183216
REMARK  5 active torsions:
REMARK  status: ('A' for Active; 'I' for Inactive)
REMARK    1  A    between atoms: N_3  and  C_24
REMARK    2  A    between atoms: C_10  and  C_13
REMARK    3  A    between atoms: C_18  and  O_19
REMARK    4  A    between atoms: O_19  and  C_23
REMARK    5  A    between atoms: C_24  and  C_27
REMARK                            x       y       z     vdW  Elec       q    Type
REMARK                         _______ _______ _______ _____ _____    ______ ____
ROOT
ATOM      1  O   UNL     1      33.520 -24.345 -14.899  0.00  0.00    -0.473 OA
ATOM      2  O   UNL     1      36.831 -22.236 -14.663  0.00  0.00    -0.270 OA
ATOM      3  N   UNL     1      36.330 -24.506 -14.449  0.00  0.00    -0.259 N 
ATOM      4  C   UNL     1      35.645 -25.665 -15.013  0.00  0.00    +0.142 C 
ATOM      5  C   UNL     1      35.200 -23.081 -16.094  0.00  0.00    +0.087 C 
ATOM      6  C   UNL     1      34.149 -25.621 -14.721  0.00  0.00    +0.227 C 
ATOM      7  C   UNL     1      36.197 -23.231 -15.006  0.00  0.00    +0.253 C 
ATOM      8  C   UNL     1      33.931 -23.668 -16.012  0.00  0.00    +0.143 C 
ATOM      9  C   UNL     1      35.537 -22.304 -17.208  0.00  0.00    +0.008 C 
ATOM     10  C   UNL     1      34.610 -22.126 -18.234  0.00  0.00    +0.000 C 
ATOM     11  C   UNL     1      32.999 -23.470 -17.031  0.00  0.00    +0.037 C 
ATOM     12  C   UNL     1      33.344 -22.708 -18.147  0.00  0.00    +0.003 C 
ENDROOT
BRANCH  10  13
ATOM     13  C   UNL     1      34.959 -21.331 -19.392  0.00  0.00    +0.000 C 
ATOM     14  C   UNL     1      36.293 -21.010 -19.642  0.00  0.00    +0.003 C 
ATOM     15  C   UNL     1      33.959 -20.883 -20.256  0.00  0.00    +0.003 C 
ATOM     16  C   UNL     1      36.628 -20.242 -20.757  0.00  0.00    +0.037 C 
ATOM     17  C   UNL     1      34.295 -20.115 -21.371  0.00  0.00    +0.037 C 
ATOM     18  C   UNL     1      35.629 -19.794 -21.622  0.00  0.00    +0.147 C 
BRANCH  18  19
ATOM     19  O   UNL     1      35.956 -19.044 -22.709  0.00  0.00    -0.404 OA
BRANCH  19  23
ATOM     20  F   UNL     1      36.046 -16.858 -23.375  0.00  0.00    -0.133 F 
ATOM     21  F   UNL     1      34.671 -17.438 -21.779  0.00  0.00    -0.133 F 
ATOM     22  F   UNL     1      34.236 -18.041 -23.834  0.00  0.00    -0.133 F 
ATOM     23  C   UNL     1      35.230 -17.842 -22.942  0.00  0.00    +0.575 C 
ENDBRANCH  19  23
ENDBRANCH  18  19
ENDBRANCH  10  13
BRANCH   3  24
ATOM     24  C   UNL     1      37.193 -24.730 -13.300  0.00  0.00    +0.194 C 
BRANCH  24  27
ATOM     25  N   UNL     1      39.172 -24.717 -14.699  0.00  0.00    -0.217 NA
ATOM     26  N   UNL     1      38.909 -26.417 -13.011  0.00  0.00    -0.195 NA
ATOM     27  C   UNL     1      38.512 -25.328 -13.696  0.00  0.00    +0.028 C 
ATOM     28  C   UNL     1      40.354 -25.281 -15.029  0.00  0.00    +0.164 C 
ATOM     29  C   UNL     1      40.097 -26.928 -13.392  0.00  0.00    +0.107 C 
ATOM     30  C   UNL     1      40.871 -26.397 -14.405  0.00  0.00    +0.022 C 
ENDBRANCH  24  27
ENDBRANCH   3  24
TORSDOF 5
ENDMDL
MODEL 7
REMARK VINA RESULT:      -9.5      3.632      6.228
REMARK  Name = 71183216
REMARK  5 active torsions:
REMARK  status: ('A' for Active; 'I' for Inactive)
REMARK    1  A    between atoms: N_3  and  C_24
REMARK    2  A    between atoms: C_10  and  C_13
REMARK    3  A    between atoms: C_18  and  O_19
REMARK    4  A    between atoms: O_19  and  C_23
REMARK    5  A    between atoms: C_24  and  C_27
REMARK                            x       y       z     vdW  Elec       q    Type
REMARK                         _______ _______ _______ _____ _____    ______ ____
ROOT
ATOM      1  O   UNL     1      31.103 -10.303 -20.899  0.00  0.00    -0.473 OA
ATOM      2  O   UNL     1      33.030 -10.542 -24.320  0.00  0.00    -0.270 OA
ATOM      3  N   UNL     1      33.125  -9.086 -22.498  0.00  0.00    -0.259 N 
ATOM      4  C   UNL     1      33.203  -8.946 -21.047  0.00  0.00    +0.142 C 
ATOM      5  C   UNL     1      32.750 -11.492 -22.212  0.00  0.00    +0.087 C 
ATOM      6  C   UNL     1      31.847  -9.187 -20.393  0.00  0.00    +0.227 C 
ATOM      7  C   UNL     1      32.983 -10.334 -23.110  0.00  0.00    +0.253 C 
ATOM      8  C   UNL     1      31.858 -11.418 -21.135  0.00  0.00    +0.143 C 
ATOM      9  C   UNL     1      33.419 -12.691 -22.480  0.00  0.00    +0.008 C 
ATOM     10  C   UNL     1      33.200 -13.803 -21.667  0.00  0.00    +0.000 C 
ATOM     11  C   UNL     1      31.625 -12.538 -20.338  0.00  0.00    +0.037 C 
ATOM     12  C   UNL     1      32.306 -13.727 -20.598  0.00  0.00    +0.003 C 
ENDROOT
BRANCH  10  13
ATOM     13  C   UNL     1      33.898 -15.042 -21.936  0.00  0.00    +0.000 C 
ATOM     14  C   UNL     1      34.262 -15.370 -23.242  0.00  0.00    +0.003 C 
ATOM     15  C   UNL     1      34.203 -15.911 -20.888  0.00  0.00    +0.003 C 
ATOM     16  C   UNL     1      34.933 -16.565 -23.500  0.00  0.00    +0.037 C 
ATOM     17  C   UNL     1      34.875 -17.106 -21.146  0.00  0.00    +0.037 C 
ATOM     18  C   UNL     1      35.239 -17.434 -22.453  0.00  0.00    +0.147 C 
BRANCH  18  19
ATOM     19  O   UNL     1      35.892 -18.600 -22.705  0.00  0.00    -0.404 OA
BRANCH  19  23
ATOM     20  F   UNL     1      35.684 -20.599 -23.797  0.00  0.00    -0.133 F 
ATOM     21  F   UNL     1      33.892 -19.435 -23.339  0.00  0.00    -0.133 F 
ATOM     22  F   UNL     1      34.957 -20.438 -21.716  0.00  0.00    -0.133 F 
ATOM     23  C   UNL     1      35.118 -19.782 -22.884  0.00  0.00    +0.575 C 
ENDBRANCH  19  23
ENDBRANCH  18  19
ENDBRANCH  10  13
BRANCH   3  24
ATOM     24  C   UNL     1      33.239  -7.875 -23.295  0.00  0.00    +0.194 C 
BRANCH  24  27
ATOM     25  N   UNL     1      32.691  -5.622 -22.591  0.00  0.00    -0.217 NA
ATOM     26  N   UNL     1      30.933  -7.243 -22.893  0.00  0.00    -0.195 NA
ATOM     27  C   UNL     1      32.220  -6.845 -22.900  0.00  0.00    +0.028 C 
ATOM     28  C   UNL     1      31.748  -4.721 -22.240  0.00  0.00    +0.164 C 
ATOM     29  C   UNL     1      30.045  -6.293 -22.534  0.00  0.00    +0.107 C 
ATOM     30  C   UNL     1      30.398  -5.003 -22.193  0.00  0.00    +0.022 C 
ENDBRANCH  24  27
ENDBRANCH   3  24
TORSDOF 5
ENDMDL
MODEL 8
REMARK VINA RESULT:      -9.4      7.361     11.835
REMARK  Name = 71183216
REMARK  5 active torsions:
REMARK  status: ('A' for Active; 'I' for Inactive)
REMARK    1  A    between atoms: N_3  and  C_24
REMARK    2  A    between atoms: C_10  and  C_13
REMARK    3  A    between atoms: C_18  and  O_19
REMARK    4  A    between atoms: O_19  and  C_23
REMARK    5  A    between atoms: C_24  and  C_27
REMARK                            x       y       z     vdW  Elec       q    Type
REMARK                         _______ _______ _______ _____ _____    ______ ____
ROOT
ATOM      1  O   UNL     1      33.159 -13.494 -21.085  0.00  0.00    -0.473 OA
ATOM      2  O   UNL     1      34.685 -11.562 -24.153  0.00  0.00    -0.270 OA
ATOM      3  N   UNL     1      33.441 -13.523 -23.922  0.00  0.00    -0.259 N 
ATOM      4  C   UNL     1      32.272 -14.167 -23.328  0.00  0.00    +0.142 C 
ATOM      5  C   UNL     1      33.022 -11.553 -22.523  0.00  0.00    +0.087 C 
ATOM      6  C   UNL     1      32.513 -14.511 -21.862  0.00  0.00    +0.227 C 
ATOM      7  C   UNL     1      33.793 -12.207 -23.608  0.00  0.00    +0.253 C 
ATOM      8  C   UNL     1      32.709 -12.228 -21.335  0.00  0.00    +0.143 C 
ATOM      9  C   UNL     1      32.633 -10.219 -22.688  0.00  0.00    +0.008 C 
ATOM     10  C   UNL     1      31.929  -9.572 -21.673  0.00  0.00    +0.000 C 
ATOM     11  C   UNL     1      32.024 -11.570 -20.314  0.00  0.00    +0.037 C 
ATOM     12  C   UNL     1      31.624 -10.246 -20.489  0.00  0.00    +0.003 C 
ENDROOT
BRANCH  10  13
ATOM     13  C   UNL     1      31.517  -8.196 -21.845  0.00  0.00    +0.000 C 
ATOM     14  C   UNL     1      30.824  -7.813 -22.994  0.00  0.00    +0.003 C 
ATOM     15  C   UNL     1      31.816  -7.251 -20.864  0.00  0.00    +0.003 C 
ATOM     16  C   UNL     1      30.429  -6.485 -23.160  0.00  0.00    +0.037 C 
ATOM     17  C   UNL     1      31.421  -5.923 -21.030  0.00  0.00    +0.037 C 
ATOM     18  C   UNL     1      30.728  -5.540 -22.178  0.00  0.00    +0.147 C 
BRANCH  18  19
ATOM     19  O   UNL     1      30.343  -4.245 -22.341  0.00  0.00    -0.404 OA
BRANCH  19  23
ATOM     20  F   UNL     1      31.293  -2.205 -22.749  0.00  0.00    -0.133 F 
ATOM     21  F   UNL     1      30.344  -3.294 -24.388  0.00  0.00    -0.133 F 
ATOM     22  F   UNL     1      32.246  -4.014 -23.589  0.00  0.00    -0.133 F 
ATOM     23  C   UNL     1      31.072  -3.435 -23.258  0.00  0.00    +0.575 C 
ENDBRANCH  19  23
ENDBRANCH  18  19
ENDBRANCH  10  13
BRANCH   3  24
ATOM     24  C   UNL     1      34.211 -14.290 -24.887  0.00  0.00    +0.194 C 
BRANCH  24  27
ATOM     25  N   UNL     1      34.085 -16.697 -25.140  0.00  0.00    -0.217 NA
ATOM     26  N   UNL     1      35.213 -15.751 -23.232  0.00  0.00    -0.195 NA
ATOM     27  C   UNL     1      34.524 -15.671 -24.387  0.00  0.00    +0.028 C 
ATOM     28  C   UNL     1      34.382 -17.923 -24.661  0.00  0.00    +0.164 C 
ATOM     29  C   UNL     1      35.476 -17.005 -22.812  0.00  0.00    +0.107 C 
ATOM     30  C   UNL     1      35.082 -18.140 -23.492  0.00  0.00    +0.022 C 
ENDBRANCH  24  27
ENDBRANCH   3  24
TORSDOF 5
ENDMDL
MODEL 9
REMARK VINA RESULT:      -9.4      4.074      7.252
REMARK  Name = 71183216
REMARK  5 active torsions:
REMARK  status: ('A' for Active; 'I' for Inactive)
REMARK    1  A    between atoms: N_3  and  C_24
REMARK    2  A    between atoms: C_10  and  C_13
REMARK    3  A    between atoms: C_18  and  O_19
REMARK    4  A    between atoms: O_19  and  C_23
REMARK    5  A    between atoms: C_24  and  C_27
REMARK                            x       y       z     vdW  Elec       q    Type
REMARK                         _______ _______ _______ _____ _____    ______ ____
ROOT
ATOM      1  O   UNL     1      30.788  -9.991 -19.125  0.00  0.00    -0.473 OA
ATOM      2  O   UNL     1      31.165  -9.530 -23.013  0.00  0.00    -0.270 OA
ATOM      3  N   UNL     1      31.860  -8.300 -21.155  0.00  0.00    -0.259 N 
ATOM      4  C   UNL     1      32.510  -8.322 -19.847  0.00  0.00    +0.142 C 
ATOM      5  C   UNL     1      31.859 -10.752 -21.156  0.00  0.00    +0.087 C 
ATOM      6  C   UNL     1      31.567  -8.842 -18.767  0.00  0.00    +0.227 C 
ATOM      7  C   UNL     1      31.596  -9.475 -21.864  0.00  0.00    +0.253 C 
ATOM      8  C   UNL     1      31.480 -10.942 -19.821  0.00  0.00    +0.143 C 
ATOM      9  C   UNL     1      32.467 -11.796 -21.862  0.00  0.00    +0.008 C 
ATOM     10  C   UNL     1      32.703 -13.016 -21.229  0.00  0.00    +0.000 C 
ATOM     11  C   UNL     1      31.697 -12.171 -19.198  0.00  0.00    +0.037 C 
ATOM     12  C   UNL     1      32.319 -13.203 -19.899  0.00  0.00    +0.003 C 
ENDROOT
BRANCH  10  13
ATOM     13  C   UNL     1      33.341 -14.093 -21.953  0.00  0.00    +0.000 C 
ATOM     14  C   UNL     1      33.119 -14.242 -23.322  0.00  0.00    +0.003 C 
ATOM     15  C   UNL     1      34.177 -14.986 -21.281  0.00  0.00    +0.003 C 
ATOM     16  C   UNL     1      33.734 -15.282 -24.019  0.00  0.00    +0.037 C 
ATOM     17  C   UNL     1      34.791 -16.026 -21.978  0.00  0.00    +0.037 C 
ATOM     18  C   UNL     1      34.569 -16.175 -23.347  0.00  0.00    +0.147 C 
BRANCH  18  19
ATOM     19  O   UNL     1      35.168 -17.190 -24.027  0.00  0.00    -0.404 OA
BRANCH  19  23
ATOM     20  F   UNL     1      34.246 -18.534 -22.422  0.00  0.00    -0.133 F 
ATOM     21  F   UNL     1      36.204 -19.040 -23.251  0.00  0.00    -0.133 F 
ATOM     22  F   UNL     1      34.421 -19.303 -24.487  0.00  0.00    -0.133 F 
ATOM     23  C   UNL     1      34.991 -18.519 -23.548  0.00  0.00    +0.575 C 
ENDBRANCH  19  23
ENDBRANCH  18  19
ENDBRANCH  10  13
BRANCH   3  24
ATOM     24  C   UNL     1      31.526  -7.001 -21.715  0.00  0.00    +0.194 C 
BRANCH  24  27
ATOM     25  N   UNL     1      33.720  -7.009 -22.747  0.00  0.00    -0.217 NA
ATOM     26  N   UNL     1      31.868  -5.957 -23.876  0.00  0.00    -0.195 NA
ATOM     27  C   UNL     1      32.431  -6.631 -22.855  0.00  0.00    +0.028 C 
ATOM     28  C   UNL     1      34.504  -6.660 -23.788  0.00  0.00    +0.164 C 
ATOM     29  C   UNL     1      32.710  -5.641 -24.882  0.00  0.00    +0.107 C 
ATOM     30  C   UNL     1      34.050  -5.970 -24.893  0.00  0.00    +0.022 C 
ENDBRANCH  24  27
ENDBRANCH   3  24
TORSDOF 5
ENDMDL
