MODEL 1
REMARK VINA RESULT:     -11.8      0.000      0.000
REMARK  Name = 52920501
REMARK  9 active torsions:
REMARK  status: ('A' for Active; 'I' for Inactive)
REMARK    1  A    between atoms: N_1  and  C_12
REMARK    2  A    between atoms: C_5  and  O_27
REMARK    3  A    between atoms: C_9  and  C_15
REMARK    4  A    between atoms: C_15  and  S_16
REMARK    5  A    between atoms: S_16  and  N_19
REMARK    6  A    between atoms: N_19  and  C_21
REMARK    7  A    between atoms: C_21  and  C_22
REMARK    8  A    between atoms: C_22  and  N_23
REMARK    9  A    between atoms: O_27  and  C_35
REMARK                            x       y       z     vdW  Elec       q    Type
REMARK                         _______ _______ _______ _____ _____    ______ ____
ROOT
ATOM      1  N   UNL     1      32.662 -22.759 -18.248  0.00  0.00    -0.247 N 
ATOM      2  N   UNL     1      33.319 -23.092 -16.021  0.00  0.00    -0.300 NA
ATOM      3  N   UNL     1      31.121 -23.735 -16.771  0.00  0.00    -0.170 NA
ATOM      4  C   UNL     1      32.353 -23.218 -16.949  0.00  0.00    +0.152 C 
ATOM      5  C   UNL     1      32.989 -23.539 -14.791  0.00  0.00    +0.295 C 
ATOM      6  C   UNL     1      31.763 -24.089 -14.479  0.00  0.00    +0.094 C 
ATOM      7  C   UNL     1      30.859 -24.162 -15.519  0.00  0.00    +0.118 C 
ATOM      8  H   UNL     1      31.927 -22.871 -18.894  0.00  0.00    +0.165 HD
ENDROOT
BRANCH   1  12
ATOM      9  C   UNL     1      34.852 -20.722 -20.431  0.00  0.00    +0.004 C 
ATOM     10  C   UNL     1      33.707 -21.302 -19.884  0.00  0.00    +0.013 C 
ATOM     11  C   UNL     1      36.106 -21.016 -19.895  0.00  0.00    -0.002 C 
ATOM     12  C   UNL     1      33.816 -22.174 -18.801  0.00  0.00    +0.057 C 
ATOM     13  C   UNL     1      36.216 -21.888 -18.812  0.00  0.00    +0.001 C 
ATOM     14  C   UNL     1      35.070 -22.468 -18.265  0.00  0.00    +0.015 C 
BRANCH   9  15
ATOM     15  C   UNL     1      34.735 -19.789 -21.588  0.00  0.00    +0.195 C 
BRANCH  15  16
ATOM     16  S   UNL     1      35.730 -18.374 -21.246  0.00  0.00    +0.045 S 
ATOM     17  O   UNL     1      34.924 -17.409 -20.516  0.00  0.00    -0.157 OA
ATOM     18  O   UNL     1      36.993 -18.837 -20.695  0.00  0.00    -0.157 OA
BRANCH  16  19
ATOM     19  N   UNL     1      36.023 -17.790 -22.827  0.00  0.00    -0.185 NA
ATOM     20  H   UNL     1      36.645 -18.457 -23.282  0.00  0.00    +0.148 HD
BRANCH  19  21
ATOM     21  C   UNL     1      34.879 -17.579 -23.734  0.00  0.00    +0.068 C 
BRANCH  21  22
ATOM     22  C   UNL     1      34.932 -16.163 -24.288  0.00  0.00    -0.058 C 
BRANCH  22  23
ATOM     23  N   UNL     1      33.891 -15.343 -23.681  0.00  0.00    +0.385 N 
ATOM     24  C   UNL     1      34.450 -14.499 -22.623  0.00  0.00    -0.101 C 
ATOM     25  C   UNL     1      33.230 -14.516 -24.693  0.00  0.00    -0.101 C 
ATOM     26  H   UNL     1      33.197 -15.965 -23.267  0.00  0.00    -0.080 HD
ENDBRANCH  22  23
ENDBRANCH  21  22
ENDBRANCH  19  21
ENDBRANCH  16  19
ENDBRANCH  15  16
ENDBRANCH   9  15
ENDBRANCH   1  12
BRANCH   5  27
ATOM     27  O   UNL     1      33.951 -23.432 -13.802  0.00  0.00    -0.427 OA
BRANCH  27  35
ATOM     28  N   UNL     1      39.120 -24.801 -15.012  0.00  0.00    -0.316 N 
ATOM     29  C   UNL     1      37.188 -25.148 -13.952  0.00  0.00    +0.017 C 
ATOM     30  C   UNL     1      37.853 -24.295 -14.836  0.00  0.00    +0.048 C 
ATOM     31  C   UNL     1      39.281 -25.942 -14.273  0.00  0.00    +0.026 C 
ATOM     32  C   UNL     1      38.102 -26.183 -13.605  0.00  0.00    +0.012 C 
ATOM     33  C   UNL     1      35.857 -24.856 -13.598  0.00  0.00    +0.039 C 
ATOM     34  C   UNL     1      37.249 -23.159 -15.385  0.00  0.00    +0.018 C 
ATOM     35  C   UNL     1      35.240 -23.722 -14.139  0.00  0.00    +0.148 C 
ATOM     36  C   UNL     1      35.927 -22.888 -15.019  0.00  0.00    +0.039 C 
ATOM     37  C   UNL     1      40.552 -26.688 -14.281  0.00  0.00    +0.047 C 
ATOM     38  H   UNL     1      39.812 -24.401 -15.588  0.00  0.00    +0.152 HD
ENDBRANCH  27  35
ENDBRANCH   5  27
TORSDOF 9
ENDMDL
MODEL 2
REMARK VINA RESULT:     -11.7      2.705     10.088
REMARK  Name = 52920501
REMARK  9 active torsions:
REMARK  status: ('A' for Active; 'I' for Inactive)
REMARK    1  A    between atoms: N_1  and  C_12
REMARK    2  A    between atoms: C_5  and  O_27
REMARK    3  A    between atoms: C_9  and  C_15
REMARK    4  A    between atoms: C_15  and  S_16
REMARK    5  A    between atoms: S_16  and  N_19
REMARK    6  A    between atoms: N_19  and  C_21
REMARK    7  A    between atoms: C_21  and  C_22
REMARK    8  A    between atoms: C_22  and  N_23
REMARK    9  A    between atoms: O_27  and  C_35
REMARK                            x       y       z     vdW  Elec       q    Type
REMARK                         _______ _______ _______ _____ _____    ______ ____
ROOT
ATOM      1  N   UNL     1      34.382 -22.978 -17.380  0.00  0.00    -0.247 N 
ATOM      2  N   UNL     1      35.158 -21.437 -18.971  0.00  0.00    -0.300 NA
ATOM      3  N   UNL     1      32.863 -22.175 -18.979  0.00  0.00    -0.170 NA
ATOM      4  C   UNL     1      34.122 -22.156 -18.498  0.00  0.00    +0.152 C 
ATOM      5  C   UNL     1      34.873 -20.664 -20.040  0.00  0.00    +0.295 C 
ATOM      6  C   UNL     1      33.626 -20.594 -20.626  0.00  0.00    +0.094 C 
ATOM      7  C   UNL     1      32.650 -21.379 -20.047  0.00  0.00    +0.118 C 
ATOM      8  H   UNL     1      33.597 -23.484 -17.069  0.00  0.00    +0.165 HD
ENDROOT
BRANCH   1  12
ATOM      9  C   UNL     1      36.706 -24.446 -14.900  0.00  0.00    +0.004 C 
ATOM     10  C   UNL     1      35.554 -24.213 -15.650  0.00  0.00    +0.013 C 
ATOM     11  C   UNL     1      37.850 -23.679 -15.122  0.00  0.00    -0.002 C 
ATOM     12  C   UNL     1      35.545 -23.214 -16.623  0.00  0.00    +0.057 C 
ATOM     13  C   UNL     1      37.842 -22.679 -16.096  0.00  0.00    +0.001 C 
ATOM     14  C   UNL     1      36.688 -22.447 -16.845  0.00  0.00    +0.015 C 
BRANCH   9  15
ATOM     15  C   UNL     1      36.716 -25.515 -13.860  0.00  0.00    +0.195 C 
BRANCH  15  16
ATOM     16  S   UNL     1      36.254 -24.782 -12.324  0.00  0.00    +0.045 S 
ATOM     17  O   UNL     1      36.993 -25.439 -11.259  0.00  0.00    -0.157 OA
ATOM     18  O   UNL     1      36.325 -23.337 -12.479  0.00  0.00    -0.157 OA
BRANCH  16  19
ATOM     19  N   UNL     1      34.605 -25.226 -12.231  0.00  0.00    -0.185 NA
ATOM     20  H   UNL     1      34.387 -25.364 -11.244  0.00  0.00    +0.148 HD
BRANCH  19  21
ATOM     21  C   UNL     1      33.586 -24.308 -12.773  0.00  0.00    +0.068 C 
BRANCH  21  22
ATOM     22  C   UNL     1      32.558 -25.107 -13.560  0.00  0.00    -0.058 C 
BRANCH  22  23
ATOM     23  N   UNL     1      31.320 -24.349 -13.689  0.00  0.00    +0.385 N 
ATOM     24  C   UNL     1      31.463 -23.294 -14.695  0.00  0.00    -0.101 C 
ATOM     25  C   UNL     1      30.207 -25.234 -14.037  0.00  0.00    -0.101 C 
ATOM     26  H   UNL     1      31.119 -23.914 -12.789  0.00  0.00    -0.080 HD
ENDBRANCH  22  23
ENDBRANCH  21  22
ENDBRANCH  19  21
ENDBRANCH  16  19
ENDBRANCH  15  16
ENDBRANCH   9  15
ENDBRANCH   1  12
BRANCH   5  27
ATOM     27  O   UNL     1      35.907 -19.905 -20.562  0.00  0.00    -0.427 OA
BRANCH  27  35
ATOM     28  N   UNL     1      34.557 -15.655 -23.752  0.00  0.00    -0.316 N 
ATOM     29  C   UNL     1      34.930 -16.578 -21.755  0.00  0.00    +0.017 C 
ATOM     30  C   UNL     1      34.914 -16.829 -23.129  0.00  0.00    +0.048 C 
ATOM     31  C   UNL     1      34.346 -14.673 -22.823  0.00  0.00    +0.026 C 
ATOM     32  C   UNL     1      34.569 -15.213 -21.577  0.00  0.00    +0.012 C 
ATOM     33  C   UNL     1      35.268 -17.627 -20.877  0.00  0.00    +0.039 C 
ATOM     34  C   UNL     1      35.221 -18.083 -23.671  0.00  0.00    +0.018 C 
ATOM     35  C   UNL     1      35.578 -18.886 -21.405  0.00  0.00    +0.148 C 
ATOM     36  C   UNL     1      35.554 -19.108 -22.780  0.00  0.00    +0.039 C 
ATOM     37  C   UNL     1      33.951 -13.310 -23.224  0.00  0.00    +0.047 C 
ATOM     38  H   UNL     1      34.466 -15.539 -24.726  0.00  0.00    +0.152 HD
ENDBRANCH  27  35
ENDBRANCH   5  27
TORSDOF 9
ENDMDL
MODEL 3
REMARK VINA RESULT:     -11.3      2.111      5.483
REMARK  Name = 52920501
REMARK  9 active torsions:
REMARK  status: ('A' for Active; 'I' for Inactive)
REMARK    1  A    between atoms: N_1  and  C_12
REMARK    2  A    between atoms: C_5  and  O_27
REMARK    3  A    between atoms: C_9  and  C_15
REMARK    4  A    between atoms: C_15  and  S_16
REMARK    5  A    between atoms: S_16  and  N_19
REMARK    6  A    between atoms: N_19  and  C_21
REMARK    7  A    between atoms: C_21  and  C_22
REMARK    8  A    between atoms: C_22  and  N_23
REMARK    9  A    between atoms: O_27  and  C_35
REMARK                            x       y       z     vdW  Elec       q    Type
REMARK                         _______ _______ _______ _____ _____    ______ ____
ROOT
ATOM      1  N   UNL     1      35.960 -23.731 -16.193  0.00  0.00    -0.247 N 
ATOM      2  N   UNL     1      34.397 -23.824 -14.446  0.00  0.00    -0.300 NA
ATOM      3  N   UNL     1      36.612 -24.732 -14.173  0.00  0.00    -0.170 NA
ATOM      4  C   UNL     1      35.640 -24.114 -14.872  0.00  0.00    +0.152 C 
ATOM      5  C   UNL     1      34.126 -24.204 -13.180  0.00  0.00    +0.295 C 
ATOM      6  C   UNL     1      35.033 -24.844 -12.361  0.00  0.00    +0.094 C 
ATOM      7  C   UNL     1      36.273 -25.084 -12.916  0.00  0.00    +0.118 C 
ATOM      8  H   UNL     1      36.878 -23.963 -16.462  0.00  0.00    +0.165 HD
ENDROOT
BRANCH   1  12
ATOM      9  C   UNL     1      35.148 -21.680 -19.166  0.00  0.00    +0.004 C 
ATOM     10  C   UNL     1      35.880 -22.323 -18.169  0.00  0.00    +0.013 C 
ATOM     11  C   UNL     1      33.758 -21.795 -19.196  0.00  0.00    -0.002 C 
ATOM     12  C   UNL     1      35.222 -23.082 -17.201  0.00  0.00    +0.057 C 
ATOM     13  C   UNL     1      33.100 -22.554 -18.228  0.00  0.00    +0.001 C 
ATOM     14  C   UNL     1      33.832 -23.197 -17.230  0.00  0.00    +0.015 C 
BRANCH   9  15
ATOM     15  C   UNL     1      35.851 -20.869 -20.202  0.00  0.00    +0.195 C 
BRANCH  15  16
ATOM     16  S   UNL     1      34.655 -19.837 -20.987  0.00  0.00    +0.045 S 
ATOM     17  O   UNL     1      34.658 -20.131 -22.411  0.00  0.00    -0.157 OA
ATOM     18  O   UNL     1      33.420 -19.924 -20.225  0.00  0.00    -0.157 OA
BRANCH  16  19
ATOM     19  N   UNL     1      35.334 -18.290 -20.724  0.00  0.00    -0.185 NA
ATOM     20  H   UNL     1      36.348 -18.395 -20.776  0.00  0.00    +0.148 HD
BRANCH  19  21
ATOM     21  C   UNL     1      34.968 -17.186 -21.629  0.00  0.00    +0.068 C 
BRANCH  21  22
ATOM     22  C   UNL     1      34.494 -15.997 -20.805  0.00  0.00    -0.058 C 
BRANCH  22  23
ATOM     23  N   UNL     1      34.223 -14.857 -21.672  0.00  0.00    +0.385 N 
ATOM     24  C   UNL     1      34.597 -15.160 -23.055  0.00  0.00    -0.101 C 
ATOM     25  C   UNL     1      32.810 -14.478 -21.601  0.00  0.00    -0.101 C 
ATOM     26  H   UNL     1      34.786 -14.071 -21.349  0.00  0.00    -0.080 HD
ENDBRANCH  22  23
ENDBRANCH  21  22
ENDBRANCH  19  21
ENDBRANCH  16  19
ENDBRANCH  15  16
ENDBRANCH   9  15
ENDBRANCH   1  12
BRANCH   5  27
ATOM     27  O   UNL     1      32.859 -23.926 -12.696  0.00  0.00    -0.427 OA
BRANCH  27  35
ATOM     28  N   UNL     1      28.589 -24.767 -16.030  0.00  0.00    -0.316 N 
ATOM     29  C   UNL     1      30.119 -23.446 -15.085  0.00  0.00    +0.017 C 
ATOM     30  C   UNL     1      29.649 -24.760 -15.153  0.00  0.00    +0.048 C 
ATOM     31  C   UNL     1      28.371 -23.507 -16.519  0.00  0.00    +0.026 C 
ATOM     32  C   UNL     1      29.303 -22.667 -15.951  0.00  0.00    +0.012 C 
ATOM     33  C   UNL     1      31.214 -23.160 -14.247  0.00  0.00    +0.039 C 
ATOM     34  C   UNL     1      30.223 -25.805 -14.421  0.00  0.00    +0.018 C 
ATOM     35  C   UNL     1      31.799 -24.196 -13.509  0.00  0.00    +0.148 C 
ATOM     36  C   UNL     1      31.309 -25.497 -13.596  0.00  0.00    +0.039 C 
ATOM     37  C   UNL     1      27.289 -23.234 -17.481  0.00  0.00    +0.047 C 
ATOM     38  H   UNL     1      28.063 -25.563 -16.273  0.00  0.00    +0.152 HD
ENDBRANCH  27  35
ENDBRANCH   5  27
TORSDOF 9
ENDMDL
MODEL 4
REMARK VINA RESULT:     -11.1      1.559      5.037
REMARK  Name = 52920501
REMARK  9 active torsions:
REMARK  status: ('A' for Active; 'I' for Inactive)
REMARK    1  A    between atoms: N_1  and  C_12
REMARK    2  A    between atoms: C_5  and  O_27
REMARK    3  A    between atoms: C_9  and  C_15
REMARK    4  A    between atoms: C_15  and  S_16
REMARK    5  A    between atoms: S_16  and  N_19
REMARK    6  A    between atoms: N_19  and  C_21
REMARK    7  A    between atoms: C_21  and  C_22
REMARK    8  A    between atoms: C_22  and  N_23
REMARK    9  A    between atoms: O_27  and  C_35
REMARK                            x       y       z     vdW  Elec       q    Type
REMARK                         _______ _______ _______ _____ _____    ______ ____
ROOT
ATOM      1  N   UNL     1      36.535 -22.170 -18.051  0.00  0.00    -0.247 N 
ATOM      2  N   UNL     1      35.440 -22.750 -16.058  0.00  0.00    -0.300 NA
ATOM      3  N   UNL     1      37.823 -23.029 -16.288  0.00  0.00    -0.170 NA
ATOM      4  C   UNL     1      36.602 -22.674 -16.734  0.00  0.00    +0.152 C 
ATOM      5  C   UNL     1      35.542 -23.237 -14.804  0.00  0.00    +0.295 C 
ATOM      6  C   UNL     1      36.732 -23.635 -14.230  0.00  0.00    +0.094 C 
ATOM      7  C   UNL     1      37.851 -23.508 -15.027  0.00  0.00    +0.118 C 
ATOM      8  H   UNL     1      37.407 -22.132 -18.507  0.00  0.00    +0.165 HD
ENDROOT
BRANCH   1  12
ATOM      9  C   UNL     1      34.654 -20.543 -20.794  0.00  0.00    +0.004 C 
ATOM     10  C   UNL     1      35.716 -20.999 -20.013  0.00  0.00    +0.013 C 
ATOM     11  C   UNL     1      33.340 -20.796 -20.400  0.00  0.00    -0.002 C 
ATOM     12  C   UNL     1      35.464 -21.709 -18.840  0.00  0.00    +0.057 C 
ATOM     13  C   UNL     1      33.087 -21.506 -19.226  0.00  0.00    +0.001 C 
ATOM     14  C   UNL     1      34.150 -21.962 -18.446  0.00  0.00    +0.015 C 
BRANCH   9  15
ATOM     15  C   UNL     1      34.924 -19.785 -22.050  0.00  0.00    +0.195 C 
BRANCH  15  16
ATOM     16  S   UNL     1      35.898 -18.374 -21.633  0.00  0.00    +0.045 S 
ATOM     17  O   UNL     1      35.219 -17.640 -20.578  0.00  0.00    -0.157 OA
ATOM     18  O   UNL     1      37.271 -18.818 -21.448  0.00  0.00    -0.157 OA
BRANCH  16  19
ATOM     19  N   UNL     1      35.821 -17.481 -23.089  0.00  0.00    -0.185 NA
ATOM     20  H   UNL     1      35.388 -18.085 -23.788  0.00  0.00    +0.148 HD
BRANCH  19  21
ATOM     21  C   UNL     1      35.082 -16.205 -23.105  0.00  0.00    +0.068 C 
BRANCH  21  22
ATOM     22  C   UNL     1      34.436 -16.016 -24.470  0.00  0.00    -0.058 C 
BRANCH  22  23
ATOM     23  N   UNL     1      33.377 -15.018 -24.395  0.00  0.00    +0.385 N 
ATOM     24  C   UNL     1      33.647 -14.060 -23.320  0.00  0.00    -0.101 C 
ATOM     25  C   UNL     1      33.234 -14.318 -25.673  0.00  0.00    -0.101 C 
ATOM     26  H   UNL     1      32.501 -15.498 -24.188  0.00  0.00    -0.080 HD
ENDBRANCH  22  23
ENDBRANCH  21  22
ENDBRANCH  19  21
ENDBRANCH  16  19
ENDBRANCH  15  16
ENDBRANCH   9  15
ENDBRANCH   1  12
BRANCH   5  27
ATOM     27  O   UNL     1      34.373 -23.333 -14.068  0.00  0.00    -0.427 OA
BRANCH  27  35
ATOM     28  N   UNL     1      29.527 -23.444 -16.629  0.00  0.00    -0.316 N 
ATOM     29  C   UNL     1      30.807 -23.007 -14.855  0.00  0.00    +0.017 C 
ATOM     30  C   UNL     1      30.821 -23.495 -16.163  0.00  0.00    +0.048 C 
ATOM     31  C   UNL     1      28.696 -22.942 -15.664  0.00  0.00    +0.026 C 
ATOM     32  C   UNL     1      29.459 -22.662 -14.553  0.00  0.00    +0.012 C 
ATOM     33  C   UNL     1      32.018 -22.951 -14.138  0.00  0.00    +0.039 C 
ATOM     34  C   UNL     1      31.992 -23.932 -16.793  0.00  0.00    +0.018 C 
ATOM     35  C   UNL     1      33.197 -23.384 -14.755  0.00  0.00    +0.148 C 
ATOM     36  C   UNL     1      33.182 -23.867 -16.062  0.00  0.00    +0.039 C 
ATOM     37  C   UNL     1      27.251 -22.782 -15.904  0.00  0.00    +0.047 C 
ATOM     38  H   UNL     1      29.240 -23.727 -17.528  0.00  0.00    +0.152 HD
ENDBRANCH  27  35
ENDBRANCH   5  27
TORSDOF 9
ENDMDL
MODEL 5
REMARK VINA RESULT:     -10.8      5.504     13.912
REMARK  Name = 52920501
REMARK  9 active torsions:
REMARK  status: ('A' for Active; 'I' for Inactive)
REMARK    1  A    between atoms: N_1  and  C_12
REMARK    2  A    between atoms: C_5  and  O_27
REMARK    3  A    between atoms: C_9  and  C_15
REMARK    4  A    between atoms: C_15  and  S_16
REMARK    5  A    between atoms: S_16  and  N_19
REMARK    6  A    between atoms: N_19  and  C_21
REMARK    7  A    between atoms: C_21  and  C_22
REMARK    8  A    between atoms: C_22  and  N_23
REMARK    9  A    between atoms: O_27  and  C_35
REMARK                            x       y       z     vdW  Elec       q    Type
REMARK                         _______ _______ _______ _____ _____    ______ ____
ROOT
ATOM      1  N   UNL     1      32.836 -14.318 -20.434  0.00  0.00    -0.247 N 
ATOM      2  N   UNL     1      32.520 -12.348 -21.669  0.00  0.00    -0.300 NA
ATOM      3  N   UNL     1      31.615 -12.575 -19.446  0.00  0.00    -0.170 NA
ATOM      4  C   UNL     1      32.298 -13.016 -20.521  0.00  0.00    +0.152 C 
ATOM      5  C   UNL     1      31.990 -11.109 -21.718  0.00  0.00    +0.295 C 
ATOM      6  C   UNL     1      31.271 -10.540 -20.686  0.00  0.00    +0.094 C 
ATOM      7  C   UNL     1      31.114 -11.328 -19.564  0.00  0.00    +0.118 C 
ATOM      8  H   UNL     1      32.650 -14.768 -19.578  0.00  0.00    +0.165 HD
ENDROOT
BRANCH   1  12
ATOM      9  C   UNL     1      35.153 -16.894 -21.740  0.00  0.00    +0.004 C 
ATOM     10  C   UNL     1      34.407 -16.121 -20.851  0.00  0.00    +0.013 C 
ATOM     11  C   UNL     1      35.082 -16.643 -23.111  0.00  0.00    -0.002 C 
ATOM     12  C   UNL     1      33.589 -15.099 -21.331  0.00  0.00    +0.057 C 
ATOM     13  C   UNL     1      34.264 -15.620 -23.592  0.00  0.00    +0.001 C 
ATOM     14  C   UNL     1      33.518 -14.848 -22.701  0.00  0.00    +0.015 C 
BRANCH   9  15
ATOM     15  C   UNL     1      36.026 -17.988 -21.227  0.00  0.00    +0.195 C 
BRANCH  15  16
ATOM     16  S   UNL     1      35.087 -19.481 -21.234  0.00  0.00    +0.045 S 
ATOM     17  O   UNL     1      33.788 -19.211 -20.641  0.00  0.00    -0.157 OA
ATOM     18  O   UNL     1      35.176 -20.059 -22.566  0.00  0.00    -0.157 OA
BRANCH  16  19
ATOM     19  N   UNL     1      36.008 -20.453 -20.170  0.00  0.00    -0.185 NA
ATOM     20  H   UNL     1      36.091 -19.940 -19.293  0.00  0.00    +0.148 HD
BRANCH  19  21
ATOM     21  C   UNL     1      35.522 -21.804 -19.836  0.00  0.00    +0.068 C 
BRANCH  21  22
ATOM     22  C   UNL     1      35.797 -22.086 -18.366  0.00  0.00    -0.058 C 
BRANCH  22  23
ATOM     23  N   UNL     1      34.840 -23.058 -17.850  0.00  0.00    +0.385 N 
ATOM     24  C   UNL     1      34.938 -23.156 -16.393  0.00  0.00    -0.101 C 
ATOM     25  C   UNL     1      33.476 -22.699 -18.244  0.00  0.00    -0.101 C 
ATOM     26  H   UNL     1      35.064 -23.969 -18.252  0.00  0.00    -0.080 HD
ENDBRANCH  22  23
ENDBRANCH  21  22
ENDBRANCH  19  21
ENDBRANCH  16  19
ENDBRANCH  15  16
ENDBRANCH   9  15
ENDBRANCH   1  12
BRANCH   5  27
ATOM     27  O   UNL     1      32.193 -10.382 -22.878  0.00  0.00    -0.427 OA
BRANCH  27  35
ATOM     28  N   UNL     1      32.397  -4.918 -22.468  0.00  0.00    -0.316 N 
ATOM     29  C   UNL     1      31.296  -6.826 -22.821  0.00  0.00    +0.017 C 
ATOM     30  C   UNL     1      32.550  -6.284 -22.529  0.00  0.00    +0.048 C 
ATOM     31  C   UNL     1      31.094  -4.577 -22.710  0.00  0.00    +0.026 C 
ATOM     32  C   UNL     1      30.387  -5.737 -22.932  0.00  0.00    +0.012 C 
ATOM     33  C   UNL     1      31.172  -8.224 -22.940  0.00  0.00    +0.039 C 
ATOM     34  C   UNL     1      33.691  -7.075 -22.350  0.00  0.00    +0.018 C 
ATOM     35  C   UNL     1      32.305  -9.028 -22.764  0.00  0.00    +0.148 C 
ATOM     36  C   UNL     1      33.544  -8.460 -22.474  0.00  0.00    +0.039 C 
ATOM     37  C   UNL     1      30.656  -3.170 -22.705  0.00  0.00    +0.047 C 
ATOM     38  H   UNL     1      33.120  -4.278 -22.277  0.00  0.00    +0.152 HD
ENDBRANCH  27  35
ENDBRANCH   5  27
TORSDOF 9
ENDMDL
MODEL 6
REMARK VINA RESULT:     -10.8      2.700     11.156
REMARK  Name = 52920501
REMARK  9 active torsions:
REMARK  status: ('A' for Active; 'I' for Inactive)
REMARK    1  A    between atoms: N_1  and  C_12
REMARK    2  A    between atoms: C_5  and  O_27
REMARK    3  A    between atoms: C_9  and  C_15
REMARK    4  A    between atoms: C_15  and  S_16
REMARK    5  A    between atoms: S_16  and  N_19
REMARK    6  A    between atoms: N_19  and  C_21
REMARK    7  A    between atoms: C_21  and  C_22
REMARK    8  A    between atoms: C_22  and  N_23
REMARK    9  A    between atoms: O_27  and  C_35
REMARK                            x       y       z     vdW  Elec       q    Type
REMARK                         _______ _______ _______ _____ _____    ______ ____
ROOT
ATOM      1  N   UNL     1      35.139 -21.454 -20.897  0.00  0.00    -0.247 N 
ATOM      2  N   UNL     1      34.995 -19.130 -20.602  0.00  0.00    -0.300 NA
ATOM      3  N   UNL     1      35.322 -20.082 -22.792  0.00  0.00    -0.170 NA
ATOM      4  C   UNL     1      35.152 -20.158 -21.458  0.00  0.00    +0.152 C 
ATOM      5  C   UNL     1      35.014 -17.908 -21.172  0.00  0.00    +0.295 C 
ATOM      6  C   UNL     1      35.180 -17.694 -22.525  0.00  0.00    +0.094 C 
ATOM      7  C   UNL     1      35.331 -18.830 -23.294  0.00  0.00    +0.118 C 
ATOM      8  H   UNL     1      35.256 -22.174 -21.559  0.00  0.00    +0.165 HD
ENDROOT
BRANCH   1  12
ATOM      9  C   UNL     1      35.936 -22.409 -17.410  0.00  0.00    +0.004 C 
ATOM     10  C   UNL     1      36.086 -21.949 -18.718  0.00  0.00    +0.013 C 
ATOM     11  C   UNL     1      34.687 -22.839 -16.961  0.00  0.00    -0.002 C 
ATOM     12  C   UNL     1      34.988 -21.918 -19.577  0.00  0.00    +0.057 C 
ATOM     13  C   UNL     1      33.588 -22.809 -17.820  0.00  0.00    +0.001 C 
ATOM     14  C   UNL     1      33.739 -22.348 -19.129  0.00  0.00    +0.015 C 
BRANCH   9  15
ATOM     15  C   UNL     1      37.110 -22.441 -16.491  0.00  0.00    +0.195 C 
BRANCH  15  16
ATOM     16  S   UNL     1      36.611 -23.240 -15.000  0.00  0.00    +0.045 S 
ATOM     17  O   UNL     1      37.690 -23.127 -14.033  0.00  0.00    -0.157 OA
ATOM     18  O   UNL     1      35.276 -22.769 -14.665  0.00  0.00    -0.157 OA
BRANCH  16  19
ATOM     19  N   UNL     1      36.485 -24.863 -15.525  0.00  0.00    -0.185 NA
ATOM     20  H   UNL     1      37.360 -25.094 -15.995  0.00  0.00    +0.148 HD
BRANCH  19  21
ATOM     21  C   UNL     1      36.240 -25.920 -14.527  0.00  0.00    +0.068 C 
BRANCH  21  22
ATOM     22  C   UNL     1      37.344 -26.962 -14.617  0.00  0.00    -0.058 C 
BRANCH  22  23
ATOM     23  N   UNL     1      38.195 -26.902 -13.435  0.00  0.00    +0.385 N 
ATOM     24  C   UNL     1      39.407 -26.128 -13.710  0.00  0.00    -0.101 C 
ATOM     25  C   UNL     1      37.468 -26.320 -12.305  0.00  0.00    -0.101 C 
ATOM     26  H   UNL     1      38.467 -27.854 -13.190  0.00  0.00    -0.080 HD
ENDBRANCH  22  23
ENDBRANCH  21  22
ENDBRANCH  19  21
ENDBRANCH  16  19
ENDBRANCH  15  16
ENDBRANCH   9  15
ENDBRANCH   1  12
BRANCH   5  27
ATOM     27  O   UNL     1      34.855 -16.818 -20.332  0.00  0.00    -0.427 OA
BRANCH  27  35
ATOM     28  N   UNL     1      32.495 -12.259 -22.254  0.00  0.00    -0.316 N 
ATOM     29  C   UNL     1      32.737 -13.849 -20.709  0.00  0.00    +0.017 C 
ATOM     30  C   UNL     1      33.201 -13.399 -21.947  0.00  0.00    +0.048 C 
ATOM     31  C   UNL     1      31.603 -11.971 -21.257  0.00  0.00    +0.026 C 
ATOM     32  C   UNL     1      31.728 -12.939 -20.286  0.00  0.00    +0.012 C 
ATOM     33  C   UNL     1      33.300 -15.016 -20.156  0.00  0.00    +0.039 C 
ATOM     34  C   UNL     1      34.205 -14.061 -22.662  0.00  0.00    +0.018 C 
ATOM     35  C   UNL     1      34.305 -15.689 -20.860  0.00  0.00    +0.148 C 
ATOM     36  C   UNL     1      34.749 -15.217 -22.094  0.00  0.00    +0.039 C 
ATOM     37  C   UNL     1      30.716 -10.796 -21.336  0.00  0.00    +0.047 C 
ATOM     38  H   UNL     1      32.615 -11.725 -23.074  0.00  0.00    +0.152 HD
ENDBRANCH  27  35
ENDBRANCH   5  27
TORSDOF 9
ENDMDL
MODEL 7
REMARK VINA RESULT:     -10.8      3.317     12.271
REMARK  Name = 52920501
REMARK  9 active torsions:
REMARK  status: ('A' for Active; 'I' for Inactive)
REMARK    1  A    between atoms: N_1  and  C_12
REMARK    2  A    between atoms: C_5  and  O_27
REMARK    3  A    between atoms: C_9  and  C_15
REMARK    4  A    between atoms: C_15  and  S_16
REMARK    5  A    between atoms: S_16  and  N_19
REMARK    6  A    between atoms: N_19  and  C_21
REMARK    7  A    between atoms: C_21  and  C_22
REMARK    8  A    between atoms: C_22  and  N_23
REMARK    9  A    between atoms: O_27  and  C_35
REMARK                            x       y       z     vdW  Elec       q    Type
REMARK                         _______ _______ _______ _____ _____    ______ ____
ROOT
ATOM      1  N   UNL     1      35.198 -18.274 -23.802  0.00  0.00    -0.247 N 
ATOM      2  N   UNL     1      34.250 -16.265 -23.047  0.00  0.00    -0.300 NA
ATOM      3  N   UNL     1      34.385 -16.762 -25.401  0.00  0.00    -0.170 NA
ATOM      4  C   UNL     1      34.580 -17.040 -24.098  0.00  0.00    +0.152 C 
ATOM      5  C   UNL     1      33.663 -15.093 -23.366  0.00  0.00    +0.295 C 
ATOM      6  C   UNL     1      33.407 -14.691 -24.661  0.00  0.00    +0.094 C 
ATOM      7  C   UNL     1      33.794 -15.574 -25.648  0.00  0.00    +0.118 C 
ATOM      8  H   UNL     1      35.421 -18.807 -24.599  0.00  0.00    +0.165 HD
ENDROOT
BRANCH   1  12
ATOM      9  C   UNL     1      34.957 -20.217 -20.659  0.00  0.00    +0.004 C 
ATOM     10  C   UNL     1      34.602 -19.604 -21.860  0.00  0.00    +0.013 C 
ATOM     11  C   UNL     1      36.266 -20.118 -20.186  0.00  0.00    -0.002 C 
ATOM     12  C   UNL     1      35.555 -18.893 -22.590  0.00  0.00    +0.057 C 
ATOM     13  C   UNL     1      37.220 -19.408 -20.915  0.00  0.00    +0.001 C 
ATOM     14  C   UNL     1      36.864 -18.795 -22.117  0.00  0.00    +0.015 C 
BRANCH   9  15
ATOM     15  C   UNL     1      33.938 -20.978 -19.880  0.00  0.00    +0.195 C 
BRANCH  15  16
ATOM     16  S   UNL     1      34.746 -22.356 -19.131  0.00  0.00    +0.045 S 
ATOM     17  O   UNL     1      35.391 -23.135 -20.175  0.00  0.00    -0.157 OA
ATOM     18  O   UNL     1      35.520 -21.862 -18.003  0.00  0.00    -0.157 OA
BRANCH  16  19
ATOM     19  N   UNL     1      33.407 -23.225 -18.516  0.00  0.00    -0.185 NA
ATOM     20  H   UNL     1      33.394 -24.128 -18.990  0.00  0.00    +0.148 HD
BRANCH  19  21
ATOM     21  C   UNL     1      33.336 -23.497 -17.069  0.00  0.00    +0.068 C 
BRANCH  21  22
ATOM     22  C   UNL     1      31.939 -23.166 -16.564  0.00  0.00    -0.058 C 
BRANCH  22  23
ATOM     23  N   UNL     1      31.843 -23.432 -15.134  0.00  0.00    +0.385 N 
ATOM     24  C   UNL     1      30.859 -24.484 -14.870  0.00  0.00    -0.101 C 
ATOM     25  C   UNL     1      33.148 -23.810 -14.590  0.00  0.00    -0.101 C 
ATOM     26  H   UNL     1      31.534 -22.576 -14.672  0.00  0.00    -0.080 HD
ENDBRANCH  22  23
ENDBRANCH  21  22
ENDBRANCH  19  21
ENDBRANCH  16  19
ENDBRANCH  15  16
ENDBRANCH   9  15
ENDBRANCH   1  12
BRANCH   5  27
ATOM     27  O   UNL     1      33.304 -14.261 -22.319  0.00  0.00    -0.427 OA
BRANCH  27  35
ATOM     28  N   UNL     1      32.747  -8.877 -23.187  0.00  0.00    -0.316 N 
ATOM     29  C   UNL     1      32.159 -10.780 -22.183  0.00  0.00    +0.017 C 
ATOM     30  C   UNL     1      33.041 -10.219 -23.109  0.00  0.00    +0.048 C 
ATOM     31  C   UNL     1      31.712  -8.570 -22.346  0.00  0.00    +0.026 C 
ATOM     32  C   UNL     1      31.326  -9.729 -21.710  0.00  0.00    +0.012 C 
ATOM     33  C   UNL     1      32.247 -12.160 -21.912  0.00  0.00    +0.039 C 
ATOM     34  C   UNL     1      34.012 -10.972 -23.779  0.00  0.00    +0.018 C 
ATOM     35  C   UNL     1      33.213 -12.926 -22.576  0.00  0.00    +0.148 C 
ATOM     36  C   UNL     1      34.080 -12.339 -23.495  0.00  0.00    +0.039 C 
ATOM     37  C   UNL     1      31.194  -7.194 -22.236  0.00  0.00    +0.047 C 
ATOM     38  H   UNL     1      33.214  -8.230 -23.764  0.00  0.00    +0.152 HD
ENDBRANCH  27  35
ENDBRANCH   5  27
TORSDOF 9
ENDMDL
MODEL 8
REMARK VINA RESULT:     -10.7      2.616     10.586
REMARK  Name = 52920501
REMARK  9 active torsions:
REMARK  status: ('A' for Active; 'I' for Inactive)
REMARK    1  A    between atoms: N_1  and  C_12
REMARK    2  A    between atoms: C_5  and  O_27
REMARK    3  A    between atoms: C_9  and  C_15
REMARK    4  A    between atoms: C_15  and  S_16
REMARK    5  A    between atoms: S_16  and  N_19
REMARK    6  A    between atoms: N_19  and  C_21
REMARK    7  A    between atoms: C_21  and  C_22
REMARK    8  A    between atoms: C_22  and  N_23
REMARK    9  A    between atoms: O_27  and  C_35
REMARK                            x       y       z     vdW  Elec       q    Type
REMARK                         _______ _______ _______ _____ _____    ______ ____
ROOT
ATOM      1  N   UNL     1      34.280 -22.652 -17.532  0.00  0.00    -0.247 N 
ATOM      2  N   UNL     1      35.070 -21.109 -19.113  0.00  0.00    -0.300 NA
ATOM      3  N   UNL     1      32.850 -22.029 -19.285  0.00  0.00    -0.170 NA
ATOM      4  C   UNL     1      34.056 -21.892 -18.701  0.00  0.00    +0.152 C 
ATOM      5  C   UNL     1      34.822 -20.398 -20.232  0.00  0.00    +0.295 C 
ATOM      6  C   UNL     1      33.629 -20.448 -20.924  0.00  0.00    +0.094 C 
ATOM      7  C   UNL     1      32.670 -21.289 -20.399  0.00  0.00    +0.118 C 
ATOM      8  H   UNL     1      33.512 -23.210 -17.268  0.00  0.00    +0.165 HD
ENDROOT
BRANCH   1  12
ATOM      9  C   UNL     1      36.289 -23.172 -14.466  0.00  0.00    +0.004 C 
ATOM     10  C   UNL     1      35.192 -23.057 -15.320  0.00  0.00    +0.013 C 
ATOM     11  C   UNL     1      37.581 -22.997 -14.963  0.00  0.00    -0.002 C 
ATOM     12  C   UNL     1      35.386 -22.768 -16.670  0.00  0.00    +0.057 C 
ATOM     13  C   UNL     1      37.776 -22.708 -16.314  0.00  0.00    +0.001 C 
ATOM     14  C   UNL     1      36.678 -22.593 -17.167  0.00  0.00    +0.015 C 
BRANCH   9  15
ATOM     15  C   UNL     1      36.081 -23.482 -13.022  0.00  0.00    +0.195 C 
BRANCH  15  16
ATOM     16  S   UNL     1      35.315 -25.067 -12.913  0.00  0.00    +0.045 S 
ATOM     17  O   UNL     1      35.147 -25.402 -11.508  0.00  0.00    -0.157 OA
ATOM     18  O   UNL     1      34.169 -25.073 -13.808  0.00  0.00    -0.157 OA
BRANCH  16  19
ATOM     19  N   UNL     1      36.527 -26.064 -13.595  0.00  0.00    -0.185 NA
ATOM     20  H   UNL     1      36.986 -25.519 -14.325  0.00  0.00    +0.148 HD
BRANCH  19  21
ATOM     21  C   UNL     1      37.589 -26.596 -12.722  0.00  0.00    +0.068 C 
BRANCH  21  22
ATOM     22  C   UNL     1      38.883 -25.842 -12.989  0.00  0.00    -0.058 C 
BRANCH  22  23
ATOM     23  N   UNL     1      39.634 -26.489 -14.058  0.00  0.00    +0.385 N 
ATOM     24  C   UNL     1      39.923 -25.538 -15.134  0.00  0.00    -0.101 C 
ATOM     25  C   UNL     1      40.877 -27.064 -13.542  0.00  0.00    -0.101 C 
ATOM     26  H   UNL     1      39.060 -27.242 -14.438  0.00  0.00    -0.080 HD
ENDBRANCH  22  23
ENDBRANCH  21  22
ENDBRANCH  19  21
ENDBRANCH  16  19
ENDBRANCH  15  16
ENDBRANCH   9  15
ENDBRANCH   1  12
BRANCH   5  27
ATOM     27  O   UNL     1      35.835 -19.576 -20.695  0.00  0.00    -0.427 OA
BRANCH  27  35
ATOM     28  N   UNL     1      34.394 -15.249 -23.739  0.00  0.00    -0.316 N 
ATOM     29  C   UNL     1      34.780 -16.234 -21.774  0.00  0.00    +0.017 C 
ATOM     30  C   UNL     1      34.778 -16.436 -23.156  0.00  0.00    +0.048 C 
ATOM     31  C   UNL     1      34.154 -14.306 -22.777  0.00  0.00    +0.026 C 
ATOM     32  C   UNL     1      34.385 -14.885 -21.550  0.00  0.00    +0.012 C 
ATOM     33  C   UNL     1      35.141 -17.304 -20.932  0.00  0.00    +0.039 C 
ATOM     34  C   UNL     1      35.120 -17.660 -23.740  0.00  0.00    +0.018 C 
ATOM     35  C   UNL     1      35.485 -18.535 -21.503  0.00  0.00    +0.148 C 
ATOM     36  C   UNL     1      35.474 -18.708 -22.885  0.00  0.00    +0.039 C 
ATOM     37  C   UNL     1      33.726 -12.941 -23.131  0.00  0.00    +0.047 C 
ATOM     38  H   UNL     1      34.305 -15.100 -24.708  0.00  0.00    +0.152 HD
ENDBRANCH  27  35
ENDBRANCH   5  27
TORSDOF 9
ENDMDL
MODEL 9
REMARK VINA RESULT:     -10.7      1.450      2.041
REMARK  Name = 52920501
REMARK  9 active torsions:
REMARK  status: ('A' for Active; 'I' for Inactive)
REMARK    1  A    between atoms: N_1  and  C_12
REMARK    2  A    between atoms: C_5  and  O_27
REMARK    3  A    between atoms: C_9  and  C_15
REMARK    4  A    between atoms: C_15  and  S_16
REMARK    5  A    between atoms: S_16  and  N_19
REMARK    6  A    between atoms: N_19  and  C_21
REMARK    7  A    between atoms: C_21  and  C_22
REMARK    8  A    between atoms: C_22  and  N_23
REMARK    9  A    between atoms: O_27  and  C_35
REMARK                            x       y       z     vdW  Elec       q    Type
REMARK                         _______ _______ _______ _____ _____    ______ ____
ROOT
ATOM      1  N   UNL     1      32.917 -23.536 -17.046  0.00  0.00    -0.247 N 
ATOM      2  N   UNL     1      33.299 -23.673 -14.735  0.00  0.00    -0.300 NA
ATOM      3  N   UNL     1      31.195 -24.368 -15.685  0.00  0.00    -0.170 NA
ATOM      4  C   UNL     1      32.448 -23.876 -15.759  0.00  0.00    +0.152 C 
ATOM      5  C   UNL     1      32.817 -24.008 -13.520  0.00  0.00    +0.295 C 
ATOM      6  C   UNL     1      31.554 -24.521 -13.310  0.00  0.00    +0.094 C 
ATOM      7  C   UNL     1      30.779 -24.681 -14.441  0.00  0.00    +0.118 C 
ATOM      8  H   UNL     1      32.262 -23.701 -17.763  0.00  0.00    +0.165 HD
ENDROOT
BRANCH   1  12
ATOM      9  C   UNL     1      35.496 -22.131 -19.300  0.00  0.00    +0.004 C 
ATOM     10  C   UNL     1      34.285 -22.653 -18.846  0.00  0.00    +0.013 C 
ATOM     11  C   UNL     1      36.560 -21.965 -18.414  0.00  0.00    -0.002 C 
ATOM     12  C   UNL     1      34.138 -23.009 -17.506  0.00  0.00    +0.057 C 
ATOM     13  C   UNL     1      36.414 -22.320 -17.073  0.00  0.00    +0.001 C 
ATOM     14  C   UNL     1      35.202 -22.843 -16.619  0.00  0.00    +0.015 C 
BRANCH   9  15
ATOM     15  C   UNL     1      35.653 -21.750 -20.734  0.00  0.00    +0.195 C 
BRANCH  15  16
ATOM     16  S   UNL     1      35.216 -20.048 -20.893  0.00  0.00    +0.045 S 
ATOM     17  O   UNL     1      33.844 -19.881 -20.443  0.00  0.00    -0.157 OA
ATOM     18  O   UNL     1      36.281 -19.255 -20.301  0.00  0.00    -0.157 OA
BRANCH  16  19
ATOM     19  N   UNL     1      35.286 -19.851 -22.591  0.00  0.00    -0.185 NA
ATOM     20  H   UNL     1      34.786 -20.637 -23.005  0.00  0.00    +0.148 HD
BRANCH  19  21
ATOM     21  C   UNL     1      34.732 -18.623 -23.190  0.00  0.00    +0.068 C 
BRANCH  21  22
ATOM     22  C   UNL     1      35.614 -17.440 -22.820  0.00  0.00    -0.058 C 
BRANCH  22  23
ATOM     23  N   UNL     1      35.339 -16.310 -23.698  0.00  0.00    +0.385 N 
ATOM     24  C   UNL     1      34.652 -16.755 -24.912  0.00  0.00    -0.101 C 
ATOM     25  C   UNL     1      34.539 -15.299 -23.004  0.00  0.00    -0.101 C 
ATOM     26  H   UNL     1      36.230 -15.890 -23.965  0.00  0.00    -0.080 HD
ENDBRANCH  22  23
ENDBRANCH  21  22
ENDBRANCH  19  21
ENDBRANCH  16  19
ENDBRANCH  15  16
ENDBRANCH   9  15
ENDBRANCH   1  12
BRANCH   5  27
ATOM     27  O   UNL     1      33.657 -23.818 -12.435  0.00  0.00    -0.427 OA
BRANCH  27  35
ATOM     28  N   UNL     1      38.673 -25.986 -12.875  0.00  0.00    -0.316 N 
ATOM     29  C   UNL     1      36.989 -24.746 -13.652  0.00  0.00    +0.017 C 
ATOM     30  C   UNL     1      37.405 -25.540 -12.581  0.00  0.00    +0.048 C 
ATOM     31  C   UNL     1      39.074 -25.504 -14.092  0.00  0.00    +0.026 C 
ATOM     32  C   UNL     1      38.052 -24.732 -14.598  0.00  0.00    +0.012 C 
ATOM     33  C   UNL     1      35.710 -24.157 -13.605  0.00  0.00    +0.039 C 
ATOM     34  C   UNL     1      36.602 -25.775 -11.460  0.00  0.00    +0.018 C 
ATOM     35  C   UNL     1      34.896 -24.384 -12.489  0.00  0.00    +0.148 C 
ATOM     36  C   UNL     1      35.336 -25.181 -11.434  0.00  0.00    +0.039 C 
ATOM     37  C   UNL     1      40.398 -25.833 -14.649  0.00  0.00    +0.047 C 
ATOM     38  H   UNL     1      39.215 -26.568 -12.294  0.00  0.00    +0.152 HD
ENDBRANCH  27  35
ENDBRANCH   5  27
TORSDOF 9
ENDMDL
