MODEL 1
REMARK VINA RESULT:     -11.7      0.000      0.000
REMARK  Name = 44123754
REMARK  11 active torsions:
REMARK  status: ('A' for Active; 'I' for Inactive)
REMARK    1  A    between atoms: C_3  and  C_22
REMARK    2  A    between atoms: C_4  and  C_7
REMARK    3  A    between atoms: N_6  and  C_15
REMARK    4  A    between atoms: C_8  and  N_12
REMARK    5  A    between atoms: C_15  and  O_16
REMARK    6  A    between atoms: O_16  and  P_17
REMARK    7  A    between atoms: P_17  and  O_20
REMARK    8  A    between atoms: C_22  and  C_23
REMARK    9  A    between atoms: C_26  and  C_29
REMARK   10  A    between atoms: C_29  and  O_30
REMARK   11  A    between atoms: O_30  and  C_32
REMARK                            x       y       z     vdW  Elec       q    Type
REMARK                         _______ _______ _______ _____ _____    ______ ____
ROOT
ATOM      1  O   UNL     1      34.839 -16.198 -20.720  0.00  0.00    -0.354 OA
ATOM      2  N   UNL     1      35.303 -17.491 -20.509  0.00  0.00    -0.081 NA
ATOM      3  C   UNL     1      35.223 -18.086 -21.702  0.00  0.00    +0.105 C 
ATOM      4  C   UNL     1      34.495 -16.053 -22.025  0.00  0.00    +0.175 C 
ATOM      5  C   UNL     1      34.720 -17.226 -22.694  0.00  0.00    +0.058 C 
ENDROOT
BRANCH   4   7
ATOM      6  N   UNL     1      32.558 -12.904 -22.054  0.00  0.00    -0.266 N 
ATOM      7  C   UNL     1      33.991 -14.751 -22.398  0.00  0.00    +0.048 C 
ATOM      8  C   UNL     1      32.996 -14.112 -21.673  0.00  0.00    +0.156 C 
ATOM      9  C   UNL     1      34.518 -14.115 -23.518  0.00  0.00    +0.003 C 
ATOM     10  C   UNL     1      33.048 -12.270 -23.128  0.00  0.00    +0.064 C 
ATOM     11  C   UNL     1      34.044 -12.861 -23.891  0.00  0.00    +0.016 C 
BRANCH   8  12
ATOM     12  N   UNL     1      32.435 -14.723 -20.531  0.00  0.00    -0.303 NA
ATOM     13  H   UNL     1      31.987 -14.172 -19.848  0.00  0.00    +0.121 HD
ATOM     14  H   UNL     1      32.492 -15.699 -20.417  0.00  0.00    +0.121 HD
ENDBRANCH   8  12
BRANCH   6  15
ATOM     15  C   UNL     1      31.507 -12.230 -21.288  0.00  0.00    +0.251 C 
BRANCH  15  16
ATOM     16  O   UNL     1      31.992 -11.979 -19.976  0.00  0.00    -0.250 OA
BRANCH  16  17
ATOM     17  P   UNL     1      31.568 -10.594 -19.219  0.00  0.00    +0.504 P 
ATOM     18  O   UNL     1      32.711 -10.115 -18.350  0.00  0.00    -0.225 OA
ATOM     19  O   UNL     1      30.183 -10.772 -18.635  0.00  0.00    -0.116 OA
BRANCH  17  20
ATOM     20  O   UNL     1      31.450  -9.606 -20.514  0.00  0.00    -0.301 OA
ATOM     21  H   UNL     1      31.083  -8.752 -20.237  0.00  0.00    +0.222 HD
ENDBRANCH  17  20
ENDBRANCH  16  17
ENDBRANCH  15  16
ENDBRANCH   6  15
ENDBRANCH   4   7
BRANCH   3  22
ATOM     22  C   UNL     1      35.640 -19.489 -21.852  0.00  0.00    +0.075 C 
BRANCH  22  23
ATOM     23  C   UNL     1      35.133 -20.422 -20.760  0.00  0.00    -0.016 C 
ATOM     24  C   UNL     1      33.765 -20.520 -20.506  0.00  0.00    -0.004 C 
ATOM     25  C   UNL     1      36.037 -21.180 -20.015  0.00  0.00    -0.004 C 
ATOM     26  C   UNL     1      34.204 -22.132 -18.761  0.00  0.00    +0.021 C 
ATOM     27  C   UNL     1      33.300 -21.374 -19.507  0.00  0.00    -0.001 C 
ATOM     28  C   UNL     1      35.572 -22.034 -19.015  0.00  0.00    -0.001 C 
BRANCH  26  29
ATOM     29  C   UNL     1      33.706 -23.047 -17.694  0.00  0.00    +0.234 C 
BRANCH  29  30
ATOM     30  O   UNL     1      32.284 -23.056 -17.705  0.00  0.00    -0.455 OA
BRANCH  30  32
ATOM     31  N   UNL     1      30.318 -23.015 -16.473  0.00  0.00    -0.210 NA
ATOM     32  C   UNL     1      31.658 -23.190 -16.493  0.00  0.00    +0.225 C 
ATOM     33  C   UNL     1      32.418 -23.495 -15.375  0.00  0.00    +0.058 C 
ATOM     34  C   UNL     1      31.760 -23.628 -14.157  0.00  0.00    +0.006 C 
ATOM     35  C   UNL     1      29.713 -23.153 -15.272  0.00  0.00    +0.102 C 
ATOM     36  C   UNL     1      30.381 -23.456 -14.096  0.00  0.00    +0.021 C 
ENDBRANCH  30  32
ENDBRANCH  29  30
ENDBRANCH  26  29
ENDBRANCH  22  23
ENDBRANCH   3  22
TORSDOF 11
ENDMDL
MODEL 2
REMARK VINA RESULT:     -11.5      5.526     12.210
REMARK  Name = 44123754
REMARK  11 active torsions:
REMARK  status: ('A' for Active; 'I' for Inactive)
REMARK    1  A    between atoms: C_3  and  C_22
REMARK    2  A    between atoms: C_4  and  C_7
REMARK    3  A    between atoms: N_6  and  C_15
REMARK    4  A    between atoms: C_8  and  N_12
REMARK    5  A    between atoms: C_15  and  O_16
REMARK    6  A    between atoms: O_16  and  P_17
REMARK    7  A    between atoms: P_17  and  O_20
REMARK    8  A    between atoms: C_22  and  C_23
REMARK    9  A    between atoms: C_26  and  C_29
REMARK   10  A    between atoms: C_29  and  O_30
REMARK   11  A    between atoms: O_30  and  C_32
REMARK                            x       y       z     vdW  Elec       q    Type
REMARK                         _______ _______ _______ _____ _____    ______ ____
ROOT
ATOM      1  O   UNL     1      33.218 -23.534 -14.581  0.00  0.00    -0.354 OA
ATOM      2  N   UNL     1      32.566 -23.259 -15.777  0.00  0.00    -0.081 NA
ATOM      3  C   UNL     1      33.422 -23.636 -16.731  0.00  0.00    +0.105 C 
ATOM      4  C   UNL     1      34.439 -24.065 -14.847  0.00  0.00    +0.175 C 
ATOM      5  C   UNL     1      34.618 -24.151 -16.202  0.00  0.00    +0.058 C 
ENDROOT
BRANCH   4   7
ATOM      6  N   UNL     1      37.096 -25.472 -12.696  0.00  0.00    -0.266 N 
ATOM      7  C   UNL     1      35.238 -24.405 -13.692  0.00  0.00    +0.048 C 
ATOM      8  C   UNL     1      36.383 -25.181 -13.793  0.00  0.00    +0.156 C 
ATOM      9  C   UNL     1      34.851 -23.942 -12.439  0.00  0.00    +0.003 C 
ATOM     10  C   UNL     1      36.746 -25.040 -11.478  0.00  0.00    +0.064 C 
ATOM     11  C   UNL     1      35.610 -24.261 -11.317  0.00  0.00    +0.016 C 
BRANCH   8  12
ATOM     12  N   UNL     1      36.811 -25.671 -15.047  0.00  0.00    -0.303 NA
ATOM     13  H   UNL     1      37.720 -26.036 -15.148  0.00  0.00    +0.121 HD
ATOM     14  H   UNL     1      36.200 -25.646 -15.818  0.00  0.00    +0.121 HD
ENDBRANCH   8  12
BRANCH   6  15
ATOM     15  C   UNL     1      38.305 -26.292 -12.804  0.00  0.00    +0.251 C 
BRANCH  15  16
ATOM     16  O   UNL     1      39.409 -25.438 -13.074  0.00  0.00    -0.250 OA
BRANCH  16  17
ATOM     17  P   UNL     1      40.528 -25.901 -14.171  0.00  0.00    +0.504 P 
ATOM     18  O   UNL     1      41.231 -27.152 -13.690  0.00  0.00    -0.225 OA
ATOM     19  O   UNL     1      41.326 -24.684 -14.585  0.00  0.00    -0.116 OA
BRANCH  17  20
ATOM     20  O   UNL     1      39.539 -26.304 -15.408  0.00  0.00    -0.301 OA
ATOM     21  H   UNL     1      39.540 -25.592 -16.067  0.00  0.00    +0.222 HD
ENDBRANCH  17  20
ENDBRANCH  16  17
ENDBRANCH  15  16
ENDBRANCH   6  15
ENDBRANCH   4   7
BRANCH   3  22
ATOM     22  C   UNL     1      33.055 -23.485 -18.149  0.00  0.00    +0.075 C 
BRANCH  22  23
ATOM     23  C   UNL     1      33.847 -22.421 -18.899  0.00  0.00    -0.016 C 
ATOM     24  C   UNL     1      33.177 -21.432 -19.619  0.00  0.00    -0.004 C 
ATOM     25  C   UNL     1      35.242 -22.436 -18.865  0.00  0.00    -0.004 C 
ATOM     26  C   UNL     1      35.296 -20.473 -20.272  0.00  0.00    +0.021 C 
ATOM     27  C   UNL     1      33.901 -20.458 -20.306  0.00  0.00    -0.001 C 
ATOM     28  C   UNL     1      35.966 -21.462 -19.552  0.00  0.00    -0.001 C 
BRANCH  26  29
ATOM     29  C   UNL     1      36.070 -19.430 -21.005  0.00  0.00    +0.234 C 
BRANCH  29  30
ATOM     30  O   UNL     1      35.622 -18.141 -20.603  0.00  0.00    -0.455 OA
BRANCH  30  32
ATOM     31  N   UNL     1      35.334 -17.735 -22.870  0.00  0.00    -0.210 NA
ATOM     32  C   UNL     1      35.202 -17.296 -21.597  0.00  0.00    +0.225 C 
ATOM     33  C   UNL     1      34.672 -16.064 -21.252  0.00  0.00    +0.058 C 
ATOM     34  C   UNL     1      34.251 -15.226 -22.279  0.00  0.00    +0.006 C 
ATOM     35  C   UNL     1      34.913 -16.893 -23.841  0.00  0.00    +0.102 C 
ATOM     36  C   UNL     1      34.370 -15.641 -23.601  0.00  0.00    +0.021 C 
ENDBRANCH  30  32
ENDBRANCH  29  30
ENDBRANCH  26  29
ENDBRANCH  22  23
ENDBRANCH   3  22
TORSDOF 11
ENDMDL
MODEL 3
REMARK VINA RESULT:     -11.5      3.904     10.326
REMARK  Name = 44123754
REMARK  11 active torsions:
REMARK  status: ('A' for Active; 'I' for Inactive)
REMARK    1  A    between atoms: C_3  and  C_22
REMARK    2  A    between atoms: C_4  and  C_7
REMARK    3  A    between atoms: N_6  and  C_15
REMARK    4  A    between atoms: C_8  and  N_12
REMARK    5  A    between atoms: C_15  and  O_16
REMARK    6  A    between atoms: O_16  and  P_17
REMARK    7  A    between atoms: P_17  and  O_20
REMARK    8  A    between atoms: C_22  and  C_23
REMARK    9  A    between atoms: C_26  and  C_29
REMARK   10  A    between atoms: C_29  and  O_30
REMARK   11  A    between atoms: O_30  and  C_32
REMARK                            x       y       z     vdW  Elec       q    Type
REMARK                         _______ _______ _______ _____ _____    ______ ____
ROOT
ATOM      1  O   UNL     1      33.787 -23.449 -18.140  0.00  0.00    -0.354 OA
ATOM      2  N   UNL     1      34.618 -22.917 -19.119  0.00  0.00    -0.081 NA
ATOM      3  C   UNL     1      35.628 -22.357 -18.447  0.00  0.00    +0.105 C 
ATOM      4  C   UNL     1      34.316 -23.194 -16.915  0.00  0.00    +0.175 C 
ATOM      5  C   UNL     1      35.489 -22.502 -17.056  0.00  0.00    +0.058 C 
ENDROOT
BRANCH   4   7
ATOM      6  N   UNL     1      31.524 -23.963 -14.618  0.00  0.00    -0.266 N 
ATOM      7  C   UNL     1      33.557 -23.690 -15.791  0.00  0.00    +0.048 C 
ATOM      8  C   UNL     1      32.190 -23.485 -15.678  0.00  0.00    +0.156 C 
ATOM      9  C   UNL     1      34.214 -24.395 -14.787  0.00  0.00    +0.003 C 
ATOM     10  C   UNL     1      32.131 -24.645 -13.638  0.00  0.00    +0.064 C 
ATOM     11  C   UNL     1      33.497 -24.880 -13.697  0.00  0.00    +0.016 C 
BRANCH   8  12
ATOM     12  N   UNL     1      31.486 -22.775 -16.675  0.00  0.00    -0.303 NA
ATOM     13  H   UNL     1      30.605 -23.095 -16.979  0.00  0.00    +0.121 HD
ATOM     14  H   UNL     1      31.876 -21.960 -17.066  0.00  0.00    +0.121 HD
ENDBRANCH   8  12
BRANCH   6  15
ATOM     15  C   UNL     1      30.080 -23.747 -14.501  0.00  0.00    +0.251 C 
BRANCH  15  16
ATOM     16  O   UNL     1      29.435 -24.381 -15.596  0.00  0.00    -0.250 OA
BRANCH  16  17
ATOM     17  P   UNL     1      28.073 -23.721 -16.213  0.00  0.00    +0.504 P 
ATOM     18  O   UNL     1      27.148 -23.312 -15.087  0.00  0.00    -0.225 OA
ATOM     19  O   UNL     1      27.574 -24.609 -17.331  0.00  0.00    -0.116 OA
BRANCH  17  20
ATOM     20  O   UNL     1      28.708 -22.372 -16.881  0.00  0.00    -0.301 OA
ATOM     21  H   UNL     1      29.571 -22.580 -17.272  0.00  0.00    +0.222 HD
ENDBRANCH  17  20
ENDBRANCH  16  17
ENDBRANCH  15  16
ENDBRANCH   6  15
ENDBRANCH   4   7
BRANCH   3  22
ATOM     22  C   UNL     1      36.715 -21.687 -19.180  0.00  0.00    +0.075 C 
BRANCH  22  23
ATOM     23  C   UNL     1      36.252 -20.635 -20.179  0.00  0.00    -0.016 C 
ATOM     24  C   UNL     1      37.165 -19.716 -20.697  0.00  0.00    -0.004 C 
ATOM     25  C   UNL     1      34.915 -20.590 -20.577  0.00  0.00    -0.004 C 
ATOM     26  C   UNL     1      35.405 -18.707 -22.009  0.00  0.00    +0.021 C 
ATOM     27  C   UNL     1      36.741 -18.752 -21.611  0.00  0.00    -0.001 C 
ATOM     28  C   UNL     1      34.492 -19.626 -21.491  0.00  0.00    -0.001 C 
BRANCH  26  29
ATOM     29  C   UNL     1      34.953 -17.679 -22.989  0.00  0.00    +0.234 C 
BRANCH  29  30
ATOM     30  O   UNL     1      35.331 -16.388 -22.527  0.00  0.00    -0.455 OA
BRANCH  30  32
ATOM     31  N   UNL     1      33.720 -14.745 -22.830  0.00  0.00    -0.210 NA
ATOM     32  C   UNL     1      34.339 -15.608 -21.993  0.00  0.00    +0.225 C 
ATOM     33  C   UNL     1      34.028 -15.744 -20.650  0.00  0.00    +0.058 C 
ATOM     34  C   UNL     1      33.017 -14.942 -20.131  0.00  0.00    +0.006 C 
ATOM     35  C   UNL     1      32.742 -13.984 -22.291  0.00  0.00    +0.102 C 
ATOM     36  C   UNL     1      32.356 -14.043 -20.961  0.00  0.00    +0.021 C 
ENDBRANCH  30  32
ENDBRANCH  29  30
ENDBRANCH  26  29
ENDBRANCH  22  23
ENDBRANCH   3  22
TORSDOF 11
ENDMDL
MODEL 4
REMARK VINA RESULT:     -11.5      1.580      2.415
REMARK  Name = 44123754
REMARK  11 active torsions:
REMARK  status: ('A' for Active; 'I' for Inactive)
REMARK    1  A    between atoms: C_3  and  C_22
REMARK    2  A    between atoms: C_4  and  C_7
REMARK    3  A    between atoms: N_6  and  C_15
REMARK    4  A    between atoms: C_8  and  N_12
REMARK    5  A    between atoms: C_15  and  O_16
REMARK    6  A    between atoms: O_16  and  P_17
REMARK    7  A    between atoms: P_17  and  O_20
REMARK    8  A    between atoms: C_22  and  C_23
REMARK    9  A    between atoms: C_26  and  C_29
REMARK   10  A    between atoms: C_29  and  O_30
REMARK   11  A    between atoms: O_30  and  C_32
REMARK                            x       y       z     vdW  Elec       q    Type
REMARK                         _______ _______ _______ _____ _____    ______ ____
ROOT
ATOM      1  O   UNL     1      34.504 -16.453 -22.983  0.00  0.00    -0.354 OA
ATOM      2  N   UNL     1      35.255 -17.621 -23.041  0.00  0.00    -0.081 NA
ATOM      3  C   UNL     1      35.512 -17.931 -21.767  0.00  0.00    +0.105 C 
ATOM      4  C   UNL     1      34.333 -16.094 -21.684  0.00  0.00    +0.175 C 
ATOM      5  C   UNL     1      34.956 -17.002 -20.870  0.00  0.00    +0.058 C 
ENDROOT
BRANCH   4   7
ATOM      6  N   UNL     1      32.979 -12.672 -22.029  0.00  0.00    -0.266 N 
ATOM      7  C   UNL     1      33.567 -14.890 -21.464  0.00  0.00    +0.048 C 
ATOM      8  C   UNL     1      33.711 -13.769 -22.268  0.00  0.00    +0.156 C 
ATOM      9  C   UNL     1      32.655 -14.848 -20.414  0.00  0.00    +0.003 C 
ATOM     10  C   UNL     1      32.095 -12.605 -21.026  0.00  0.00    +0.064 C 
ATOM     11  C   UNL     1      31.908 -13.695 -20.189  0.00  0.00    +0.016 C 
BRANCH   8  12
ATOM     12  N   UNL     1      34.626 -13.769 -23.344  0.00  0.00    -0.303 NA
ATOM     13  H   UNL     1      34.628 -14.515 -23.988  0.00  0.00    +0.121 HD
ATOM     14  H   UNL     1      35.261 -13.025 -23.449  0.00  0.00    +0.121 HD
ENDBRANCH   8  12
BRANCH   6  15
ATOM     15  C   UNL     1      33.132 -11.489 -22.879  0.00  0.00    +0.251 C 
BRANCH  15  16
ATOM     16  O   UNL     1      32.158 -10.527 -22.498  0.00  0.00    -0.250 OA
BRANCH  16  17
ATOM     17  P   UNL     1      32.556  -8.942 -22.504  0.00  0.00    +0.504 P 
ATOM     18  O   UNL     1      31.460  -8.142 -23.174  0.00  0.00    -0.225 OA
ATOM     19  O   UNL     1      33.991  -8.809 -22.962  0.00  0.00    -0.116 OA
BRANCH  17  20
ATOM     20  O   UNL     1      32.506  -8.648 -20.898  0.00  0.00    -0.301 OA
ATOM     21  H   UNL     1      31.989  -9.340 -20.458  0.00  0.00    +0.222 HD
ENDBRANCH  17  20
ENDBRANCH  16  17
ENDBRANCH  15  16
ENDBRANCH   6  15
ENDBRANCH   4   7
BRANCH   3  22
ATOM     22  C   UNL     1      36.301 -19.131 -21.448  0.00  0.00    +0.075 C 
BRANCH  22  23
ATOM     23  C   UNL     1      35.565 -20.170 -20.611  0.00  0.00    -0.016 C 
ATOM     24  C   UNL     1      36.284 -21.065 -19.819  0.00  0.00    -0.004 C 
ATOM     25  C   UNL     1      34.170 -20.224 -20.634  0.00  0.00    -0.004 C 
ATOM     26  C   UNL     1      34.216 -22.070 -19.077  0.00  0.00    +0.021 C 
ATOM     27  C   UNL     1      35.611 -22.016 -19.053  0.00  0.00    -0.001 C 
ATOM     28  C   UNL     1      33.497 -21.175 -19.868  0.00  0.00    -0.001 C 
BRANCH  26  29
ATOM     29  C   UNL     1      33.496 -23.085 -18.255  0.00  0.00    +0.234 C 
BRANCH  29  30
ATOM     30  O   UNL     1      32.241 -22.557 -17.845  0.00  0.00    -0.455 OA
BRANCH  30  32
ATOM     31  N   UNL     1      30.385 -23.027 -16.535  0.00  0.00    -0.210 NA
ATOM     32  C   UNL     1      31.731 -23.024 -16.663  0.00  0.00    +0.225 C 
ATOM     33  C   UNL     1      32.605 -23.463 -15.681  0.00  0.00    +0.058 C 
ATOM     34  C   UNL     1      32.062 -23.934 -14.491  0.00  0.00    +0.006 C 
ATOM     35  C   UNL     1      29.894 -23.493 -15.364  0.00  0.00    +0.102 C 
ATOM     36  C   UNL     1      30.682 -23.954 -14.321  0.00  0.00    +0.021 C 
ENDBRANCH  30  32
ENDBRANCH  29  30
ENDBRANCH  26  29
ENDBRANCH  22  23
ENDBRANCH   3  22
TORSDOF 11
ENDMDL
MODEL 5
REMARK VINA RESULT:     -11.2      4.423     10.929
REMARK  Name = 44123754
REMARK  11 active torsions:
REMARK  status: ('A' for Active; 'I' for Inactive)
REMARK    1  A    between atoms: C_3  and  C_22
REMARK    2  A    between atoms: C_4  and  C_7
REMARK    3  A    between atoms: N_6  and  C_15
REMARK    4  A    between atoms: C_8  and  N_12
REMARK    5  A    between atoms: C_15  and  O_16
REMARK    6  A    between atoms: O_16  and  P_17
REMARK    7  A    between atoms: P_17  and  O_20
REMARK    8  A    between atoms: C_22  and  C_23
REMARK    9  A    between atoms: C_26  and  C_29
REMARK   10  A    between atoms: C_29  and  O_30
REMARK   11  A    between atoms: O_30  and  C_32
REMARK                            x       y       z     vdW  Elec       q    Type
REMARK                         _______ _______ _______ _____ _____    ______ ____
ROOT
ATOM      1  O   UNL     1      36.640 -20.640 -19.290  0.00  0.00    -0.354 OA
ATOM      2  N   UNL     1      36.822 -19.874 -20.436  0.00  0.00    -0.081 NA
ATOM      3  C   UNL     1      35.729 -20.090 -21.173  0.00  0.00    +0.105 C 
ATOM      4  C   UNL     1      35.451 -21.290 -19.370  0.00  0.00    +0.175 C 
ATOM      5  C   UNL     1      34.831 -20.974 -20.550  0.00  0.00    +0.058 C 
ENDROOT
BRANCH   4   7
ATOM      6  N   UNL     1      35.648 -23.102 -16.154  0.00  0.00    -0.266 N 
ATOM      7  C   UNL     1      35.121 -22.131 -18.243  0.00  0.00    +0.048 C 
ATOM      8  C   UNL     1      35.995 -22.313 -17.180  0.00  0.00    +0.156 C 
ATOM      9  C   UNL     1      33.892 -22.781 -18.218  0.00  0.00    +0.003 C 
ATOM     10  C   UNL     1      34.471 -23.739 -16.105  0.00  0.00    +0.064 C 
ATOM     11  C   UNL     1      33.559 -23.596 -17.139  0.00  0.00    +0.016 C 
BRANCH   8  12
ATOM     12  N   UNL     1      37.252 -21.671 -17.166  0.00  0.00    -0.303 NA
ATOM     13  H   UNL     1      37.855 -21.753 -17.941  0.00  0.00    +0.121 HD
ATOM     14  H   UNL     1      37.525 -21.142 -16.383  0.00  0.00    +0.121 HD
ENDBRANCH   8  12
BRANCH   6  15
ATOM     15  C   UNL     1      36.571 -23.292 -15.032  0.00  0.00    +0.251 C 
BRANCH  15  16
ATOM     16  O   UNL     1      36.814 -24.683 -14.875  0.00  0.00    -0.250 OA
BRANCH  16  17
ATOM     17  P   UNL     1      38.273 -25.183 -14.336  0.00  0.00    +0.504 P 
ATOM     18  O   UNL     1      38.454 -26.655 -14.638  0.00  0.00    -0.225 OA
ATOM     19  O   UNL     1      38.470 -24.660 -12.930  0.00  0.00    -0.116 OA
BRANCH  17  20
ATOM     20  O   UNL     1      39.238 -24.325 -15.336  0.00  0.00    -0.301 OA
ATOM     21  H   UNL     1      39.397 -24.833 -16.147  0.00  0.00    +0.222 HD
ENDBRANCH  17  20
ENDBRANCH  16  17
ENDBRANCH  15  16
ENDBRANCH   6  15
ENDBRANCH   4   7
BRANCH   3  22
ATOM     22  C   UNL     1      35.581 -19.426 -22.478  0.00  0.00    +0.075 C 
BRANCH  22  23
ATOM     23  C   UNL     1      35.186 -17.957 -22.401  0.00  0.00    -0.016 C 
ATOM     24  C   UNL     1      34.916 -17.371 -21.164  0.00  0.00    -0.004 C 
ATOM     25  C   UNL     1      35.094 -17.196 -23.567  0.00  0.00    -0.004 C 
ATOM     26  C   UNL     1      34.462 -15.266 -22.260  0.00  0.00    +0.021 C 
ATOM     27  C   UNL     1      34.554 -16.026 -21.093  0.00  0.00    -0.001 C 
ATOM     28  C   UNL     1      34.732 -15.852 -23.496  0.00  0.00    -0.001 C 
BRANCH  26  29
ATOM     29  C   UNL     1      34.078 -13.827 -22.183  0.00  0.00    +0.234 C 
BRANCH  29  30
ATOM     30  O   UNL     1      32.667 -13.722 -22.039  0.00  0.00    -0.455 OA
BRANCH  30  32
ATOM     31  N   UNL     1      32.062 -11.488 -21.877  0.00  0.00    -0.210 NA
ATOM     32  C   UNL     1      32.200 -12.688 -21.270  0.00  0.00    +0.225 C 
ATOM     33  C   UNL     1      31.899 -12.924 -19.939  0.00  0.00    +0.058 C 
ATOM     34  C   UNL     1      31.425 -11.859 -19.180  0.00  0.00    +0.006 C 
ATOM     35  C   UNL     1      31.599 -10.477 -21.108  0.00  0.00    +0.102 C 
ATOM     36  C   UNL     1      31.269 -10.609 -19.769  0.00  0.00    +0.021 C 
ENDBRANCH  30  32
ENDBRANCH  29  30
ENDBRANCH  26  29
ENDBRANCH  22  23
ENDBRANCH   3  22
TORSDOF 11
ENDMDL
MODEL 6
REMARK VINA RESULT:     -11.2      3.384     10.193
REMARK  Name = 44123754
REMARK  11 active torsions:
REMARK  status: ('A' for Active; 'I' for Inactive)
REMARK    1  A    between atoms: C_3  and  C_22
REMARK    2  A    between atoms: C_4  and  C_7
REMARK    3  A    between atoms: N_6  and  C_15
REMARK    4  A    between atoms: C_8  and  N_12
REMARK    5  A    between atoms: C_15  and  O_16
REMARK    6  A    between atoms: O_16  and  P_17
REMARK    7  A    between atoms: P_17  and  O_20
REMARK    8  A    between atoms: C_22  and  C_23
REMARK    9  A    between atoms: C_26  and  C_29
REMARK   10  A    between atoms: C_29  and  O_30
REMARK   11  A    between atoms: O_30  and  C_32
REMARK                            x       y       z     vdW  Elec       q    Type
REMARK                         _______ _______ _______ _____ _____    ______ ____
ROOT
ATOM      1  O   UNL     1      33.768 -20.947 -19.857  0.00  0.00    -0.354 OA
ATOM      2  N   UNL     1      33.840 -20.195 -21.024  0.00  0.00    -0.081 NA
ATOM      3  C   UNL     1      35.145 -20.100 -21.294  0.00  0.00    +0.105 C 
ATOM      4  C   UNL     1      35.023 -21.280 -19.460  0.00  0.00    +0.175 C 
ATOM      5  C   UNL     1      35.937 -20.765 -20.341  0.00  0.00    +0.058 C 
ENDROOT
BRANCH   4   7
ATOM      6  N   UNL     1      34.136 -23.464 -16.613  0.00  0.00    -0.266 N 
ATOM      7  C   UNL     1      35.108 -22.068 -18.253  0.00  0.00    +0.048 C 
ATOM      8  C   UNL     1      34.012 -22.743 -17.736  0.00  0.00    +0.156 C 
ATOM      9  C   UNL     1      36.325 -22.155 -17.584  0.00  0.00    +0.003 C 
ATOM     10  C   UNL     1      35.295 -23.564 -15.949  0.00  0.00    +0.064 C 
ATOM     11  C   UNL     1      36.424 -22.910 -16.419  0.00  0.00    +0.016 C 
BRANCH   8  12
ATOM     12  N   UNL     1      32.759 -22.681 -18.384  0.00  0.00    -0.303 NA
ATOM     13  H   UNL     1      32.160 -21.915 -18.225  0.00  0.00    +0.121 HD
ATOM     14  H   UNL     1      32.485 -23.402 -18.994  0.00  0.00    +0.121 HD
ENDBRANCH   8  12
BRANCH   6  15
ATOM     15  C   UNL     1      32.977 -24.177 -16.068  0.00  0.00    +0.251 C 
BRANCH  15  16
ATOM     16  O   UNL     1      32.100 -23.230 -15.474  0.00  0.00    -0.250 OA
BRANCH  16  17
ATOM     17  P   UNL     1      30.494 -23.532 -15.454  0.00  0.00    +0.504 P 
ATOM     18  O   UNL     1      29.851 -22.803 -14.294  0.00  0.00    -0.225 OA
ATOM     19  O   UNL     1      30.284 -25.019 -15.637  0.00  0.00    -0.116 OA
BRANCH  17  20
ATOM     20  O   UNL     1      30.064 -22.784 -16.841  0.00  0.00    -0.301 OA
ATOM     21  H   UNL     1      29.656 -21.929 -16.634  0.00  0.00    +0.222 HD
ENDBRANCH  17  20
ENDBRANCH  16  17
ENDBRANCH  15  16
ENDBRANCH   6  15
ENDBRANCH   4   7
BRANCH   3  22
ATOM     22  C   UNL     1      35.597 -19.357 -22.481  0.00  0.00    +0.075 C 
BRANCH  22  23
ATOM     23  C   UNL     1      35.181 -17.892 -22.510  0.00  0.00    -0.016 C 
ATOM     24  C   UNL     1      34.995 -17.244 -23.731  0.00  0.00    -0.004 C 
ATOM     25  C   UNL     1      34.986 -17.199 -21.315  0.00  0.00    -0.004 C 
ATOM     26  C   UNL     1      34.419 -15.209 -22.563  0.00  0.00    +0.021 C 
ATOM     27  C   UNL     1      34.614 -15.903 -23.758  0.00  0.00    -0.001 C 
ATOM     28  C   UNL     1      34.606 -15.857 -21.342  0.00  0.00    -0.001 C 
BRANCH  26  29
ATOM     29  C   UNL     1      34.009 -13.776 -22.592  0.00  0.00    +0.234 C 
BRANCH  29  30
ATOM     30  O   UNL     1      32.611 -13.679 -22.349  0.00  0.00    -0.455 OA
BRANCH  30  32
ATOM     31  N   UNL     1      32.070 -11.446 -22.025  0.00  0.00    -0.210 NA
ATOM     32  C   UNL     1      32.199 -12.686 -21.500  0.00  0.00    +0.225 C 
ATOM     33  C   UNL     1      31.940 -12.999 -20.176  0.00  0.00    +0.058 C 
ATOM     34  C   UNL     1      31.522 -11.973 -19.334  0.00  0.00    +0.006 C 
ATOM     35  C   UNL     1      31.660 -10.475 -21.177  0.00  0.00    +0.102 C 
ATOM     36  C   UNL     1      31.376 -10.685 -19.837  0.00  0.00    +0.021 C 
ENDBRANCH  30  32
ENDBRANCH  29  30
ENDBRANCH  26  29
ENDBRANCH  22  23
ENDBRANCH   3  22
TORSDOF 11
ENDMDL
MODEL 7
REMARK VINA RESULT:     -11.0      4.675     11.304
REMARK  Name = 44123754
REMARK  11 active torsions:
REMARK  status: ('A' for Active; 'I' for Inactive)
REMARK    1  A    between atoms: C_3  and  C_22
REMARK    2  A    between atoms: C_4  and  C_7
REMARK    3  A    between atoms: N_6  and  C_15
REMARK    4  A    between atoms: C_8  and  N_12
REMARK    5  A    between atoms: C_15  and  O_16
REMARK    6  A    between atoms: O_16  and  P_17
REMARK    7  A    between atoms: P_17  and  O_20
REMARK    8  A    between atoms: C_22  and  C_23
REMARK    9  A    between atoms: C_26  and  C_29
REMARK   10  A    between atoms: C_29  and  O_30
REMARK   11  A    between atoms: O_30  and  C_32
REMARK                            x       y       z     vdW  Elec       q    Type
REMARK                         _______ _______ _______ _____ _____    ______ ____
ROOT
ATOM      1  O   UNL     1      35.819 -22.409 -16.385  0.00  0.00    -0.354 OA
ATOM      2  N   UNL     1      36.466 -22.039 -17.559  0.00  0.00    -0.081 NA
ATOM      3  C   UNL     1      35.642 -22.415 -18.540  0.00  0.00    +0.105 C 
ATOM      4  C   UNL     1      34.633 -22.993 -16.692  0.00  0.00    +0.175 C 
ATOM      5  C   UNL     1      34.471 -23.022 -18.052  0.00  0.00    +0.058 C 
ENDROOT
BRANCH   4   7
ATOM      6  N   UNL     1      33.644 -24.434 -13.434  0.00  0.00    -0.266 N 
ATOM      7  C   UNL     1      33.842 -23.433 -15.565  0.00  0.00    +0.048 C 
ATOM      8  C   UNL     1      34.415 -24.042 -14.458  0.00  0.00    +0.156 C 
ATOM      9  C   UNL     1      32.465 -23.241 -15.587  0.00  0.00    +0.003 C 
ATOM     10  C   UNL     1      32.316 -24.263 -13.430  0.00  0.00    +0.064 C 
ATOM     11  C   UNL     1      31.689 -23.660 -14.510  0.00  0.00    +0.016 C 
BRANCH   8  12
ATOM     12  N   UNL     1      35.809 -24.255 -14.397  0.00  0.00    -0.303 NA
ATOM     13  H   UNL     1      36.397 -23.561 -14.019  0.00  0.00    +0.121 HD
ATOM     14  H   UNL     1      36.193 -25.098 -14.731  0.00  0.00    +0.121 HD
ENDBRANCH   8  12
BRANCH   6  15
ATOM     15  C   UNL     1      34.250 -25.078 -12.266  0.00  0.00    +0.251 C 
BRANCH  15  16
ATOM     16  O   UNL     1      34.889 -24.081 -11.480  0.00  0.00    -0.250 OA
BRANCH  16  17
ATOM     17  P   UNL     1      36.058 -24.523 -10.426  0.00  0.00    +0.504 P 
ATOM     18  O   UNL     1      35.443 -24.827  -9.077  0.00  0.00    -0.225 OA
ATOM     19  O   UNL     1      37.204 -23.542 -10.543  0.00  0.00    -0.116 OA
BRANCH  17  20
ATOM     20  O   UNL     1      36.522 -25.929 -11.115  0.00  0.00    -0.301 OA
ATOM     21  H   UNL     1      35.779 -26.552 -11.111  0.00  0.00    +0.222 HD
ENDBRANCH  17  20
ENDBRANCH  16  17
ENDBRANCH  15  16
ENDBRANCH   6  15
ENDBRANCH   4   7
BRANCH   3  22
ATOM     22  C   UNL     1      36.013 -22.175 -19.944  0.00  0.00    +0.075 C 
BRANCH  22  23
ATOM     23  C   UNL     1      35.791 -20.746 -20.423  0.00  0.00    -0.016 C 
ATOM     24  C   UNL     1      34.495 -20.277 -20.640  0.00  0.00    -0.004 C 
ATOM     25  C   UNL     1      36.883 -19.906 -20.645  0.00  0.00    -0.004 C 
ATOM     26  C   UNL     1      35.383 -18.130 -21.300  0.00  0.00    +0.021 C 
ATOM     27  C   UNL     1      34.291 -18.969 -21.079  0.00  0.00    -0.001 C 
ATOM     28  C   UNL     1      36.678 -18.598 -21.084  0.00  0.00    -0.001 C 
BRANCH  26  29
ATOM     29  C   UNL     1      35.164 -16.730 -21.767  0.00  0.00    +0.234 C 
BRANCH  29  30
ATOM     30  O   UNL     1      34.554 -15.975 -20.727  0.00  0.00    -0.455 OA
BRANCH  30  32
ATOM     31  N   UNL     1      34.142 -14.279 -22.256  0.00  0.00    -0.210 NA
ATOM     32  C   UNL     1      33.792 -14.902 -21.108  0.00  0.00    +0.225 C 
ATOM     33  C   UNL     1      32.723 -14.522 -20.314  0.00  0.00    +0.058 C 
ATOM     34  C   UNL     1      31.963 -13.431 -20.723  0.00  0.00    +0.006 C 
ATOM     35  C   UNL     1      33.381 -13.224 -22.623  0.00  0.00    +0.102 C 
ATOM     36  C   UNL     1      32.292 -12.765 -21.899  0.00  0.00    +0.021 C 
ENDBRANCH  30  32
ENDBRANCH  29  30
ENDBRANCH  26  29
ENDBRANCH  22  23
ENDBRANCH   3  22
TORSDOF 11
ENDMDL
MODEL 8
REMARK VINA RESULT:     -10.7      3.042      3.813
REMARK  Name = 44123754
REMARK  11 active torsions:
REMARK  status: ('A' for Active; 'I' for Inactive)
REMARK    1  A    between atoms: C_3  and  C_22
REMARK    2  A    between atoms: C_4  and  C_7
REMARK    3  A    between atoms: N_6  and  C_15
REMARK    4  A    between atoms: C_8  and  N_12
REMARK    5  A    between atoms: C_15  and  O_16
REMARK    6  A    between atoms: O_16  and  P_17
REMARK    7  A    between atoms: P_17  and  O_20
REMARK    8  A    between atoms: C_22  and  C_23
REMARK    9  A    between atoms: C_26  and  C_29
REMARK   10  A    between atoms: C_29  and  O_30
REMARK   11  A    between atoms: O_30  and  C_32
REMARK                            x       y       z     vdW  Elec       q    Type
REMARK                         _______ _______ _______ _____ _____    ______ ____
ROOT
ATOM      1  O   UNL     1      34.983 -18.068 -22.779  0.00  0.00    -0.354 OA
ATOM      2  N   UNL     1      35.556 -19.303 -22.496  0.00  0.00    -0.081 NA
ATOM      3  C   UNL     1      35.890 -19.241 -21.204  0.00  0.00    +0.105 C 
ATOM      4  C   UNL     1      34.989 -17.304 -21.656  0.00  0.00    +0.175 C 
ATOM      5  C   UNL     1      35.556 -18.004 -20.625  0.00  0.00    +0.058 C 
ENDROOT
BRANCH   4   7
ATOM      6  N   UNL     1      34.044 -14.008 -23.036  0.00  0.00    -0.266 N 
ATOM      7  C   UNL     1      34.421 -15.983 -21.796  0.00  0.00    +0.048 C 
ATOM      8  C   UNL     1      34.589 -15.229 -22.948  0.00  0.00    +0.156 C 
ATOM      9  C   UNL     1      33.682 -15.448 -20.746  0.00  0.00    +0.003 C 
ATOM     10  C   UNL     1      33.328 -13.468 -22.041  0.00  0.00    +0.064 C 
ATOM     11  C   UNL     1      33.128 -14.176 -20.865  0.00  0.00    +0.016 C 
BRANCH   8  12
ATOM     12  N   UNL     1      35.332 -15.735 -24.037  0.00  0.00    -0.303 NA
ATOM     13  H   UNL     1      36.282 -15.498 -24.137  0.00  0.00    +0.121 HD
ATOM     14  H   UNL     1      34.899 -16.325 -24.695  0.00  0.00    +0.121 HD
ENDBRANCH   8  12
BRANCH   6  15
ATOM     15  C   UNL     1      34.221 -13.212 -24.253  0.00  0.00    +0.251 C 
BRANCH  15  16
ATOM     16  O   UNL     1      33.067 -13.364 -25.068  0.00  0.00    -0.250 OA
BRANCH  16  17
ATOM     17  P   UNL     1      33.189 -14.170 -26.484  0.00  0.00    +0.504 P 
ATOM     18  O   UNL     1      33.321 -15.654 -26.218  0.00  0.00    -0.225 OA
ATOM     19  O   UNL     1      34.195 -13.454 -27.358  0.00  0.00    -0.116 OA
BRANCH  17  20
ATOM     20  O   UNL     1      31.698 -13.881 -27.086  0.00  0.00    -0.301 OA
ATOM     21  H   UNL     1      31.488 -14.543 -27.762  0.00  0.00    +0.222 HD
ENDBRANCH  17  20
ENDBRANCH  16  17
ENDBRANCH  15  16
ENDBRANCH   6  15
ENDBRANCH   4   7
BRANCH   3  22
ATOM     22  C   UNL     1      36.532 -20.396 -20.556  0.00  0.00    +0.075 C 
BRANCH  22  23
ATOM     23  C   UNL     1      35.608 -21.221 -19.669  0.00  0.00    -0.016 C 
ATOM     24  C   UNL     1      34.240 -21.265 -19.938  0.00  0.00    -0.004 C 
ATOM     25  C   UNL     1      36.130 -21.933 -18.589  0.00  0.00    -0.004 C 
ATOM     26  C   UNL     1      33.916 -22.732 -18.046  0.00  0.00    +0.021 C 
ATOM     27  C   UNL     1      33.394 -22.020 -19.127  0.00  0.00    -0.001 C 
ATOM     28  C   UNL     1      35.284 -22.688 -17.777  0.00  0.00    -0.001 C 
BRANCH  26  29
ATOM     29  C   UNL     1      33.011 -23.541 -17.181  0.00  0.00    +0.234 C 
BRANCH  29  30
ATOM     30  O   UNL     1      31.869 -22.766 -16.835  0.00  0.00    -0.455 OA
BRANCH  30  32
ATOM     31  N   UNL     1      29.601 -23.183 -16.581  0.00  0.00    -0.210 NA
ATOM     32  C   UNL     1      30.866 -23.412 -16.162  0.00  0.00    +0.225 C 
ATOM     33  C   UNL     1      31.194 -24.250 -15.109  0.00  0.00    +0.058 C 
ATOM     34  C   UNL     1      30.158 -24.895 -14.442  0.00  0.00    +0.006 C 
ATOM     35  C   UNL     1      28.620 -23.828 -15.910  0.00  0.00    +0.102 C 
ATOM     36  C   UNL     1      28.844 -24.686 -14.845  0.00  0.00    +0.021 C 
ENDBRANCH  30  32
ENDBRANCH  29  30
ENDBRANCH  26  29
ENDBRANCH  22  23
ENDBRANCH   3  22
TORSDOF 11
ENDMDL
MODEL 9
REMARK VINA RESULT:     -10.6      2.805      3.681
REMARK  Name = 44123754
REMARK  11 active torsions:
REMARK  status: ('A' for Active; 'I' for Inactive)
REMARK    1  A    between atoms: C_3  and  C_22
REMARK    2  A    between atoms: C_4  and  C_7
REMARK    3  A    between atoms: N_6  and  C_15
REMARK    4  A    between atoms: C_8  and  N_12
REMARK    5  A    between atoms: C_15  and  O_16
REMARK    6  A    between atoms: O_16  and  P_17
REMARK    7  A    between atoms: P_17  and  O_20
REMARK    8  A    between atoms: C_22  and  C_23
REMARK    9  A    between atoms: C_26  and  C_29
REMARK   10  A    between atoms: C_29  and  O_30
REMARK   11  A    between atoms: O_30  and  C_32
REMARK                            x       y       z     vdW  Elec       q    Type
REMARK                         _______ _______ _______ _____ _____    ______ ____
ROOT
ATOM      1  O   UNL     1      33.448 -14.971 -23.789  0.00  0.00    -0.354 OA
ATOM      2  N   UNL     1      34.193 -16.044 -24.264  0.00  0.00    -0.081 NA
ATOM      3  C   UNL     1      34.873 -16.489 -23.204  0.00  0.00    +0.105 C 
ATOM      4  C   UNL     1      33.700 -14.801 -22.466  0.00  0.00    +0.175 C 
ATOM      5  C   UNL     1      34.601 -15.742 -22.044  0.00  0.00    +0.058 C 
ENDROOT
BRANCH   4   7
ATOM      6  N   UNL     1      32.281 -11.463 -21.754  0.00  0.00    -0.266 N 
ATOM      7  C   UNL     1      32.992 -13.715 -21.829  0.00  0.00    +0.048 C 
ATOM      8  C   UNL     1      32.950 -12.442 -22.378  0.00  0.00    +0.156 C 
ATOM      9  C   UNL     1      32.330 -13.948 -20.628  0.00  0.00    +0.003 C 
ATOM     10  C   UNL     1      31.636 -11.660 -20.597  0.00  0.00    +0.064 C 
ATOM     11  C   UNL     1      31.644 -12.912 -20.001  0.00  0.00    +0.016 C 
BRANCH   8  12
ATOM     12  N   UNL     1      33.608 -12.163 -23.596  0.00  0.00    -0.303 NA
ATOM     13  H   UNL     1      33.097 -11.820 -24.365  0.00  0.00    +0.121 HD
ATOM     14  H   UNL     1      34.577 -12.313 -23.676  0.00  0.00    +0.121 HD
ENDBRANCH   8  12
BRANCH   6  15
ATOM     15  C   UNL     1      32.237 -10.119 -22.336  0.00  0.00    +0.251 C 
BRANCH  15  16
ATOM     16  O   UNL     1      31.668  -9.231 -21.383  0.00  0.00    -0.250 OA
BRANCH  16  17
ATOM     17  P   UNL     1      32.489  -7.883 -20.958  0.00  0.00    +0.504 P 
ATOM     18  O   UNL     1      31.521  -6.741 -20.740  0.00  0.00    -0.225 OA
ATOM     19  O   UNL     1      33.666  -7.723 -21.895  0.00  0.00    -0.116 OA
BRANCH  17  20
ATOM     20  O   UNL     1      33.059  -8.365 -19.505  0.00  0.00    -0.301 OA
ATOM     21  H   UNL     1      33.983  -8.649 -19.598  0.00  0.00    +0.222 HD
ENDBRANCH  17  20
ENDBRANCH  16  17
ENDBRANCH  15  16
ENDBRANCH   6  15
ENDBRANCH   4   7
BRANCH   3  22
ATOM     22  C   UNL     1      35.781 -17.639 -23.343  0.00  0.00    +0.075 C 
BRANCH  22  23
ATOM     23  C   UNL     1      35.624 -18.705 -22.266  0.00  0.00    -0.016 C 
ATOM     24  C   UNL     1      34.410 -19.376 -22.121  0.00  0.00    -0.004 C 
ATOM     25  C   UNL     1      36.695 -19.010 -21.425  0.00  0.00    -0.004 C 
ATOM     26  C   UNL     1      35.337 -20.657 -20.294  0.00  0.00    +0.021 C 
ATOM     27  C   UNL     1      34.266 -20.351 -21.135  0.00  0.00    -0.001 C 
ATOM     28  C   UNL     1      36.551 -19.986 -20.439  0.00  0.00    -0.001 C 
BRANCH  26  29
ATOM     29  C   UNL     1      35.183 -21.702 -19.242  0.00  0.00    +0.234 C 
BRANCH  29  30
ATOM     30  O   UNL     1      36.408 -21.841 -18.532  0.00  0.00    -0.455 OA
BRANCH  30  32
ATOM     31  N   UNL     1      37.447 -22.283 -16.505  0.00  0.00    -0.210 NA
ATOM     32  C   UNL     1      36.332 -22.359 -17.265  0.00  0.00    +0.225 C 
ATOM     33  C   UNL     1      35.139 -22.920 -16.839  0.00  0.00    +0.058 C 
ATOM     34  C   UNL     1      35.087 -23.437 -15.550  0.00  0.00    +0.006 C 
ATOM     35  C   UNL     1      37.359 -22.795 -15.256  0.00  0.00    +0.102 C 
ATOM     36  C   UNL     1      36.213 -23.377 -14.736  0.00  0.00    +0.021 C 
ENDBRANCH  30  32
ENDBRANCH  29  30
ENDBRANCH  26  29
ENDBRANCH  22  23
ENDBRANCH   3  22
TORSDOF 11
ENDMDL
