MODEL 1
REMARK VINA RESULT:     -11.6      0.000      0.000
REMARK  Name = 24880024
REMARK  5 active torsions:
REMARK  status: ('A' for Active; 'I' for Inactive)
REMARK    1  A    between atoms: N_5  and  C_12
REMARK    2  A    between atoms: C_6  and  C_22
REMARK    3  A    between atoms: C_13  and  C_21
REMARK    4  A    between atoms: C_22  and  C_23
REMARK    5  A    between atoms: C_23  and  N_25
REMARK                            x       y       z     vdW  Elec       q    Type
REMARK                         _______ _______ _______ _____ _____    ______ ____
ROOT
ATOM      1  S   UNL     1      36.545 -21.082 -19.559  0.00  0.00    -0.056 S 
ATOM      2  O   UNL     1      35.104 -23.642 -15.930  0.00  0.00    -0.252 OA
ATOM      3  N   UNL     1      34.460 -22.107 -18.425  0.00  0.00    -0.223 NA
ATOM      4  N   UNL     1      36.583 -22.505 -17.358  0.00  0.00    -0.248 N 
ATOM      5  N   UNL     1      37.398 -23.618 -15.475  0.00  0.00    -0.268 N 
ATOM      6  C   UNL     1      35.020 -20.820 -20.297  0.00  0.00    +0.031 C 
ATOM      7  C   UNL     1      34.035 -21.436 -19.554  0.00  0.00    +0.103 C 
ATOM      8  C   UNL     1      35.766 -21.988 -18.327  0.00  0.00    +0.166 C 
ATOM      9  C   UNL     1      36.247 -23.298 -16.213  0.00  0.00    +0.310 C 
ATOM     10  H   UNL     1      37.541 -22.303 -17.463  0.00  0.00    +0.158 HD
ATOM     11  H   UNL     1      38.248 -23.270 -15.828  0.00  0.00    +0.156 HD
ENDROOT
BRANCH   5  12
ATOM     12  C   UNL     1      37.486 -24.382 -14.287  0.00  0.00    +0.052 C 
ATOM     13  C   UNL     1      36.750 -24.833 -12.030  0.00  0.00    +0.073 C 
ATOM     14  C   UNL     1      36.664 -24.080 -13.201  0.00  0.00    +0.019 C 
ATOM     15  C   UNL     1      38.393 -25.437 -14.202  0.00  0.00    +0.015 C 
ATOM     16  C   UNL     1      37.658 -25.888 -11.945  0.00  0.00    +0.004 C 
ATOM     17  C   UNL     1      38.480 -26.191 -13.031  0.00  0.00    +0.001 C 
BRANCH  13  21
ATOM     18  F   UNL     1      35.326 -25.610 -10.272  0.00  0.00    -0.166 F 
ATOM     19  F   UNL     1      36.517 -23.845  -9.864  0.00  0.00    -0.166 F 
ATOM     20  F   UNL     1      34.816 -23.718 -11.213  0.00  0.00    -0.166 F 
ATOM     21  C   UNL     1      35.872 -24.510 -10.868  0.00  0.00    +0.419 C 
ENDBRANCH  13  21
ENDBRANCH   5  12
BRANCH   6  22
ATOM     22  C   UNL     1      34.911 -20.014 -21.569  0.00  0.00    +0.056 C 
BRANCH  22  23
ATOM     23  C   UNL     1      35.968 -18.916 -21.676  0.00  0.00    +0.093 C 
BRANCH  23  25
ATOM     24  S   UNL     1      34.085 -14.726 -21.022  0.00  0.00    -0.101 S 
ATOM     25  N   UNL     1      35.376 -17.619 -21.541  0.00  0.00    -0.320 N 
ATOM     26  N   UNL     1      34.959 -17.410 -23.875  0.00  0.00    -0.233 NA
ATOM     27  N   UNL     1      33.908 -15.453 -24.833  0.00  0.00    -0.247 NA
ATOM     28  C   UNL     1      34.882 -16.886 -22.636  0.00  0.00    +0.118 C 
ATOM     29  C   UNL     1      34.314 -15.629 -22.463  0.00  0.00    +0.145 C 
ATOM     30  C   UNL     1      33.838 -14.938 -23.577  0.00  0.00    +0.073 C 
ATOM     31  C   UNL     1      33.288 -13.670 -23.222  0.00  0.00    +0.022 C 
ATOM     32  C   UNL     1      33.360 -13.431 -21.868  0.00  0.00    +0.033 C 
ATOM     33  C   UNL     1      34.473 -16.670 -24.888  0.00  0.00    +0.251 C 
ATOM     34  H   UNL     1      35.313 -17.223 -20.643  0.00  0.00    +0.148 HD
ENDBRANCH  23  25
ENDBRANCH  22  23
ENDBRANCH   6  22
TORSDOF 5
ENDMDL
MODEL 2
REMARK VINA RESULT:     -11.5      1.186      1.573
REMARK  Name = 24880024
REMARK  5 active torsions:
REMARK  status: ('A' for Active; 'I' for Inactive)
REMARK    1  A    between atoms: N_5  and  C_12
REMARK    2  A    between atoms: C_6  and  C_22
REMARK    3  A    between atoms: C_13  and  C_21
REMARK    4  A    between atoms: C_22  and  C_23
REMARK    5  A    between atoms: C_23  and  N_25
REMARK                            x       y       z     vdW  Elec       q    Type
REMARK                         _______ _______ _______ _____ _____    ______ ____
ROOT
ATOM      1  S   UNL     1      36.525 -21.123 -19.543  0.00  0.00    -0.056 S 
ATOM      2  O   UNL     1      35.144 -23.661 -15.875  0.00  0.00    -0.252 OA
ATOM      3  N   UNL     1      34.462 -22.164 -18.383  0.00  0.00    -0.223 NA
ATOM      4  N   UNL     1      36.598 -22.519 -17.326  0.00  0.00    -0.248 N 
ATOM      5  N   UNL     1      37.441 -23.599 -15.436  0.00  0.00    -0.268 N 
ATOM      6  C   UNL     1      34.991 -20.890 -20.274  0.00  0.00    +0.031 C 
ATOM      7  C   UNL     1      34.019 -21.512 -19.517  0.00  0.00    +0.103 C 
ATOM      8  C   UNL     1      35.766 -22.025 -18.296  0.00  0.00    +0.166 C 
ATOM      9  C   UNL     1      36.281 -23.304 -16.170  0.00  0.00    +0.310 C 
ATOM     10  H   UNL     1      37.552 -22.305 -17.440  0.00  0.00    +0.158 HD
ATOM     11  H   UNL     1      38.284 -23.243 -15.799  0.00  0.00    +0.156 HD
ENDROOT
BRANCH   5  12
ATOM     12  C   UNL     1      37.548 -24.348 -14.240  0.00  0.00    +0.052 C 
ATOM     13  C   UNL     1      36.817 -24.799 -11.982  0.00  0.00    +0.073 C 
ATOM     14  C   UNL     1      36.712 -24.061 -13.161  0.00  0.00    +0.019 C 
ATOM     15  C   UNL     1      38.488 -25.373 -14.140  0.00  0.00    +0.015 C 
ATOM     16  C   UNL     1      37.757 -25.824 -11.883  0.00  0.00    +0.004 C 
ATOM     17  C   UNL     1      38.593 -26.112 -12.962  0.00  0.00    +0.001 C 
BRANCH  13  21
ATOM     18  F   UNL     1      35.405 -25.603 -10.226  0.00  0.00    -0.166 F 
ATOM     19  F   UNL     1      36.545 -23.803  -9.824  0.00  0.00    -0.166 F 
ATOM     20  F   UNL     1      34.848 -23.732 -11.182  0.00  0.00    -0.166 F 
ATOM     21  C   UNL     1      35.924 -24.493 -10.827  0.00  0.00    +0.419 C 
ENDBRANCH  13  21
ENDBRANCH   5  12
BRANCH   6  22
ATOM     22  C   UNL     1      34.862 -20.101 -21.554  0.00  0.00    +0.056 C 
BRANCH  22  23
ATOM     23  C   UNL     1      35.567 -18.747 -21.497  0.00  0.00    +0.093 C 
BRANCH  23  25
ATOM     24  S   UNL     1      34.155 -16.146 -25.070  0.00  0.00    -0.101 S 
ATOM     25  N   UNL     1      35.122 -17.892 -22.556  0.00  0.00    -0.320 N 
ATOM     26  N   UNL     1      34.758 -16.042 -21.103  0.00  0.00    -0.233 NA
ATOM     27  N   UNL     1      33.941 -13.910 -21.902  0.00  0.00    -0.247 NA
ATOM     28  C   UNL     1      34.725 -16.558 -22.348  0.00  0.00    +0.118 C 
ATOM     29  C   UNL     1      34.298 -15.761 -23.404  0.00  0.00    +0.145 C 
ATOM     30  C   UNL     1      33.913 -14.445 -23.151  0.00  0.00    +0.073 C 
ATOM     31  C   UNL     1      33.505 -13.772 -24.342  0.00  0.00    +0.022 C 
ATOM     32  C   UNL     1      33.588 -14.580 -25.452  0.00  0.00    +0.033 C 
ATOM     33  C   UNL     1      34.368 -14.762 -20.957  0.00  0.00    +0.251 C 
ATOM     34  H   UNL     1      35.091 -18.255 -23.470  0.00  0.00    +0.148 HD
ENDBRANCH  23  25
ENDBRANCH  22  23
ENDBRANCH   6  22
TORSDOF 5
ENDMDL
MODEL 3
REMARK VINA RESULT:     -11.1      5.318     11.762
REMARK  Name = 24880024
REMARK  5 active torsions:
REMARK  status: ('A' for Active; 'I' for Inactive)
REMARK    1  A    between atoms: N_5  and  C_12
REMARK    2  A    between atoms: C_6  and  C_22
REMARK    3  A    between atoms: C_13  and  C_21
REMARK    4  A    between atoms: C_22  and  C_23
REMARK    5  A    between atoms: C_23  and  N_25
REMARK                            x       y       z     vdW  Elec       q    Type
REMARK                         _______ _______ _______ _____ _____    ______ ____
ROOT
ATOM      1  S   UNL     1      33.672 -23.673 -16.566  0.00  0.00    -0.056 S 
ATOM      2  O   UNL     1      32.346 -20.595 -19.817  0.00  0.00    -0.252 OA
ATOM      3  N   UNL     1      31.636 -22.405 -17.533  0.00  0.00    -0.223 NA
ATOM      4  N   UNL     1      33.772 -21.981 -18.565  0.00  0.00    -0.248 N 
ATOM      5  N   UNL     1      34.633 -20.677 -20.299  0.00  0.00    -0.268 N 
ATOM      6  C   UNL     1      32.139 -23.951 -15.849  0.00  0.00    +0.031 C 
ATOM      7  C   UNL     1      31.183 -23.195 -16.495  0.00  0.00    +0.103 C 
ATOM      8  C   UNL     1      32.934 -22.577 -17.661  0.00  0.00    +0.166 C 
ATOM      9  C   UNL     1      33.471 -21.031 -19.595  0.00  0.00    +0.310 C 
ATOM     10  H   UNL     1      34.719 -22.244 -18.499  0.00  0.00    +0.158 HD
ATOM     11  H   UNL     1      35.466 -21.110 -20.004  0.00  0.00    +0.156 HD
ENDROOT
BRANCH   5  12
ATOM     12  C   UNL     1      34.754 -19.771 -21.380  0.00  0.00    +0.052 C 
ATOM     13  C   UNL     1      34.764 -17.507 -22.222  0.00  0.00    +0.073 C 
ATOM     14  C   UNL     1      34.645 -18.399 -21.157  0.00  0.00    +0.019 C 
ATOM     15  C   UNL     1      34.983 -20.252 -22.669  0.00  0.00    +0.015 C 
ATOM     16  C   UNL     1      34.994 -17.988 -23.511  0.00  0.00    +0.004 C 
ATOM     17  C   UNL     1      35.103 -19.361 -23.735  0.00  0.00    +0.001 C 
BRANCH  13  21
ATOM     18  F   UNL     1      35.404 -15.285 -22.833  0.00  0.00    -0.166 F 
ATOM     19  F   UNL     1      33.374 -15.564 -22.125  0.00  0.00    -0.166 F 
ATOM     20  F   UNL     1      35.036 -15.679 -20.727  0.00  0.00    -0.166 F 
ATOM     21  C   UNL     1      34.647 -16.039 -21.985  0.00  0.00    +0.419 C 
ENDBRANCH  13  21
ENDBRANCH   5  12
BRANCH   6  22
ATOM     22  C   UNL     1      31.995 -24.908 -14.691  0.00  0.00    +0.056 C 
BRANCH  22  23
ATOM     23  C   UNL     1      32.908 -24.566 -13.514  0.00  0.00    +0.093 C 
BRANCH  23  25
ATOM     24  S   UNL     1      37.152 -26.190 -14.450  0.00  0.00    -0.101 S 
ATOM     25  N   UNL     1      34.237 -25.049 -13.740  0.00  0.00    -0.320 N 
ATOM     26  N   UNL     1      34.990 -24.415 -11.572  0.00  0.00    -0.233 NA
ATOM     27  N   UNL     1      37.261 -24.791 -10.828  0.00  0.00    -0.247 NA
ATOM     28  C   UNL     1      35.256 -24.967 -12.772  0.00  0.00    +0.118 C 
ATOM     29  C   UNL     1      36.534 -25.447 -13.031  0.00  0.00    +0.145 C 
ATOM     30  C   UNL     1      37.513 -25.346 -12.044  0.00  0.00    +0.073 C 
ATOM     31  C   UNL     1      38.762 -25.885 -12.474  0.00  0.00    +0.022 C 
ATOM     32  C   UNL     1      38.704 -26.375 -13.758  0.00  0.00    +0.033 C 
ATOM     33  C   UNL     1      35.998 -24.361 -10.682  0.00  0.00    +0.251 C 
ATOM     34  H   UNL     1      34.448 -25.454 -14.611  0.00  0.00    +0.148 HD
ENDBRANCH  23  25
ENDBRANCH  22  23
ENDBRANCH   6  22
TORSDOF 5
ENDMDL
MODEL 4
REMARK VINA RESULT:     -10.9      1.887      2.341
REMARK  Name = 24880024
REMARK  5 active torsions:
REMARK  status: ('A' for Active; 'I' for Inactive)
REMARK    1  A    between atoms: N_5  and  C_12
REMARK    2  A    between atoms: C_6  and  C_22
REMARK    3  A    between atoms: C_13  and  C_21
REMARK    4  A    between atoms: C_22  and  C_23
REMARK    5  A    between atoms: C_23  and  N_25
REMARK                            x       y       z     vdW  Elec       q    Type
REMARK                         _______ _______ _______ _____ _____    ______ ____
ROOT
ATOM      1  S   UNL     1      34.196 -21.380 -20.091  0.00  0.00    -0.056 S 
ATOM      2  O   UNL     1      36.916 -22.536 -16.477  0.00  0.00    -0.252 OA
ATOM      3  N   UNL     1      36.562 -21.103 -19.088  0.00  0.00    -0.223 NA
ATOM      4  N   UNL     1      35.000 -22.439 -17.832  0.00  0.00    -0.248 N 
ATOM      5  N   UNL     1      34.962 -23.649 -15.836  0.00  0.00    -0.268 N 
ATOM      6  C   UNL     1      35.329 -20.431 -20.960  0.00  0.00    +0.031 C 
ATOM      7  C   UNL     1      36.527 -20.400 -20.276  0.00  0.00    +0.103 C 
ATOM      8  C   UNL     1      35.388 -21.661 -18.890  0.00  0.00    +0.166 C 
ATOM      9  C   UNL     1      35.748 -22.849 -16.681  0.00  0.00    +0.310 C 
ATOM     10  H   UNL     1      34.071 -22.765 -17.868  0.00  0.00    +0.158 HD
ATOM     11  H   UNL     1      34.038 -23.815 -16.134  0.00  0.00    +0.156 HD
ENDROOT
BRANCH   5  12
ATOM     12  C   UNL     1      35.334 -24.245 -14.608  0.00  0.00    +0.052 C 
ATOM     13  C   UNL     1      36.960 -25.411 -13.255  0.00  0.00    +0.073 C 
ATOM     14  C   UNL     1      36.594 -24.824 -14.466  0.00  0.00    +0.019 C 
ATOM     15  C   UNL     1      34.439 -24.251 -13.537  0.00  0.00    +0.015 C 
ATOM     16  C   UNL     1      36.066 -25.417 -12.185  0.00  0.00    +0.004 C 
ATOM     17  C   UNL     1      34.805 -24.837 -12.326  0.00  0.00    +0.001 C 
BRANCH  13  21
ATOM     18  F   UNL     1      38.634 -26.887 -14.116  0.00  0.00    -0.166 F 
ATOM     19  F   UNL     1      39.327 -25.122 -13.063  0.00  0.00    -0.166 F 
ATOM     20  F   UNL     1      38.423 -26.761 -11.956  0.00  0.00    -0.166 F 
ATOM     21  C   UNL     1      38.308 -26.032 -13.103  0.00  0.00    +0.419 C 
ENDBRANCH  13  21
ENDBRANCH   5  12
BRANCH   6  22
ATOM     22  C   UNL     1      34.946 -19.783 -22.268  0.00  0.00    +0.056 C 
BRANCH  22  23
ATOM     23  C   UNL     1      35.820 -18.581 -22.621  0.00  0.00    +0.093 C 
BRANCH  23  25
ATOM     24  S   UNL     1      33.895 -14.673 -21.024  0.00  0.00    -0.101 S 
ATOM     25  N   UNL     1      35.209 -17.359 -22.193  0.00  0.00    -0.320 N 
ATOM     26  N   UNL     1      34.589 -16.727 -24.402  0.00  0.00    -0.233 NA
ATOM     27  N   UNL     1      33.411 -14.668 -24.877  0.00  0.00    -0.247 NA
ATOM     28  C   UNL     1      34.605 -16.452 -23.083  0.00  0.00    +0.118 C 
ATOM     29  C   UNL     1      34.022 -15.276 -22.626  0.00  0.00    +0.145 C 
ATOM     30  C   UNL     1      33.435 -14.406 -23.544  0.00  0.00    +0.073 C 
ATOM     31  C   UNL     1      32.886 -13.251 -22.908  0.00  0.00    +0.022 C 
ATOM     32  C   UNL     1      33.068 -13.271 -21.544  0.00  0.00    +0.033 C 
ATOM     33  C   UNL     1      33.999 -15.828 -25.211  0.00  0.00    +0.251 C 
ATOM     34  H   UNL     1      35.213 -17.143 -21.233  0.00  0.00    +0.148 HD
ENDBRANCH  23  25
ENDBRANCH  22  23
ENDBRANCH   6  22
TORSDOF 5
ENDMDL
MODEL 5
REMARK VINA RESULT:     -10.9      1.690      2.173
REMARK  Name = 24880024
REMARK  5 active torsions:
REMARK  status: ('A' for Active; 'I' for Inactive)
REMARK    1  A    between atoms: N_5  and  C_12
REMARK    2  A    between atoms: C_6  and  C_22
REMARK    3  A    between atoms: C_13  and  C_21
REMARK    4  A    between atoms: C_22  and  C_23
REMARK    5  A    between atoms: C_23  and  N_25
REMARK                            x       y       z     vdW  Elec       q    Type
REMARK                         _______ _______ _______ _____ _____    ______ ____
ROOT
ATOM      1  S   UNL     1      36.267 -20.611 -20.563  0.00  0.00    -0.056 S 
ATOM      2  O   UNL     1      34.153 -22.851 -17.053  0.00  0.00    -0.252 OA
ATOM      3  N   UNL     1      33.962 -21.294 -19.610  0.00  0.00    -0.223 NA
ATOM      4  N   UNL     1      35.903 -21.975 -18.354  0.00  0.00    -0.248 N 
ATOM      5  N   UNL     1      36.378 -23.154 -16.396  0.00  0.00    -0.268 N 
ATOM      6  C   UNL     1      34.867 -20.144 -21.436  0.00  0.00    +0.031 C 
ATOM      7  C   UNL     1      33.740 -20.592 -20.778  0.00  0.00    +0.103 C 
ATOM      8  C   UNL     1      35.258 -21.365 -19.397  0.00  0.00    +0.166 C 
ATOM      9  C   UNL     1      35.355 -22.685 -17.236  0.00  0.00    +0.310 C 
ATOM     10  H   UNL     1      36.886 -21.918 -18.375  0.00  0.00    +0.158 HD
ATOM     11  H   UNL     1      37.298 -22.942 -16.675  0.00  0.00    +0.156 HD
ENDROOT
BRANCH   5  12
ATOM     12  C   UNL     1      36.248 -23.895 -15.198  0.00  0.00    +0.052 C 
ATOM     13  C   UNL     1      37.251 -24.936 -13.262  0.00  0.00    +0.073 C 
ATOM     14  C   UNL     1      37.379 -24.206 -14.443  0.00  0.00    +0.019 C 
ATOM     15  C   UNL     1      34.988 -24.315 -14.771  0.00  0.00    +0.015 C 
ATOM     16  C   UNL     1      35.991 -25.356 -12.835  0.00  0.00    +0.004 C 
ATOM     17  C   UNL     1      34.859 -25.045 -13.589  0.00  0.00    +0.001 C 
BRANCH  13  21
ATOM     18  F   UNL     1      39.609 -25.331 -13.189  0.00  0.00    -0.166 F 
ATOM     19  F   UNL     1      38.719 -24.367 -11.462  0.00  0.00    -0.166 F 
ATOM     20  F   UNL     1      38.358 -26.479 -11.831  0.00  0.00    -0.166 F 
ATOM     21  C   UNL     1      38.460 -25.269 -12.455  0.00  0.00    +0.419 C 
ENDBRANCH  13  21
ENDBRANCH   5  12
BRANCH   6  22
ATOM     22  C   UNL     1      34.989 -19.359 -22.720  0.00  0.00    +0.056 C 
BRANCH  22  23
ATOM     23  C   UNL     1      35.782 -18.063 -22.557  0.00  0.00    +0.093 C 
BRANCH  23  25
ATOM     24  S   UNL     1      33.261 -14.896 -20.290  0.00  0.00    -0.101 S 
ATOM     25  N   UNL     1      34.991 -17.055 -21.918  0.00  0.00    -0.320 N 
ATOM     26  N   UNL     1      34.500 -15.940 -23.962  0.00  0.00    -0.233 NA
ATOM     27  N   UNL     1      33.128 -13.949 -24.054  0.00  0.00    -0.247 NA
ATOM     28  C   UNL     1      34.364 -16.012 -22.623  0.00  0.00    +0.118 C 
ATOM     29  C   UNL     1      33.604 -15.052 -21.964  0.00  0.00    +0.145 C 
ATOM     30  C   UNL     1      33.000 -14.036 -22.704  0.00  0.00    +0.073 C 
ATOM     31  C   UNL     1      32.261 -13.140 -21.874  0.00  0.00    +0.022 C 
ATOM     32  C   UNL     1      32.320 -13.492 -20.545  0.00  0.00    +0.033 C 
ATOM     33  C   UNL     1      33.880 -14.924 -24.590  0.00  0.00    +0.251 C 
ATOM     34  H   UNL     1      34.882 -17.093 -20.940  0.00  0.00    +0.148 HD
ENDBRANCH  23  25
ENDBRANCH  22  23
ENDBRANCH   6  22
TORSDOF 5
ENDMDL
MODEL 6
REMARK VINA RESULT:     -10.8      3.604      4.247
REMARK  Name = 24880024
REMARK  5 active torsions:
REMARK  status: ('A' for Active; 'I' for Inactive)
REMARK    1  A    between atoms: N_5  and  C_12
REMARK    2  A    between atoms: C_6  and  C_22
REMARK    3  A    between atoms: C_13  and  C_21
REMARK    4  A    between atoms: C_22  and  C_23
REMARK    5  A    between atoms: C_23  and  N_25
REMARK                            x       y       z     vdW  Elec       q    Type
REMARK                         _______ _______ _______ _____ _____    ______ ____
ROOT
ATOM      1  S   UNL     1      36.007 -21.000 -19.950  0.00  0.00    -0.056 S 
ATOM      2  O   UNL     1      32.096 -22.422 -17.833  0.00  0.00    -0.252 OA
ATOM      3  N   UNL     1      33.425 -20.899 -20.048  0.00  0.00    -0.223 NA
ATOM      4  N   UNL     1      34.395 -22.163 -18.241  0.00  0.00    -0.248 N 
ATOM      5  N   UNL     1      33.666 -23.423 -16.416  0.00  0.00    -0.268 N 
ATOM      6  C   UNL     1      35.287 -20.111 -21.227  0.00  0.00    +0.031 C 
ATOM      7  C   UNL     1      33.913 -20.169 -21.114  0.00  0.00    +0.103 C 
ATOM      8  C   UNL     1      34.440 -21.383 -19.366  0.00  0.00    +0.166 C 
ATOM      9  C   UNL     1      33.260 -22.653 -17.518  0.00  0.00    +0.310 C 
ATOM     10  H   UNL     1      35.272 -22.426 -17.876  0.00  0.00    +0.158 HD
ATOM     11  H   UNL     1      34.638 -23.520 -16.292  0.00  0.00    +0.156 HD
ENDROOT
BRANCH   5  12
ATOM     12  C   UNL     1      32.850 -24.077 -15.463  0.00  0.00    +0.052 C 
ATOM     13  C   UNL     1      30.668 -24.806 -14.724  0.00  0.00    +0.073 C 
ATOM     14  C   UNL     1      31.472 -24.160 -15.663  0.00  0.00    +0.019 C 
ATOM     15  C   UNL     1      33.424 -24.640 -14.324  0.00  0.00    +0.015 C 
ATOM     16  C   UNL     1      31.243 -25.369 -13.584  0.00  0.00    +0.004 C 
ATOM     17  C   UNL     1      32.621 -25.286 -13.384  0.00  0.00    +0.001 C 
BRANCH  13  21
ATOM     18  F   UNL     1      28.565 -25.738 -14.067  0.00  0.00    -0.166 F 
ATOM     19  F   UNL     1      28.550 -23.697 -14.802  0.00  0.00    -0.166 F 
ATOM     20  F   UNL     1      28.871 -25.346 -16.184  0.00  0.00    -0.166 F 
ATOM     21  C   UNL     1      29.195 -24.895 -14.937  0.00  0.00    +0.419 C 
ENDBRANCH  13  21
ENDBRANCH   5  12
BRANCH   6  22
ATOM     22  C   UNL     1      36.143 -19.414 -22.256  0.00  0.00    +0.056 C 
BRANCH  22  23
ATOM     23  C   UNL     1      35.327 -18.722 -23.347  0.00  0.00    +0.093 C 
BRANCH  23  25
ATOM     24  S   UNL     1      34.463 -14.374 -21.979  0.00  0.00    -0.101 S 
ATOM     25  N   UNL     1      35.034 -17.367 -22.987  0.00  0.00    -0.320 N 
ATOM     26  N   UNL     1      34.124 -16.845 -25.123  0.00  0.00    -0.233 NA
ATOM     27  N   UNL     1      33.259 -14.651 -25.661  0.00  0.00    -0.247 NA
ATOM     28  C   UNL     1      34.440 -16.451 -23.874  0.00  0.00    +0.118 C 
ATOM     29  C   UNL     1      34.173 -15.143 -23.485  0.00  0.00    +0.145 C 
ATOM     30  C   UNL     1      33.584 -14.269 -24.398  0.00  0.00    +0.073 C 
ATOM     31  C   UNL     1      33.379 -12.972 -23.837  0.00  0.00    +0.022 C 
ATOM     32  C   UNL     1      33.812 -12.894 -22.533  0.00  0.00    +0.033 C 
ATOM     33  C   UNL     1      33.558 -15.931 -25.933  0.00  0.00    +0.251 C 
ATOM     34  H   UNL     1      35.260 -17.064 -22.079  0.00  0.00    +0.148 HD
ENDBRANCH  23  25
ENDBRANCH  22  23
ENDBRANCH   6  22
TORSDOF 5
ENDMDL
MODEL 7
REMARK VINA RESULT:     -10.4      5.896     11.641
REMARK  Name = 24880024
REMARK  5 active torsions:
REMARK  status: ('A' for Active; 'I' for Inactive)
REMARK    1  A    between atoms: N_5  and  C_12
REMARK    2  A    between atoms: C_6  and  C_22
REMARK    3  A    between atoms: C_13  and  C_21
REMARK    4  A    between atoms: C_22  and  C_23
REMARK    5  A    between atoms: C_23  and  N_25
REMARK                            x       y       z     vdW  Elec       q    Type
REMARK                         _______ _______ _______ _____ _____    ______ ____
ROOT
ATOM      1  S   UNL     1      33.713 -23.980 -15.859  0.00  0.00    -0.056 S 
ATOM      2  O   UNL     1      33.019 -21.135 -19.495  0.00  0.00    -0.252 OA
ATOM      3  N   UNL     1      31.895 -22.804 -17.271  0.00  0.00    -0.223 NA
ATOM      4  N   UNL     1      34.185 -22.419 -17.911  0.00  0.00    -0.248 N 
ATOM      5  N   UNL     1      35.356 -21.217 -19.533  0.00  0.00    -0.268 N 
ATOM      6  C   UNL     1      32.073 -24.231 -15.426  0.00  0.00    +0.031 C 
ATOM      7  C   UNL     1      31.254 -23.531 -16.287  0.00  0.00    +0.103 C 
ATOM      8  C   UNL     1      33.193 -22.966 -17.142  0.00  0.00    +0.166 C 
ATOM      9  C   UNL     1      34.083 -21.540 -19.038  0.00  0.00    +0.310 C 
ATOM     10  H   UNL     1      35.103 -22.664 -17.651  0.00  0.00    +0.158 HD
ATOM     11  H   UNL     1      36.119 -21.619 -19.060  0.00  0.00    +0.156 HD
ENDROOT
BRANCH   5  12
ATOM     12  C   UNL     1      35.677 -20.381 -20.630  0.00  0.00    +0.052 C 
ATOM     13  C   UNL     1      35.222 -19.602 -22.870  0.00  0.00    +0.073 C 
ATOM     14  C   UNL     1      34.906 -20.426 -21.790  0.00  0.00    +0.019 C 
ATOM     15  C   UNL     1      36.765 -19.512 -20.548  0.00  0.00    +0.015 C 
ATOM     16  C   UNL     1      36.310 -18.733 -22.789  0.00  0.00    +0.004 C 
ATOM     17  C   UNL     1      37.082 -18.688 -21.628  0.00  0.00    +0.001 C 
BRANCH  13  21
ATOM     18  F   UNL     1      33.071 -19.874 -23.882  0.00  0.00    -0.166 F 
ATOM     19  F   UNL     1      34.441 -18.494 -24.841  0.00  0.00    -0.166 F 
ATOM     20  F   UNL     1      34.794 -20.636 -24.968  0.00  0.00    -0.166 F 
ATOM     21  C   UNL     1      34.398 -19.649 -24.113  0.00  0.00    +0.419 C 
ENDBRANCH  13  21
ENDBRANCH   5  12
BRANCH   6  22
ATOM     22  C   UNL     1      31.715 -25.114 -14.254  0.00  0.00    +0.056 C 
BRANCH  22  23
ATOM     23  C   UNL     1      32.651 -24.934 -13.060  0.00  0.00    +0.093 C 
BRANCH  23  25
ATOM     24  S   UNL     1      36.911 -26.248 -14.343  0.00  0.00    -0.101 S 
ATOM     25  N   UNL     1      33.989 -25.317 -13.395  0.00  0.00    -0.320 N 
ATOM     26  N   UNL     1      34.881 -24.544 -11.329  0.00  0.00    -0.233 NA
ATOM     27  N   UNL     1      37.234 -24.710 -10.791  0.00  0.00    -0.247 NA
ATOM     28  C   UNL     1      35.082 -25.118 -12.531  0.00  0.00    +0.118 C 
ATOM     29  C   UNL     1      36.366 -25.504 -12.895  0.00  0.00    +0.145 C 
ATOM     30  C   UNL     1      37.419 -25.287 -12.007  0.00  0.00    +0.073 C 
ATOM     31  C   UNL     1      38.665 -25.741 -12.537  0.00  0.00    +0.022 C 
ATOM     32  C   UNL     1      38.530 -26.282 -13.795  0.00  0.00    +0.033 C 
ATOM     33  C   UNL     1      35.958 -24.376 -10.539  0.00  0.00    +0.251 C 
ATOM     34  H   UNL     1      34.152 -25.736 -14.270  0.00  0.00    +0.148 HD
ENDBRANCH  23  25
ENDBRANCH  22  23
ENDBRANCH   6  22
TORSDOF 5
ENDMDL
MODEL 8
REMARK VINA RESULT:     -10.3      6.432     12.735
REMARK  Name = 24880024
REMARK  5 active torsions:
REMARK  status: ('A' for Active; 'I' for Inactive)
REMARK    1  A    between atoms: N_5  and  C_12
REMARK    2  A    between atoms: C_6  and  C_22
REMARK    3  A    between atoms: C_13  and  C_21
REMARK    4  A    between atoms: C_22  and  C_23
REMARK    5  A    between atoms: C_23  and  N_25
REMARK                            x       y       z     vdW  Elec       q    Type
REMARK                         _______ _______ _______ _____ _____    ______ ____
ROOT
ATOM      1  S   UNL     1      34.583 -20.062 -20.892  0.00  0.00    -0.056 S 
ATOM      2  O   UNL     1      36.063 -16.244 -23.135  0.00  0.00    -0.252 OA
ATOM      3  N   UNL     1      36.669 -18.628 -21.419  0.00  0.00    -0.223 NA
ATOM      4  N   UNL     1      34.574 -17.881 -22.345  0.00  0.00    -0.248 N 
ATOM      5  N   UNL     1      33.790 -16.130 -23.676  0.00  0.00    -0.268 N 
ATOM      6  C   UNL     1      36.090 -20.571 -20.250  0.00  0.00    +0.031 C 
ATOM      7  C   UNL     1      37.078 -19.687 -20.633  0.00  0.00    +0.103 C 
ATOM      8  C   UNL     1      35.373 -18.723 -21.620  0.00  0.00    +0.166 C 
ATOM      9  C   UNL     1      34.924 -16.694 -23.067  0.00  0.00    +0.310 C 
ATOM     10  H   UNL     1      33.621 -18.126 -22.376  0.00  0.00    +0.158 HD
ATOM     11  H   UNL     1      32.941 -16.606 -23.532  0.00  0.00    +0.156 HD
ENDROOT
BRANCH   5  12
ATOM     12  C   UNL     1      33.720 -14.962 -24.472  0.00  0.00    +0.052 C 
ATOM     13  C   UNL     1      33.877 -12.561 -24.683  0.00  0.00    +0.073 C 
ATOM     14  C   UNL     1      33.946 -13.712 -23.899  0.00  0.00    +0.019 C 
ATOM     15  C   UNL     1      33.424 -15.063 -25.831  0.00  0.00    +0.015 C 
ATOM     16  C   UNL     1      33.582 -12.661 -26.043  0.00  0.00    +0.004 C 
ATOM     17  C   UNL     1      33.355 -13.912 -26.617  0.00  0.00    +0.001 C 
BRANCH  13  21
ATOM     18  F   UNL     1      35.036 -10.469 -24.745  0.00  0.00    -0.166 F 
ATOM     19  F   UNL     1      32.999 -10.444 -24.000  0.00  0.00    -0.166 F 
ATOM     20  F   UNL     1      34.586 -11.308 -22.791  0.00  0.00    -0.166 F 
ATOM     21  C   UNL     1      34.119 -11.223 -24.071  0.00  0.00    +0.419 C 
ENDBRANCH  13  21
ENDBRANCH   5  12
BRANCH   6  22
ATOM     22  C   UNL     1      36.183 -21.818 -19.405  0.00  0.00    +0.056 C 
BRANCH  22  23
ATOM     23  C   UNL     1      34.819 -22.342 -18.958  0.00  0.00    +0.093 C 
BRANCH  23  25
ATOM     24  S   UNL     1      35.278 -24.173 -14.720  0.00  0.00    -0.101 S 
ATOM     25  N   UNL     1      34.892 -22.907 -17.645  0.00  0.00    -0.320 N 
ATOM     26  N   UNL     1      32.530 -22.905 -17.356  0.00  0.00    -0.233 NA
ATOM     27  N   UNL     1      31.471 -23.710 -15.335  0.00  0.00    -0.247 NA
ATOM     28  C   UNL     1      33.754 -23.179 -16.864  0.00  0.00    +0.118 C 
ATOM     29  C   UNL     1      33.868 -23.728 -15.592  0.00  0.00    +0.145 C 
ATOM     30  C   UNL     1      32.713 -23.981 -14.853  0.00  0.00    +0.073 C 
ATOM     31  C   UNL     1      33.010 -24.542 -13.575  0.00  0.00    +0.022 C 
ATOM     32  C   UNL     1      34.363 -24.698 -13.375  0.00  0.00    +0.033 C 
ATOM     33  C   UNL     1      31.473 -23.185 -16.570  0.00  0.00    +0.251 C 
ATOM     34  H   UNL     1      35.779 -23.112 -17.270  0.00  0.00    +0.148 HD
ENDBRANCH  23  25
ENDBRANCH  22  23
ENDBRANCH   6  22
TORSDOF 5
ENDMDL
MODEL 9
REMARK VINA RESULT:     -10.2      5.415     12.209
REMARK  Name = 24880024
REMARK  5 active torsions:
REMARK  status: ('A' for Active; 'I' for Inactive)
REMARK    1  A    between atoms: N_5  and  C_12
REMARK    2  A    between atoms: C_6  and  C_22
REMARK    3  A    between atoms: C_13  and  C_21
REMARK    4  A    between atoms: C_22  and  C_23
REMARK    5  A    between atoms: C_23  and  N_25
REMARK                            x       y       z     vdW  Elec       q    Type
REMARK                         _______ _______ _______ _____ _____    ______ ____
ROOT
ATOM      1  S   UNL     1      35.387 -22.435 -17.947  0.00  0.00    -0.056 S 
ATOM      2  O   UNL     1      32.996 -19.816 -20.984  0.00  0.00    -0.252 OA
ATOM      3  N   UNL     1      33.015 -21.890 -18.818  0.00  0.00    -0.223 NA
ATOM      4  N   UNL     1      34.845 -20.698 -19.834  0.00  0.00    -0.248 N 
ATOM      5  N   UNL     1      35.158 -19.077 -21.485  0.00  0.00    -0.268 N 
ATOM      6  C   UNL     1      34.063 -23.265 -17.241  0.00  0.00    +0.031 C 
ATOM      7  C   UNL     1      32.888 -22.847 -17.830  0.00  0.00    +0.103 C 
ATOM      8  C   UNL     1      34.288 -21.597 -18.965  0.00  0.00    +0.166 C 
ATOM      9  C   UNL     1      34.208 -19.850 -20.798  0.00  0.00    +0.310 C 
ATOM     10  H   UNL     1      35.826 -20.622 -19.790  0.00  0.00    +0.158 HD
ATOM     11  H   UNL     1      36.097 -19.214 -21.224  0.00  0.00    +0.156 HD
ENDROOT
BRANCH   5  12
ATOM     12  C   UNL     1      34.931 -18.124 -22.506  0.00  0.00    +0.052 C 
ATOM     13  C   UNL     1      34.484 -15.848 -23.182  0.00  0.00    +0.073 C 
ATOM     14  C   UNL     1      34.708 -16.788 -22.176  0.00  0.00    +0.019 C 
ATOM     15  C   UNL     1      34.931 -18.521 -23.842  0.00  0.00    +0.015 C 
ATOM     16  C   UNL     1      34.484 -16.246 -24.519  0.00  0.00    +0.004 C 
ATOM     17  C   UNL     1      34.708 -17.582 -24.850  0.00  0.00    +0.001 C 
BRANCH  13  21
ATOM     18  F   UNL     1      34.943 -14.000 -21.734  0.00  0.00    -0.166 F 
ATOM     19  F   UNL     1      34.588 -13.547 -23.825  0.00  0.00    -0.166 F 
ATOM     20  F   UNL     1      32.935 -14.159 -22.552  0.00  0.00    -0.166 F 
ATOM     21  C   UNL     1      34.245 -14.419 -22.830  0.00  0.00    +0.419 C 
ENDBRANCH  13  21
ENDBRANCH   5  12
BRANCH   6  22
ATOM     22  C   UNL     1      34.289 -24.279 -16.146  0.00  0.00    +0.056 C 
BRANCH  22  23
ATOM     23  C   UNL     1      35.061 -23.713 -14.955  0.00  0.00    +0.093 C 
BRANCH  23  25
ATOM     24  S   UNL     1      39.515 -24.983 -15.231  0.00  0.00    -0.101 S 
ATOM     25  N   UNL     1      36.428 -24.140 -14.981  0.00  0.00    -0.320 N 
ATOM     26  N   UNL     1      36.240 -25.350 -12.941  0.00  0.00    -0.233 NA
ATOM     27  N   UNL     1      38.101 -26.555 -11.973  0.00  0.00    -0.247 NA
ATOM     28  C   UNL     1      36.997 -24.948 -13.980  0.00  0.00    +0.118 C 
ATOM     29  C   UNL     1      38.330 -25.340 -14.043  0.00  0.00    +0.145 C 
ATOM     30  C   UNL     1      38.852 -26.141 -13.028  0.00  0.00    +0.073 C 
ATOM     31  C   UNL     1      40.228 -26.449 -13.248  0.00  0.00    +0.022 C 
ATOM     32  C   UNL     1      40.710 -25.884 -14.406  0.00  0.00    +0.033 C 
ATOM     33  C   UNL     1      36.831 -26.122 -12.010  0.00  0.00    +0.251 C 
ATOM     34  H   UNL     1      36.995 -23.853 -15.733  0.00  0.00    +0.148 HD
ENDBRANCH  23  25
ENDBRANCH  22  23
ENDBRANCH   6  22
TORSDOF 5
ENDMDL
