MODEL 1
REMARK VINA RESULT:     -12.1      0.000      0.000
REMARK  Name = 118598754
REMARK  1 active torsions:
REMARK  status: ('A' for Active; 'I' for Inactive)
REMARK    1  A    between atoms: C_15  and  N_19
REMARK                            x       y       z     vdW  Elec       q    Type
REMARK                         _______ _______ _______ _____ _____    ______ ____
ROOT
ATOM      1  O   UNL     1      32.082 -24.958 -12.680  0.00  0.00    -0.269 OA
ATOM      2  O   UNL     1      36.720 -23.588 -15.947  0.00  0.00    -0.268 OA
ATOM      3  N   UNL     1      34.873 -24.134 -14.648  0.00  0.00    -0.238 N 
ATOM      4  N   UNL     1      34.417 -24.930 -12.542  0.00  0.00    -0.288 N 
ATOM      5  C   UNL     1      35.543 -24.575 -13.398  0.00  0.00    +0.124 C 
ATOM      6  C   UNL     1      36.426 -25.815 -13.641  0.00  0.00    +0.038 C 
ATOM      7  C   UNL     1      36.346 -23.427 -12.756  0.00  0.00    +0.038 C 
ATOM      8  C   UNL     1      37.116 -23.874 -11.512  0.00  0.00    +0.003 C 
ATOM      9  C   UNL     1      37.196 -26.241 -12.391  0.00  0.00    +0.003 C 
ATOM     10  C   UNL     1      37.997 -25.085 -11.801  0.00  0.00    +0.000 C 
ATOM     11  C   UNL     1      33.499 -24.231 -14.511  0.00  0.00    +0.105 C 
ATOM     12  C   UNL     1      33.183 -24.745 -13.153  0.00  0.00    +0.260 C 
ATOM     13  C   UNL     1      35.503 -23.685 -15.802  0.00  0.00    +0.267 C 
ATOM     14  C   UNL     1      32.663 -23.893 -15.503  0.00  0.00    -0.002 C 
ATOM     15  C   UNL     1      34.580 -23.300 -16.929  0.00  0.00    +0.104 C 
ATOM     16  C   UNL     1      33.254 -23.414 -16.741  0.00  0.00    +0.016 C 
ATOM     17  C   UNL     1      31.165 -23.950 -15.485  0.00  0.00    +0.033 C 
ATOM     18  H   UNL     1      34.520 -25.268 -11.623  0.00  0.00    +0.151 HD
ENDROOT
BRANCH  15  19
ATOM     19  N   UNL     1      35.173 -22.855 -18.075  0.00  0.00    -0.298 N 
ATOM     20  N   UNL     1      33.355 -21.809 -19.170  0.00  0.00    -0.233 NA
ATOM     21  N   UNL     1      33.779 -20.093 -20.808  0.00  0.00    -0.234 NA
ATOM     22  C   UNL     1      34.689 -21.922 -18.999  0.00  0.00    +0.113 C 
ATOM     23  C   UNL     1      35.617 -21.167 -19.686  0.00  0.00    +0.121 C 
ATOM     24  C   UNL     1      35.099 -20.259 -20.587  0.00  0.00    +0.107 C 
ATOM     25  C   UNL     1      32.975 -20.888 -20.077  0.00  0.00    +0.252 C 
ATOM     26  H   UNL     1      36.056 -23.241 -18.278  0.00  0.00    +0.153 HD
ATOM     27  N   UNL     1      36.020 -19.467 -21.315  0.00  0.00    -0.346 N 
ATOM     28  H   UNL     1      35.694 -18.806 -21.968  0.00  0.00    +0.143 HD
ATOM     29  H   UNL     1      36.988 -19.575 -21.167  0.00  0.00    +0.143 HD
ENDBRANCH  15  19
TORSDOF 1
ENDMDL
MODEL 2
REMARK VINA RESULT:      -9.8     10.593     14.708
REMARK  Name = 118598754
REMARK  1 active torsions:
REMARK  status: ('A' for Active; 'I' for Inactive)
REMARK    1  A    between atoms: C_15  and  N_19
REMARK                            x       y       z     vdW  Elec       q    Type
REMARK                         _______ _______ _______ _____ _____    ______ ____
ROOT
ATOM      1  O   UNL     1      31.193  -9.496 -19.047  0.00  0.00    -0.269 OA
ATOM      2  O   UNL     1      33.484 -10.893 -24.230  0.00  0.00    -0.268 OA
ATOM      3  N   UNL     1      32.573 -10.338 -22.167  0.00  0.00    -0.238 N 
ATOM      4  N   UNL     1      31.879  -8.465 -21.032  0.00  0.00    -0.288 N 
ATOM      5  C   UNL     1      32.452  -8.865 -22.312  0.00  0.00    +0.124 C 
ATOM      6  C   UNL     1      33.831  -8.203 -22.496  0.00  0.00    +0.038 C 
ATOM      7  C   UNL     1      31.489  -8.491 -23.456  0.00  0.00    +0.038 C 
ATOM      8  C   UNL     1      31.410  -6.981 -23.685  0.00  0.00    +0.003 C 
ATOM      9  C   UNL     1      33.733  -6.696 -22.735  0.00  0.00    +0.003 C 
ATOM     10  C   UNL     1      32.791  -6.369 -23.890  0.00  0.00    +0.000 C 
ATOM     11  C   UNL     1      32.112 -10.732 -20.922  0.00  0.00    +0.105 C 
ATOM     12  C   UNL     1      31.658  -9.532 -20.172  0.00  0.00    +0.260 C 
ATOM     13  C   UNL     1      33.071 -11.219 -23.119  0.00  0.00    +0.267 C 
ATOM     14  C   UNL     1      32.115 -12.018 -20.540  0.00  0.00    -0.002 C 
ATOM     15  C   UNL     1      33.083 -12.668 -22.709  0.00  0.00    +0.104 C 
ATOM     16  C   UNL     1      32.624 -12.995 -21.488  0.00  0.00    +0.016 C 
ATOM     17  C   UNL     1      31.647 -12.575 -19.230  0.00  0.00    +0.033 C 
ATOM     18  H   UNL     1      31.669  -7.531 -20.800  0.00  0.00    +0.151 HD
ENDROOT
BRANCH  15  19
ATOM     19  N   UNL     1      33.568 -13.555 -23.626  0.00  0.00    -0.298 N 
ATOM     20  N   UNL     1      34.752 -15.064 -22.240  0.00  0.00    -0.233 NA
ATOM     21  N   UNL     1      35.158 -17.314 -23.002  0.00  0.00    -0.234 NA
ATOM     22  C   UNL     1      34.110 -14.826 -23.404  0.00  0.00    +0.113 C 
ATOM     23  C   UNL     1      33.955 -15.767 -24.400  0.00  0.00    +0.121 C 
ATOM     24  C   UNL     1      34.505 -17.007 -24.142  0.00  0.00    +0.107 C 
ATOM     25  C   UNL     1      35.244 -16.311 -22.108  0.00  0.00    +0.252 C 
ATOM     26  H   UNL     1      33.529 -13.264 -24.565  0.00  0.00    +0.153 HD
ATOM     27  N   UNL     1      34.369 -18.000 -25.142  0.00  0.00    -0.346 N 
ATOM     28  H   UNL     1      34.745 -18.898 -24.999  0.00  0.00    +0.143 HD
ATOM     29  H   UNL     1      33.895 -17.794 -25.981  0.00  0.00    +0.143 HD
ENDBRANCH  15  19
TORSDOF 1
ENDMDL
MODEL 3
REMARK VINA RESULT:      -9.8      2.684      5.008
REMARK  Name = 118598754
REMARK  1 active torsions:
REMARK  status: ('A' for Active; 'I' for Inactive)
REMARK    1  A    between atoms: C_15  and  N_19
REMARK                            x       y       z     vdW  Elec       q    Type
REMARK                         _______ _______ _______ _____ _____    ______ ____
ROOT
ATOM      1  O   UNL     1      38.375 -22.352 -16.406  0.00  0.00    -0.269 OA
ATOM      2  O   UNL     1      33.616 -24.991 -14.292  0.00  0.00    -0.268 OA
ATOM      3  N   UNL     1      35.509 -23.939 -15.134  0.00  0.00    -0.238 N 
ATOM      4  N   UNL     1      37.714 -23.634 -14.564  0.00  0.00    -0.288 N 
ATOM      5  C   UNL     1      36.497 -24.275 -14.078  0.00  0.00    +0.124 C 
ATOM      6  C   UNL     1      36.095 -23.671 -12.719  0.00  0.00    +0.038 C 
ATOM      7  C   UNL     1      36.714 -25.798 -13.977  0.00  0.00    +0.038 C 
ATOM      8  C   UNL     1      37.663 -26.181 -12.839  0.00  0.00    +0.003 C 
ATOM      9  C   UNL     1      37.048 -24.072 -11.592  0.00  0.00    +0.003 C 
ATOM     10  C   UNL     1      37.216 -25.586 -11.508  0.00  0.00    +0.000 C 
ATOM     11  C   UNL     1      36.111 -23.179 -16.123  0.00  0.00    +0.105 C 
ATOM     12  C   UNL     1      37.540 -22.971 -15.772  0.00  0.00    +0.260 C 
ATOM     13  C   UNL     1      34.172 -24.315 -15.157  0.00  0.00    +0.267 C 
ATOM     14  C   UNL     1      35.430 -22.743 -17.193  0.00  0.00    -0.002 C 
ATOM     15  C   UNL     1      33.390 -23.835 -16.352  0.00  0.00    +0.104 C 
ATOM     16  C   UNL     1      34.024 -23.100 -17.282  0.00  0.00    +0.016 C 
ATOM     17  C   UNL     1      35.958 -21.918 -18.328  0.00  0.00    +0.033 C 
ATOM     18  H   UNL     1      38.573 -23.667 -14.084  0.00  0.00    +0.151 HD
ENDROOT
BRANCH  15  19
ATOM     19  N   UNL     1      32.073 -24.190 -16.399  0.00  0.00    -0.298 N 
ATOM     20  N   UNL     1      31.175 -22.903 -14.628  0.00  0.00    -0.233 NA
ATOM     21  N   UNL     1      28.830 -22.347 -14.629  0.00  0.00    -0.234 NA
ATOM     22  C   UNL     1      30.981 -23.561 -15.790  0.00  0.00    +0.113 C 
ATOM     23  C   UNL     1      29.759 -23.656 -16.423  0.00  0.00    +0.121 C 
ATOM     24  C   UNL     1      28.708 -23.023 -15.790  0.00  0.00    +0.107 C 
ATOM     25  C   UNL     1      30.073 -22.327 -14.110  0.00  0.00    +0.252 C 
ATOM     26  H   UNL     1      31.865 -24.991 -16.931  0.00  0.00    +0.153 HD
ATOM     27  N   UNL     1      27.435 -23.100 -16.407  0.00  0.00    -0.346 N 
ATOM     28  H   UNL     1      26.658 -22.662 -15.990  0.00  0.00    +0.143 HD
ATOM     29  H   UNL     1      27.327 -23.589 -17.255  0.00  0.00    +0.143 HD
ENDBRANCH  15  19
TORSDOF 1
ENDMDL
MODEL 4
REMARK VINA RESULT:      -9.3      1.741      4.240
REMARK  Name = 118598754
REMARK  1 active torsions:
REMARK  status: ('A' for Active; 'I' for Inactive)
REMARK    1  A    between atoms: C_15  and  N_19
REMARK                            x       y       z     vdW  Elec       q    Type
REMARK                         _______ _______ _______ _____ _____    ______ ____
ROOT
ATOM      1  O   UNL     1      33.662 -24.227 -12.162  0.00  0.00    -0.269 OA
ATOM      2  O   UNL     1      32.437 -23.274 -17.789  0.00  0.00    -0.268 OA
ATOM      3  N   UNL     1      32.925 -23.652 -15.549  0.00  0.00    -0.238 N 
ATOM      4  N   UNL     1      31.821 -24.181 -13.606  0.00  0.00    -0.288 N 
ATOM      5  C   UNL     1      31.567 -23.934 -15.020  0.00  0.00    +0.124 C 
ATOM      6  C   UNL     1      30.638 -22.714 -15.179  0.00  0.00    +0.038 C 
ATOM      7  C   UNL     1      30.961 -25.193 -15.670  0.00  0.00    +0.038 C 
ATOM      8  C   UNL     1      29.527 -25.460 -15.208  0.00  0.00    +0.003 C 
ATOM      9  C   UNL     1      29.207 -23.002 -14.721  0.00  0.00    +0.003 C 
ATOM     10  C   UNL     1      28.635 -24.240 -15.406  0.00  0.00    +0.000 C 
ATOM     11  C   UNL     1      33.859 -23.732 -14.530  0.00  0.00    +0.105 C 
ATOM     12  C   UNL     1      33.162 -24.074 -13.262  0.00  0.00    +0.260 C 
ATOM     13  C   UNL     1      33.247 -23.349 -16.867  0.00  0.00    +0.267 C 
ATOM     14  C   UNL     1      35.164 -23.517 -14.747  0.00  0.00    -0.002 C 
ATOM     15  C   UNL     1      34.710 -23.104 -17.131  0.00  0.00    +0.104 C 
ATOM     16  C   UNL     1      35.572 -23.195 -16.104  0.00  0.00    +0.016 C 
ATOM     17  C   UNL     1      36.272 -23.573 -13.738  0.00  0.00    +0.033 C 
ATOM     18  H   UNL     1      31.113 -24.402 -12.958  0.00  0.00    +0.151 HD
ENDROOT
BRANCH  15  19
ATOM     19  N   UNL     1      35.053 -22.804 -18.417  0.00  0.00    -0.298 N 
ATOM     20  N   UNL     1      33.234 -21.445 -19.085  0.00  0.00    -0.233 NA
ATOM     21  N   UNL     1      33.520 -19.873 -20.889  0.00  0.00    -0.234 NA
ATOM     22  C   UNL     1      34.523 -21.811 -19.249  0.00  0.00    +0.113 C 
ATOM     23  C   UNL     1      35.360 -21.263 -20.198  0.00  0.00    +0.121 C 
ATOM     24  C   UNL     1      34.799 -20.288 -20.998  0.00  0.00    +0.107 C 
ATOM     25  C   UNL     1      32.804 -20.485 -19.926  0.00  0.00    +0.252 C 
ATOM     26  H   UNL     1      35.767 -23.356 -18.810  0.00  0.00    +0.153 HD
ATOM     27  N   UNL     1      35.626 -19.702 -21.988  0.00  0.00    -0.346 N 
ATOM     28  H   UNL     1      35.267 -19.002 -22.580  0.00  0.00    +0.143 HD
ATOM     29  H   UNL     1      36.563 -19.993 -22.083  0.00  0.00    +0.143 HD
ENDBRANCH  15  19
TORSDOF 1
ENDMDL
MODEL 5
REMARK VINA RESULT:      -9.3      7.267     10.706
REMARK  Name = 118598754
REMARK  1 active torsions:
REMARK  status: ('A' for Active; 'I' for Inactive)
REMARK    1  A    between atoms: C_15  and  N_19
REMARK                            x       y       z     vdW  Elec       q    Type
REMARK                         _______ _______ _______ _____ _____    ______ ____
ROOT
ATOM      1  O   UNL     1      34.906 -18.140 -25.381  0.00  0.00    -0.269 OA
ATOM      2  O   UNL     1      34.561 -16.242 -19.873  0.00  0.00    -0.268 OA
ATOM      3  N   UNL     1      34.699 -16.995 -22.065  0.00  0.00    -0.238 N 
ATOM      4  N   UNL     1      35.384 -18.867 -23.209  0.00  0.00    -0.288 N 
ATOM      5  C   UNL     1      35.277 -18.346 -21.851  0.00  0.00    +0.124 C 
ATOM      6  C   UNL     1      36.677 -18.263 -21.212  0.00  0.00    +0.038 C 
ATOM      7  C   UNL     1      34.330 -19.237 -21.023  0.00  0.00    +0.038 C 
ATOM      8  C   UNL     1      34.937 -20.607 -20.712  0.00  0.00    +0.003 C 
ATOM      9  C   UNL     1      37.263 -19.641 -20.900  0.00  0.00    +0.003 C 
ATOM     10  C   UNL     1      36.308 -20.482 -20.058  0.00  0.00    +0.000 C 
ATOM     11  C   UNL     1      34.498 -16.774 -23.417  0.00  0.00    +0.105 C 
ATOM     12  C   UNL     1      34.935 -17.976 -24.175  0.00  0.00    +0.260 C 
ATOM     13  C   UNL     1      34.393 -16.067 -21.078  0.00  0.00    +0.267 C 
ATOM     14  C   UNL     1      33.985 -15.624 -23.878  0.00  0.00    -0.002 C 
ATOM     15  C   UNL     1      33.815 -14.768 -21.575  0.00  0.00    +0.104 C 
ATOM     16  C   UNL     1      33.642 -14.606 -22.899  0.00  0.00    +0.016 C 
ATOM     17  C   UNL     1      33.718 -15.258 -25.307  0.00  0.00    +0.033 C 
ATOM     18  H   UNL     1      35.737 -19.761 -23.421  0.00  0.00    +0.151 HD
ENDROOT
BRANCH  15  19
ATOM     19  N   UNL     1      33.506 -13.837 -20.626  0.00  0.00    -0.298 N 
ATOM     20  N   UNL     1      32.269 -12.267 -21.891  0.00  0.00    -0.233 NA
ATOM     21  N   UNL     1      30.699 -10.814 -20.781  0.00  0.00    -0.234 NA
ATOM     22  C   UNL     1      32.556 -12.812 -20.691  0.00  0.00    +0.113 C 
ATOM     23  C   UNL     1      31.966 -12.416 -19.508  0.00  0.00    +0.121 C 
ATOM     24  C   UNL     1      31.035 -11.403 -19.615  0.00  0.00    +0.107 C 
ATOM     25  C   UNL     1      31.345 -11.287 -21.864  0.00  0.00    +0.252 C 
ATOM     26  H   UNL     1      34.018 -13.896 -19.787  0.00  0.00    +0.153 HD
ATOM     27  N   UNL     1      30.409 -10.966 -18.422  0.00  0.00    -0.346 N 
ATOM     28  H   UNL     1      29.738 -10.245 -18.453  0.00  0.00    +0.143 HD
ATOM     29  H   UNL     1      30.642 -11.384 -17.561  0.00  0.00    +0.143 HD
ENDBRANCH  15  19
TORSDOF 1
ENDMDL
