MODEL 1
REMARK VINA RESULT:     -11.4      0.000      0.000
REMARK  Name = 46207733
REMARK  4 active torsions:
REMARK  status: ('A' for Active; 'I' for Inactive)
REMARK    1  A    between atoms: N_2  and  C_16
REMARK    2  A    between atoms: C_10  and  C_24
REMARK    3  A    between atoms: C_17  and  O_22
REMARK    4  A    between atoms: C_24  and  C_26
REMARK                            x       y       z     vdW  Elec       q    Type
REMARK                         _______ _______ _______ _____ _____    ______ ____
ROOT
ATOM      1  O   UNL     1      36.563 -22.424 -18.093  0.00  0.00    -0.274 OA
ATOM      2  N   UNL     1      34.730 -21.636 -19.292  0.00  0.00    -0.257 N 
ATOM      3  N   UNL     1      32.521 -22.005 -18.507  0.00  0.00    -0.252 NA
ATOM      4  C   UNL     1      35.350 -22.293 -18.228  0.00  0.00    +0.236 C 
ATOM      5  C   UNL     1      33.356 -21.531 -19.369  0.00  0.00    +0.222 C 
ATOM      6  C   UNL     1      34.423 -22.852 -17.216  0.00  0.00    +0.138 C 
ATOM      7  C   UNL     1      33.039 -22.690 -17.389  0.00  0.00    +0.068 C 
ATOM      8  C   UNL     1      32.149 -23.225 -16.420  0.00  0.00    +0.014 C 
ATOM      9  C   UNL     1      34.934 -23.530 -16.109  0.00  0.00    -0.015 C 
ATOM     10  C   UNL     1      34.064 -24.056 -15.159  0.00  0.00    -0.021 C 
ATOM     11  C   UNL     1      32.676 -23.913 -15.299  0.00  0.00    -0.003 C 
ATOM     12  C   UNL     1      30.745 -23.105 -16.522  0.00  0.00    +0.001 C 
ATOM     13  C   UNL     1      31.807 -24.448 -14.333  0.00  0.00    -0.000 C 
ATOM     14  C   UNL     1      29.896 -23.643 -15.553  0.00  0.00    +0.000 C 
ATOM     15  C   UNL     1      30.426 -24.314 -14.460  0.00  0.00    -0.000 C 
ENDROOT
BRANCH   2  16
ATOM     16  C   UNL     1      35.544 -21.054 -20.336  0.00  0.00    +0.104 C 
ATOM     17  C   UNL     1      36.382 -19.894 -19.783  0.00  0.00    +0.129 C 
ATOM     18  C   UNL     1      34.660 -20.606 -21.503  0.00  0.00    +0.022 C 
ATOM     19  C   UNL     1      37.168 -19.186 -20.888  0.00  0.00    +0.031 C 
ATOM     20  C   UNL     1      35.465 -19.909 -22.595  0.00  0.00    +0.002 C 
ATOM     21  C   UNL     1      36.269 -18.741 -22.034  0.00  0.00    +0.003 C 
BRANCH  17  22
ATOM     22  O   UNL     1      37.306 -20.407 -18.825  0.00  0.00    -0.383 OA
ATOM     23  H   UNL     1      37.363 -21.371 -18.913  0.00  0.00    +0.210 HD
ENDBRANCH  17  22
ENDBRANCH   2  16
BRANCH  10  24
ATOM     24  C   UNL     1      34.679 -24.772 -13.996  0.00  0.00    +0.054 C 
BRANCH  24  26
ATOM     25  N   UNL     1      38.438 -24.273 -14.065  0.00  0.00    -0.248 NA
ATOM     26  C   UNL     1      36.154 -25.059 -14.169  0.00  0.00    +0.001 C 
ATOM     27  C   UNL     1      36.596 -26.314 -14.577  0.00  0.00    -0.001 C 
ATOM     28  C   UNL     1      37.106 -24.082 -13.928  0.00  0.00    +0.094 C 
ATOM     29  C   UNL     1      37.958 -26.549 -14.729  0.00  0.00    +0.014 C 
ATOM     30  C   UNL     1      38.831 -25.505 -14.462  0.00  0.00    +0.059 C 
ATOM     31  C   UNL     1      40.300 -25.721 -14.615  0.00  0.00    +0.052 C 
ENDBRANCH  24  26
ENDBRANCH  10  24
TORSDOF 4
ENDMDL
MODEL 2
REMARK VINA RESULT:     -11.3      1.865      5.459
REMARK  Name = 46207733
REMARK  4 active torsions:
REMARK  status: ('A' for Active; 'I' for Inactive)
REMARK    1  A    between atoms: N_2  and  C_16
REMARK    2  A    between atoms: C_10  and  C_24
REMARK    3  A    between atoms: C_17  and  O_22
REMARK    4  A    between atoms: C_24  and  C_26
REMARK                            x       y       z     vdW  Elec       q    Type
REMARK                         _______ _______ _______ _____ _____    ______ ____
ROOT
ATOM      1  O   UNL     1      32.729 -22.699 -18.492  0.00  0.00    -0.274 OA
ATOM      2  N   UNL     1      34.989 -22.158 -18.358  0.00  0.00    -0.257 N 
ATOM      3  N   UNL     1      36.241 -22.664 -16.407  0.00  0.00    -0.252 NA
ATOM      4  C   UNL     1      33.789 -22.682 -17.874  0.00  0.00    +0.236 C 
ATOM      5  C   UNL     1      36.141 -22.179 -17.599  0.00  0.00    +0.222 C 
ATOM      6  C   UNL     1      33.864 -23.248 -16.506  0.00  0.00    +0.138 C 
ATOM      7  C   UNL     1      35.087 -23.220 -15.817  0.00  0.00    +0.068 C 
ATOM      8  C   UNL     1      35.161 -23.762 -14.507  0.00  0.00    +0.014 C 
ATOM      9  C   UNL     1      32.723 -23.799 -15.922  0.00  0.00    -0.015 C 
ATOM     10  C   UNL     1      32.793 -24.329 -14.638  0.00  0.00    -0.021 C 
ATOM     11  C   UNL     1      33.997 -24.319 -13.920  0.00  0.00    -0.003 C 
ATOM     12  C   UNL     1      36.353 -23.771 -13.748  0.00  0.00    +0.001 C 
ATOM     13  C   UNL     1      34.055 -24.858 -12.623  0.00  0.00    -0.000 C 
ATOM     14  C   UNL     1      36.393 -24.310 -12.461  0.00  0.00    +0.000 C 
ATOM     15  C   UNL     1      35.245 -24.853 -11.899  0.00  0.00    -0.000 C 
ENDROOT
BRANCH   2  16
ATOM     16  C   UNL     1      35.025 -21.581 -19.683  0.00  0.00    +0.104 C 
ATOM     17  C   UNL     1      36.283 -20.721 -19.863  0.00  0.00    +0.129 C 
ATOM     18  C   UNL     1      33.749 -20.773 -19.939  0.00  0.00    +0.022 C 
ATOM     19  C   UNL     1      36.291 -20.004 -21.214  0.00  0.00    +0.031 C 
ATOM     20  C   UNL     1      33.776 -20.074 -21.294  0.00  0.00    +0.002 C 
ATOM     21  C   UNL     1      35.018 -19.201 -21.444  0.00  0.00    +0.003 C 
BRANCH  17  22
ATOM     22  O   UNL     1      37.433 -21.562 -19.786  0.00  0.00    -0.383 OA
ATOM     23  H   UNL     1      37.159 -22.464 -19.555  0.00  0.00    +0.210 HD
ENDBRANCH  17  22
ENDBRANCH   2  16
BRANCH  10  24
ATOM     24  C   UNL     1      31.531 -24.904 -14.070  0.00  0.00    +0.054 C 
BRANCH  24  26
ATOM     25  N   UNL     1      28.786 -22.420 -14.893  0.00  0.00    -0.248 NA
ATOM     26  C   UNL     1      30.272 -24.314 -14.665  0.00  0.00    +0.001 C 
ATOM     27  C   UNL     1      29.453 -25.067 -15.500  0.00  0.00    -0.001 C 
ATOM     28  C   UNL     1      29.898 -23.007 -14.395  0.00  0.00    +0.094 C 
ATOM     29  C   UNL     1      28.301 -24.497 -16.031  0.00  0.00    +0.014 C 
ATOM     30  C   UNL     1      28.015 -23.182 -15.701  0.00  0.00    +0.059 C 
ATOM     31  C   UNL     1      26.786 -22.538 -16.253  0.00  0.00    +0.052 C 
ENDBRANCH  24  26
ENDBRANCH  10  24
TORSDOF 4
ENDMDL
MODEL 3
REMARK VINA RESULT:     -11.3      2.582      7.109
REMARK  Name = 46207733
REMARK  4 active torsions:
REMARK  status: ('A' for Active; 'I' for Inactive)
REMARK    1  A    between atoms: N_2  and  C_16
REMARK    2  A    between atoms: C_10  and  C_24
REMARK    3  A    between atoms: C_17  and  O_22
REMARK    4  A    between atoms: C_24  and  C_26
REMARK                            x       y       z     vdW  Elec       q    Type
REMARK                         _______ _______ _______ _____ _____    ______ ____
ROOT
ATOM      1  O   UNL     1      32.001 -23.036 -16.315  0.00  0.00    -0.274 OA
ATOM      2  N   UNL     1      31.412 -24.205 -14.390  0.00  0.00    -0.257 N 
ATOM      3  N   UNL     1      33.078 -25.003 -12.900  0.00  0.00    -0.252 NA
ATOM      4  C   UNL     1      32.313 -23.630 -15.287  0.00  0.00    +0.236 C 
ATOM      5  C   UNL     1      31.845 -24.856 -13.253  0.00  0.00    +0.222 C 
ATOM      6  C   UNL     1      33.740 -23.778 -14.916  0.00  0.00    +0.138 C 
ATOM      7  C   UNL     1      34.077 -24.461 -13.736  0.00  0.00    +0.068 C 
ATOM      8  C   UNL     1      35.443 -24.604 -13.379  0.00  0.00    +0.014 C 
ATOM      9  C   UNL     1      34.729 -23.242 -15.742  0.00  0.00    -0.015 C 
ATOM     10  C   UNL     1      36.069 -23.382 -15.395  0.00  0.00    -0.021 C 
ATOM     11  C   UNL     1      36.442 -24.056 -14.223  0.00  0.00    -0.003 C 
ATOM     12  C   UNL     1      35.863 -25.275 -12.209  0.00  0.00    +0.001 C 
ATOM     13  C   UNL     1      37.798 -24.191 -13.883  0.00  0.00    -0.000 C 
ATOM     14  C   UNL     1      37.215 -25.401 -11.886  0.00  0.00    +0.000 C 
ATOM     15  C   UNL     1      38.182 -24.859 -12.722  0.00  0.00    -0.000 C 
ENDROOT
BRANCH   2  16
ATOM     16  C   UNL     1      29.993 -24.118 -14.658  0.00  0.00    +0.104 C 
ATOM     17  C   UNL     1      29.630 -24.929 -15.909  0.00  0.00    +0.129 C 
ATOM     18  C   UNL     1      29.575 -22.651 -14.795  0.00  0.00    +0.022 C 
ATOM     19  C   UNL     1      28.156 -24.762 -16.283  0.00  0.00    +0.031 C 
ATOM     20  C   UNL     1      28.101 -22.510 -15.161  0.00  0.00    +0.002 C 
ATOM     21  C   UNL     1      27.763 -23.298 -16.423  0.00  0.00    +0.003 C 
BRANCH  17  22
ATOM     22  O   UNL     1      29.882 -26.310 -15.654  0.00  0.00    -0.383 OA
ATOM     23  H   UNL     1      30.505 -26.394 -14.915  0.00  0.00    +0.210 HD
ENDBRANCH  17  22
ENDBRANCH   2  16
BRANCH  10  24
ATOM     24  C   UNL     1      37.078 -22.782 -16.325  0.00  0.00    +0.054 C 
BRANCH  24  26
ATOM     25  N   UNL     1      36.640 -20.595 -19.392  0.00  0.00    -0.248 NA
ATOM     26  C   UNL     1      36.472 -22.178 -17.573  0.00  0.00    +0.001 C 
ATOM     27  C   UNL     1      35.241 -22.612 -18.053  0.00  0.00    -0.001 C 
ATOM     28  C   UNL     1      37.126 -21.177 -18.272  0.00  0.00    +0.094 C 
ATOM     29  C   UNL     1      34.708 -22.037 -19.202  0.00  0.00    +0.014 C 
ATOM     30  C   UNL     1      35.441 -21.042 -19.829  0.00  0.00    +0.059 C 
ATOM     31  C   UNL     1      34.900 -20.403 -21.065  0.00  0.00    +0.052 C 
ENDBRANCH  24  26
ENDBRANCH  10  24
TORSDOF 4
ENDMDL
MODEL 4
REMARK VINA RESULT:     -11.0      2.131      6.651
REMARK  Name = 46207733
REMARK  4 active torsions:
REMARK  status: ('A' for Active; 'I' for Inactive)
REMARK    1  A    between atoms: N_2  and  C_16
REMARK    2  A    between atoms: C_10  and  C_24
REMARK    3  A    between atoms: C_17  and  O_22
REMARK    4  A    between atoms: C_24  and  C_26
REMARK                            x       y       z     vdW  Elec       q    Type
REMARK                         _______ _______ _______ _____ _____    ______ ____
ROOT
ATOM      1  O   UNL     1      36.314 -24.285 -15.390  0.00  0.00    -0.274 OA
ATOM      2  N   UNL     1      35.347 -24.657 -13.305  0.00  0.00    -0.257 N 
ATOM      3  N   UNL     1      33.020 -24.329 -12.974  0.00  0.00    -0.252 NA
ATOM      4  C   UNL     1      35.331 -24.301 -14.654  0.00  0.00    +0.236 C 
ATOM      5  C   UNL     1      34.194 -24.650 -12.546  0.00  0.00    +0.222 C 
ATOM      6  C   UNL     1      33.999 -23.925 -15.183  0.00  0.00    +0.138 C 
ATOM      7  C   UNL     1      32.887 -23.951 -14.326  0.00  0.00    +0.068 C 
ATOM      8  C   UNL     1      31.609 -23.591 -14.830  0.00  0.00    +0.014 C 
ATOM      9  C   UNL     1      33.865 -23.551 -16.521  0.00  0.00    -0.015 C 
ATOM     10  C   UNL     1      32.615 -23.197 -17.017  0.00  0.00    -0.021 C 
ATOM     11  C   UNL     1      31.482 -23.211 -16.191  0.00  0.00    -0.003 C 
ATOM     12  C   UNL     1      30.443 -23.591 -14.033  0.00  0.00    +0.001 C 
ATOM     13  C   UNL     1      30.224 -22.852 -16.703  0.00  0.00    -0.000 C 
ATOM     14  C   UNL     1      29.201 -23.231 -14.558  0.00  0.00    +0.000 C 
ATOM     15  C   UNL     1      29.092 -22.862 -15.892  0.00  0.00    -0.000 C 
ENDROOT
BRANCH   2  16
ATOM     16  C   UNL     1      36.598 -25.041 -12.689  0.00  0.00    +0.104 C 
ATOM     17  C   UNL     1      37.477 -23.808 -12.442  0.00  0.00    +0.129 C 
ATOM     18  C   UNL     1      37.313 -26.080 -13.557  0.00  0.00    +0.022 C 
ATOM     19  C   UNL     1      38.853 -24.194 -11.897  0.00  0.00    +0.031 C 
ATOM     20  C   UNL     1      38.679 -26.455 -12.991  0.00  0.00    +0.002 C 
ATOM     21  C   UNL     1      39.551 -25.221 -12.778  0.00  0.00    +0.003 C 
BRANCH  17  22
ATOM     22  O   UNL     1      36.832 -22.962 -11.491  0.00  0.00    -0.383 OA
ATOM     23  H   UNL     1      36.093 -23.440 -11.083  0.00  0.00    +0.210 HD
ENDBRANCH  17  22
ENDBRANCH   2  16
BRANCH  10  24
ATOM     24  C   UNL     1      32.543 -22.805 -18.461  0.00  0.00    +0.054 C 
BRANCH  24  26
ATOM     25  N   UNL     1      34.701 -20.264 -20.269  0.00  0.00    -0.248 NA
ATOM     26  C   UNL     1      33.766 -22.064 -18.953  0.00  0.00    +0.001 C 
ATOM     27  C   UNL     1      35.044 -22.461 -18.574  0.00  0.00    -0.001 C 
ATOM     28  C   UNL     1      33.649 -20.969 -19.793  0.00  0.00    +0.094 C 
ATOM     29  C   UNL     1      36.151 -21.761 -19.042  0.00  0.00    +0.014 C 
ATOM     30  C   UNL     1      35.928 -20.679 -19.879  0.00  0.00    +0.059 C 
ATOM     31  C   UNL     1      37.092 -19.904 -20.400  0.00  0.00    +0.052 C 
ENDBRANCH  24  26
ENDBRANCH  10  24
TORSDOF 4
ENDMDL
MODEL 5
REMARK VINA RESULT:     -10.5     15.014     20.549
REMARK  Name = 46207733
REMARK  4 active torsions:
REMARK  status: ('A' for Active; 'I' for Inactive)
REMARK    1  A    between atoms: N_2  and  C_16
REMARK    2  A    between atoms: C_10  and  C_24
REMARK    3  A    between atoms: C_17  and  O_22
REMARK    4  A    between atoms: C_24  and  C_26
REMARK                            x       y       z     vdW  Elec       q    Type
REMARK                         _______ _______ _______ _____ _____    ______ ____
ROOT
ATOM      1  O   UNL     1      30.764  -6.116 -21.679  0.00  0.00    -0.274 OA
ATOM      2  N   UNL     1      32.171  -7.881 -22.250  0.00  0.00    -0.257 N 
ATOM      3  N   UNL     1      33.815  -7.620 -23.942  0.00  0.00    -0.252 NA
ATOM      4  C   UNL     1      31.679  -6.579 -22.354  0.00  0.00    +0.236 C 
ATOM      5  C   UNL     1      33.206  -8.324 -23.047  0.00  0.00    +0.222 C 
ATOM      6  C   UNL     1      32.353  -5.739 -23.372  0.00  0.00    +0.138 C 
ATOM      7  C   UNL     1      33.398  -6.287 -24.133  0.00  0.00    +0.068 C 
ATOM      8  C   UNL     1      34.045  -5.483 -25.109  0.00  0.00    +0.014 C 
ATOM      9  C   UNL     1      31.942  -4.419 -23.563  0.00  0.00    -0.015 C 
ATOM     10  C   UNL     1      32.573  -3.631 -24.519  0.00  0.00    -0.021 C 
ATOM     11  C   UNL     1      33.621  -4.144 -25.297  0.00  0.00    -0.003 C 
ATOM     12  C   UNL     1      35.104  -5.961 -25.914  0.00  0.00    +0.001 C 
ATOM     13  C   UNL     1      34.252  -3.338 -26.259  0.00  0.00    -0.000 C 
ATOM     14  C   UNL     1      35.719  -5.146 -26.866  0.00  0.00    +0.000 C 
ATOM     15  C   UNL     1      35.293  -3.836 -27.039  0.00  0.00    -0.000 C 
ENDROOT
BRANCH   2  16
ATOM     16  C   UNL     1      31.582  -8.785 -21.287  0.00  0.00    +0.104 C 
ATOM     17  C   UNL     1      32.444  -8.859 -20.020  0.00  0.00    +0.129 C 
ATOM     18  C   UNL     1      31.385 -10.167 -21.917  0.00  0.00    +0.022 C 
ATOM     19  C   UNL     1      31.908  -9.894 -19.029  0.00  0.00    +0.031 C 
ATOM     20  C   UNL     1      30.843 -11.180 -20.913  0.00  0.00    +0.002 C 
ATOM     21  C   UNL     1      31.726 -11.262 -19.673  0.00  0.00    +0.003 C 
BRANCH  17  22
ATOM     22  O   UNL     1      32.446  -7.581 -19.386  0.00  0.00    -0.383 OA
ATOM     23  H   UNL     1      31.533  -7.267 -19.288  0.00  0.00    +0.210 HD
ENDBRANCH  17  22
ENDBRANCH   2  16
BRANCH  10  24
ATOM     24  C   UNL     1      32.083  -2.223 -24.672  0.00  0.00    +0.054 C 
BRANCH  24  26
ATOM     25  N   UNL     1      28.315  -1.786 -24.644  0.00  0.00    -0.248 NA
ATOM     26  C   UNL     1      30.653  -2.127 -25.157  0.00  0.00    +0.001 C 
ATOM     27  C   UNL     1      30.343  -2.283 -26.504  0.00  0.00    -0.001 C 
ATOM     28  C   UNL     1      29.613  -1.882 -24.275  0.00  0.00    +0.094 C 
ATOM     29  C   UNL     1      29.019  -2.189 -26.922  0.00  0.00    +0.014 C 
ATOM     30  C   UNL     1      28.052  -1.941 -25.961  0.00  0.00    +0.059 C 
ATOM     31  C   UNL     1      26.621  -1.836 -26.373  0.00  0.00    +0.052 C 
ENDBRANCH  24  26
ENDBRANCH  10  24
TORSDOF 4
ENDMDL
MODEL 6
REMARK VINA RESULT:     -10.4     14.558     19.825
REMARK  Name = 46207733
REMARK  4 active torsions:
REMARK  status: ('A' for Active; 'I' for Inactive)
REMARK    1  A    between atoms: N_2  and  C_16
REMARK    2  A    between atoms: C_10  and  C_24
REMARK    3  A    between atoms: C_17  and  O_22
REMARK    4  A    between atoms: C_24  and  C_26
REMARK                            x       y       z     vdW  Elec       q    Type
REMARK                         _______ _______ _______ _____ _____    ______ ____
ROOT
ATOM      1  O   UNL     1      33.744  -8.469 -23.558  0.00  0.00    -0.274 OA
ATOM      2  N   UNL     1      32.329  -7.705 -21.875  0.00  0.00    -0.257 N 
ATOM      3  N   UNL     1      31.281  -5.582 -22.045  0.00  0.00    -0.252 NA
ATOM      4  C   UNL     1      33.002  -7.608 -23.093  0.00  0.00    +0.236 C 
ATOM      5  C   UNL     1      31.511  -6.689 -21.423  0.00  0.00    +0.222 C 
ATOM      6  C   UNL     1      32.764  -6.349 -23.838  0.00  0.00    +0.138 C 
ATOM      7  C   UNL     1      31.912  -5.377 -23.290  0.00  0.00    +0.068 C 
ATOM      8  C   UNL     1      31.683  -4.169 -24.002  0.00  0.00    +0.014 C 
ATOM      9  C   UNL     1      33.388  -6.145 -25.070  0.00  0.00    -0.015 C 
ATOM     10  C   UNL     1      33.166  -4.962 -25.768  0.00  0.00    -0.021 C 
ATOM     11  C   UNL     1      32.321  -3.970 -25.252  0.00  0.00    -0.003 C 
ATOM     12  C   UNL     1      30.840  -3.144 -23.518  0.00  0.00    +0.001 C 
ATOM     13  C   UNL     1      32.103  -2.780 -25.967  0.00  0.00    -0.000 C 
ATOM     14  C   UNL     1      30.636  -1.968 -24.241  0.00  0.00    +0.000 C 
ATOM     15  C   UNL     1      31.267  -1.786 -25.464  0.00  0.00    -0.000 C 
ENDROOT
BRANCH   2  16
ATOM     16  C   UNL     1      32.493  -8.893 -21.068  0.00  0.00    +0.104 C 
ATOM     17  C   UNL     1      31.569 -10.013 -21.564  0.00  0.00    +0.129 C 
ATOM     18  C   UNL     1      32.241  -8.565 -19.593  0.00  0.00    +0.022 C 
ATOM     19  C   UNL     1      31.637 -11.245 -20.659  0.00  0.00    +0.031 C 
ATOM     20  C   UNL     1      32.320  -9.806 -18.710  0.00  0.00    +0.002 C 
ATOM     21  C   UNL     1      31.376 -10.899 -19.200  0.00  0.00    +0.003 C 
BRANCH  17  22
ATOM     22  O   UNL     1      31.968 -10.392 -22.880  0.00  0.00    -0.383 OA
ATOM     23  H   UNL     1      31.254 -10.192 -23.505  0.00  0.00    +0.210 HD
ENDBRANCH  17  22
ENDBRANCH   2  16
BRANCH  10  24
ATOM     24  C   UNL     1      33.866  -4.808 -27.083  0.00  0.00    +0.054 C 
BRANCH  24  26
ATOM     25  N   UNL     1      36.651  -2.235 -27.009  0.00  0.00    -0.248 NA
ATOM     26  C   UNL     1      35.248  -4.203 -26.969  0.00  0.00    +0.001 C 
ATOM     27  C   UNL     1      36.362  -5.002 -26.731  0.00  0.00    -0.001 C 
ATOM     28  C   UNL     1      35.444  -2.838 -27.099  0.00  0.00    +0.094 C 
ATOM     29  C   UNL     1      37.620  -4.418 -26.632  0.00  0.00    +0.014 C 
ATOM     30  C   UNL     1      37.710  -3.043 -26.777  0.00  0.00    +0.059 C 
ATOM     31  C   UNL     1      39.045  -2.382 -26.676  0.00  0.00    +0.052 C 
ENDBRANCH  24  26
ENDBRANCH  10  24
TORSDOF 4
ENDMDL
MODEL 7
REMARK VINA RESULT:      -9.9      6.033     11.667
REMARK  Name = 46207733
REMARK  4 active torsions:
REMARK  status: ('A' for Active; 'I' for Inactive)
REMARK    1  A    between atoms: N_2  and  C_16
REMARK    2  A    between atoms: C_10  and  C_24
REMARK    3  A    between atoms: C_17  and  O_22
REMARK    4  A    between atoms: C_24  and  C_26
REMARK                            x       y       z     vdW  Elec       q    Type
REMARK                         _______ _______ _______ _____ _____    ______ ____
ROOT
ATOM      1  O   UNL     1      34.907 -16.272 -20.162  0.00  0.00    -0.274 OA
ATOM      2  N   UNL     1      34.916 -18.011 -21.711  0.00  0.00    -0.257 N 
ATOM      3  N   UNL     1      34.476 -17.590 -24.005  0.00  0.00    -0.252 NA
ATOM      4  C   UNL     1      34.779 -16.680 -21.313  0.00  0.00    +0.236 C 
ATOM      5  C   UNL     1      34.757 -18.387 -23.029  0.00  0.00    +0.222 C 
ATOM      6  C   UNL     1      34.455 -15.733 -22.406  0.00  0.00    +0.138 C 
ATOM      7  C   UNL     1      34.313 -16.219 -23.716  0.00  0.00    +0.068 C 
ATOM      8  C   UNL     1      34.003 -15.314 -24.766  0.00  0.00    +0.014 C 
ATOM      9  C   UNL     1      34.294 -14.377 -22.123  0.00  0.00    -0.015 C 
ATOM     10  C   UNL     1      33.989 -13.488 -23.149  0.00  0.00    -0.021 C 
ATOM     11  C   UNL     1      33.841 -13.938 -24.469  0.00  0.00    -0.003 C 
ATOM     12  C   UNL     1      33.845 -15.724 -26.108  0.00  0.00    +0.001 C 
ATOM     13  C   UNL     1      33.533 -13.031 -25.497  0.00  0.00    -0.000 C 
ATOM     14  C   UNL     1      33.538 -14.810 -27.118  0.00  0.00    +0.000 C 
ATOM     15  C   UNL     1      33.382 -13.464 -26.812  0.00  0.00    -0.000 C 
ENDROOT
BRANCH   2  16
ATOM     16  C   UNL     1      35.231 -19.016 -20.720  0.00  0.00    +0.104 C 
ATOM     17  C   UNL     1      36.586 -19.668 -21.026  0.00  0.00    +0.129 C 
ATOM     18  C   UNL     1      34.108 -20.055 -20.652  0.00  0.00    +0.022 C 
ATOM     19  C   UNL     1      36.893 -20.815 -20.061  0.00  0.00    +0.031 C 
ATOM     20  C   UNL     1      34.432 -21.184 -19.679  0.00  0.00    +0.002 C 
ATOM     21  C   UNL     1      35.768 -21.840 -20.014  0.00  0.00    +0.003 C 
BRANCH  17  22
ATOM     22  O   UNL     1      37.611 -18.683 -20.903  0.00  0.00    -0.383 OA
ATOM     23  H   UNL     1      37.218 -17.840 -20.628  0.00  0.00    +0.210 HD
ENDBRANCH  17  22
ENDBRANCH   2  16
BRANCH  10  24
ATOM     24  C   UNL     1      33.830 -12.047 -22.775  0.00  0.00    +0.054 C 
BRANCH  24  26
ATOM     25  N   UNL     1      31.274 -10.320 -20.567  0.00  0.00    -0.248 NA
ATOM     26  C   UNL     1      32.827 -11.812 -21.667  0.00  0.00    +0.001 C 
ATOM     27  C   UNL     1      32.527 -12.814 -20.749  0.00  0.00    -0.001 C 
ATOM     28  C   UNL     1      32.179 -10.595 -21.534  0.00  0.00    +0.094 C 
ATOM     29  C   UNL     1      31.601 -12.570 -19.741  0.00  0.00    +0.014 C 
ATOM     30  C   UNL     1      31.007 -11.318 -19.694  0.00  0.00    +0.059 C 
ATOM     31  C   UNL     1      30.009 -11.020 -18.624  0.00  0.00    +0.052 C 
ENDBRANCH  24  26
ENDBRANCH  10  24
TORSDOF 4
ENDMDL
MODEL 8
REMARK VINA RESULT:      -9.9      2.350      8.025
REMARK  Name = 46207733
REMARK  4 active torsions:
REMARK  status: ('A' for Active; 'I' for Inactive)
REMARK    1  A    between atoms: N_2  and  C_16
REMARK    2  A    between atoms: C_10  and  C_24
REMARK    3  A    between atoms: C_17  and  O_22
REMARK    4  A    between atoms: C_24  and  C_26
REMARK                            x       y       z     vdW  Elec       q    Type
REMARK                         _______ _______ _______ _____ _____    ______ ____
ROOT
ATOM      1  O   UNL     1      38.611 -22.777 -16.277  0.00  0.00    -0.274 OA
ATOM      2  N   UNL     1      36.641 -23.624 -15.371  0.00  0.00    -0.257 N 
ATOM      3  N   UNL     1      34.555 -23.245 -16.438  0.00  0.00    -0.252 NA
ATOM      4  C   UNL     1      37.392 -22.923 -16.315  0.00  0.00    +0.236 C 
ATOM      5  C   UNL     1      35.271 -23.743 -15.487  0.00  0.00    +0.222 C 
ATOM      6  C   UNL     1      36.605 -22.334 -17.424  0.00  0.00    +0.138 C 
ATOM      7  C   UNL     1      35.213 -22.514 -17.449  0.00  0.00    +0.068 C 
ATOM      8  C   UNL     1      34.457 -21.951 -18.511  0.00  0.00    +0.014 C 
ATOM      9  C   UNL     1      37.254 -21.611 -18.426  0.00  0.00    -0.015 C 
ATOM     10  C   UNL     1      36.516 -21.058 -19.466  0.00  0.00    -0.021 C 
ATOM     11  C   UNL     1      35.124 -21.217 -19.524  0.00  0.00    -0.003 C 
ATOM     12  C   UNL     1      33.054 -22.086 -18.608  0.00  0.00    +0.001 C 
ATOM     13  C   UNL     1      34.388 -20.653 -20.581  0.00  0.00    -0.000 C 
ATOM     14  C   UNL     1      32.338 -21.520 -19.664  0.00  0.00    +0.000 C 
ATOM     15  C   UNL     1      33.005 -20.804 -20.650  0.00  0.00    -0.000 C 
ENDROOT
BRANCH   2  16
ATOM     16  C   UNL     1      37.312 -24.238 -14.246  0.00  0.00    +0.104 C 
ATOM     17  C   UNL     1      37.017 -25.743 -14.197  0.00  0.00    +0.129 C 
ATOM     18  C   UNL     1      36.902 -23.540 -12.946  0.00  0.00    +0.022 C 
ATOM     19  C   UNL     1      37.620 -26.398 -12.953  0.00  0.00    +0.031 C 
ATOM     20  C   UNL     1      37.520 -24.205 -11.721  0.00  0.00    +0.002 C 
ATOM     21  C   UNL     1      37.194 -25.694 -11.672  0.00  0.00    +0.003 C 
BRANCH  17  22
ATOM     22  O   UNL     1      37.577 -26.361 -15.355  0.00  0.00    -0.383 OA
ATOM     23  H   UNL     1      38.322 -26.924 -15.093  0.00  0.00    +0.210 HD
ENDBRANCH  17  22
ENDBRANCH   2  16
BRANCH  10  24
ATOM     24  C   UNL     1      37.275 -20.294 -20.508  0.00  0.00    +0.054 C 
BRANCH  24  26
ATOM     25  N   UNL     1      35.243 -17.102 -20.778  0.00  0.00    -0.248 NA
ATOM     26  C   UNL     1      36.495 -19.144 -21.108  0.00  0.00    +0.001 C 
ATOM     27  C   UNL     1      36.303 -19.050 -22.482  0.00  0.00    -0.001 C 
ATOM     28  C   UNL     1      35.951 -18.154 -20.306  0.00  0.00    +0.094 C 
ATOM     29  C   UNL     1      35.581 -17.982 -23.005  0.00  0.00    +0.014 C 
ATOM     30  C   UNL     1      35.078 -17.043 -22.119  0.00  0.00    +0.059 C 
ATOM     31  C   UNL     1      34.298 -15.884 -22.645  0.00  0.00    +0.052 C 
ENDBRANCH  24  26
ENDBRANCH  10  24
TORSDOF 4
ENDMDL
MODEL 9
REMARK VINA RESULT:      -9.8      1.712      2.810
REMARK  Name = 46207733
REMARK  4 active torsions:
REMARK  status: ('A' for Active; 'I' for Inactive)
REMARK    1  A    between atoms: N_2  and  C_16
REMARK    2  A    between atoms: C_10  and  C_24
REMARK    3  A    between atoms: C_17  and  O_22
REMARK    4  A    between atoms: C_24  and  C_26
REMARK                            x       y       z     vdW  Elec       q    Type
REMARK                         _______ _______ _______ _____ _____    ______ ____
ROOT
ATOM      1  O   UNL     1      37.311 -20.367 -20.183  0.00  0.00    -0.274 OA
ATOM      2  N   UNL     1      35.074 -20.286 -20.823  0.00  0.00    -0.257 N 
ATOM      3  N   UNL     1      33.413 -21.418 -19.561  0.00  0.00    -0.252 NA
ATOM      4  C   UNL     1      36.136 -20.678 -20.007  0.00  0.00    +0.236 C 
ATOM      5  C   UNL     1      33.778 -20.679 -20.554  0.00  0.00    +0.222 C 
ATOM      6  C   UNL     1      35.756 -21.529 -18.855  0.00  0.00    +0.138 C 
ATOM      7  C   UNL     1      34.407 -21.872 -18.670  0.00  0.00    +0.068 C 
ATOM      8  C   UNL     1      34.040 -22.688 -17.567  0.00  0.00    +0.014 C 
ATOM      9  C   UNL     1      36.739 -21.980 -17.973  0.00  0.00    -0.015 C 
ATOM     10  C   UNL     1      36.382 -22.780 -16.892  0.00  0.00    -0.021 C 
ATOM     11  C   UNL     1      35.045 -23.142 -16.676  0.00  0.00    -0.003 C 
ATOM     12  C   UNL     1      32.706 -23.077 -17.313  0.00  0.00    +0.001 C 
ATOM     13  C   UNL     1      34.696 -23.950 -15.581  0.00  0.00    -0.000 C 
ATOM     14  C   UNL     1      32.377 -23.881 -16.220  0.00  0.00    +0.000 C 
ATOM     15  C   UNL     1      33.372 -24.318 -15.355  0.00  0.00    -0.000 C 
ENDROOT
BRANCH   2  16
ATOM     16  C   UNL     1      35.336 -19.454 -21.976  0.00  0.00    +0.104 C 
ATOM     17  C   UNL     1      34.998 -17.989 -21.671  0.00  0.00    +0.129 C 
ATOM     18  C   UNL     1      34.556 -19.974 -23.187  0.00  0.00    +0.022 C 
ATOM     19  C   UNL     1      35.156 -17.102 -22.908  0.00  0.00    +0.031 C 
ATOM     20  C   UNL     1      34.735 -19.079 -24.409  0.00  0.00    +0.002 C 
ATOM     21  C   UNL     1      34.367 -17.632 -24.097  0.00  0.00    +0.003 C 
BRANCH  17  22
ATOM     22  O   UNL     1      35.877 -17.513 -20.653  0.00  0.00    -0.383 OA
ATOM     23  H   UNL     1      36.347 -16.727 -20.973  0.00  0.00    +0.210 HD
ENDBRANCH  17  22
ENDBRANCH   2  16
BRANCH  10  24
ATOM     24  C   UNL     1      37.486 -23.228 -15.985  0.00  0.00    +0.054 C 
BRANCH  24  26
ATOM     25  N   UNL     1      36.196 -23.429 -12.424  0.00  0.00    -0.248 NA
ATOM     26  C   UNL     1      36.999 -23.804 -14.673  0.00  0.00    +0.001 C 
ATOM     27  C   UNL     1      36.903 -25.179 -14.487  0.00  0.00    -0.001 C 
ATOM     28  C   UNL     1      36.637 -22.979 -13.621  0.00  0.00    +0.094 C 
ATOM     29  C   UNL     1      36.453 -25.679 -13.270  0.00  0.00    +0.014 C 
ATOM     30  C   UNL     1      36.114 -24.771 -12.280  0.00  0.00    +0.059 C 
ATOM     31  C   UNL     1      35.628 -25.272 -10.960  0.00  0.00    +0.052 C 
ENDBRANCH  24  26
ENDBRANCH  10  24
TORSDOF 4
ENDMDL
