MODEL 1
REMARK VINA RESULT:     -11.6      0.000      0.000
REMARK  Name = 9911830
REMARK  5 active torsions:
REMARK  status: ('A' for Active; 'I' for Inactive)
REMARK    1  A    between atoms: C_2  and  O_20
REMARK    2  A    between atoms: C_3  and  N_10
REMARK    3  A    between atoms: O_20  and  C_24
REMARK    4  A    between atoms: C_26  and  O_31
REMARK    5  A    between atoms: C_28  and  O_33
REMARK                            x       y       z     vdW  Elec       q    Type
REMARK                         _______ _______ _______ _____ _____    ______ ____
ROOT
ATOM      1 CL   UNL     1      37.543 -19.314 -20.891  0.00  0.00    -0.081 Cl
ATOM      2  C   UNL     1      35.140 -21.957 -19.146  0.00  0.00    +0.146 C 
ATOM      3  C   UNL     1      34.858 -19.799 -20.856  0.00  0.00    +0.062 C 
ATOM      4  C   UNL     1      36.266 -21.259 -19.544  0.00  0.00    +0.050 C 
ATOM      5  C   UNL     1      33.875 -21.601 -19.584  0.00  0.00    +0.039 C 
ATOM      6  C   UNL     1      36.125 -20.172 -20.406  0.00  0.00    +0.074 C 
ATOM      7  C   UNL     1      33.734 -20.515 -20.446  0.00  0.00    +0.019 C 
ENDROOT
BRANCH   3  10
ATOM      8  O   UNL     1      34.311 -13.110 -22.219  0.00  0.00    -0.357 OA
ATOM      9  O   UNL     1      34.775 -16.869 -20.284  0.00  0.00    -0.252 OA
ATOM     10  N   UNL     1      34.682 -18.715 -21.722  0.00  0.00    -0.267 N 
ATOM     11  N   UNL     1      34.451 -16.587 -22.582  0.00  0.00    -0.251 N 
ATOM     12  N   UNL     1      34.454 -14.379 -21.672  0.00  0.00    -0.062 NA
ATOM     13  C   UNL     1      34.649 -17.335 -21.411  0.00  0.00    +0.309 C 
ATOM     14  C   UNL     1      34.357 -15.181 -22.713  0.00  0.00    +0.177 C 
ATOM     15  C   UNL     1      34.159 -14.539 -23.924  0.00  0.00    +0.073 C 
ATOM     16  C   UNL     1      34.136 -13.218 -23.562  0.00  0.00    +0.156 C 
ATOM     17  C   UNL     1      33.967 -11.963 -24.304  0.00  0.00    +0.075 C 
ATOM     18  H   UNL     1      34.567 -18.942 -22.673  0.00  0.00    +0.156 HD
ATOM     19  H   UNL     1      34.367 -17.104 -23.417  0.00  0.00    +0.158 HD
ENDBRANCH   3  10
BRANCH   2  20
ATOM     20  O   UNL     1      35.278 -23.034 -18.290  0.00  0.00    -0.453 OA
BRANCH  20  24
ATOM     21  N   UNL     1      32.460 -23.398 -15.270  0.00  0.00    -0.244 NA
ATOM     22  C   UNL     1      34.770 -23.363 -15.952  0.00  0.00    +0.055 C 
ATOM     23  C   UNL     1      33.769 -23.479 -14.967  0.00  0.00    +0.087 C 
ATOM     24  C   UNL     1      34.369 -23.157 -17.280  0.00  0.00    +0.148 C 
ATOM     25  C   UNL     1      36.128 -23.452 -15.599  0.00  0.00    +0.045 C 
ATOM     26  C   UNL     1      36.499 -23.656 -14.274  0.00  0.00    +0.173 C 
ATOM     27  C   UNL     1      34.168 -23.683 -13.648  0.00  0.00    +0.059 C 
ATOM     28  C   UNL     1      35.517 -23.772 -13.298  0.00  0.00    +0.174 C 
ATOM     29  C   UNL     1      33.021 -23.074 -17.596  0.00  0.00    +0.058 C 
ATOM     30  C   UNL     1      32.114 -23.199 -16.563  0.00  0.00    +0.102 C 
BRANCH  26  31
ATOM     31  O   UNL     1      37.819 -23.740 -13.948  0.00  0.00    -0.468 OA
ATOM     32  C   UNL     1      38.480 -24.972 -14.232  0.00  0.00    +0.253 C 
ENDBRANCH  26  31
BRANCH  28  33
ATOM     33  O   UNL     1      35.858 -23.972 -11.993  0.00  0.00    -0.468 OA
ATOM     34  C   UNL     1      35.914 -25.322 -11.537  0.00  0.00    +0.253 C 
ENDBRANCH  28  33
ENDBRANCH  20  24
ENDBRANCH   2  20
TORSDOF 5
ENDMDL
MODEL 2
REMARK VINA RESULT:     -11.6      2.299      3.291
REMARK  Name = 9911830
REMARK  5 active torsions:
REMARK  status: ('A' for Active; 'I' for Inactive)
REMARK    1  A    between atoms: C_2  and  O_20
REMARK    2  A    between atoms: C_3  and  N_10
REMARK    3  A    between atoms: O_20  and  C_24
REMARK    4  A    between atoms: C_26  and  O_31
REMARK    5  A    between atoms: C_28  and  O_33
REMARK                            x       y       z     vdW  Elec       q    Type
REMARK                         _______ _______ _______ _____ _____    ______ ____
ROOT
ATOM      1 CL   UNL     1      37.578 -18.877 -21.265  0.00  0.00    -0.081 Cl
ATOM      2  C   UNL     1      35.213 -21.608 -19.606  0.00  0.00    +0.146 C 
ATOM      3  C   UNL     1      34.888 -19.208 -20.944  0.00  0.00    +0.062 C 
ATOM      4  C   UNL     1      36.332 -20.924 -20.046  0.00  0.00    +0.050 C 
ATOM      5  C   UNL     1      33.935 -21.121 -19.818  0.00  0.00    +0.039 C 
ATOM      6  C   UNL     1      36.169 -19.715 -20.721  0.00  0.00    +0.074 C 
ATOM      7  C   UNL     1      33.772 -19.912 -20.493  0.00  0.00    +0.019 C 
ENDROOT
BRANCH   3  10
ATOM      8  O   UNL     1      33.826 -15.483 -26.591  0.00  0.00    -0.357 OA
ATOM      9  O   UNL     1      34.473 -18.672 -23.853  0.00  0.00    -0.252 OA
ATOM     10  N   UNL     1      34.690 -17.999 -21.619  0.00  0.00    -0.267 N 
ATOM     11  N   UNL     1      34.333 -16.415 -23.257  0.00  0.00    -0.251 N 
ATOM     12  N   UNL     1      34.039 -16.460 -25.627  0.00  0.00    -0.062 NA
ATOM     13  C   UNL     1      34.494 -17.786 -23.004  0.00  0.00    +0.309 C 
ATOM     14  C   UNL     1      34.116 -15.778 -24.502  0.00  0.00    +0.177 C 
ATOM     15  C   UNL     1      33.970 -14.408 -24.643  0.00  0.00    +0.073 C 
ATOM     16  C   UNL     1      33.786 -14.264 -25.993  0.00  0.00    +0.156 C 
ATOM     17  C   UNL     1      33.567 -13.109 -26.872  0.00  0.00    +0.075 C 
ATOM     18  H   UNL     1      34.683 -17.192 -21.057  0.00  0.00    +0.156 HD
ATOM     19  H   UNL     1      34.376 -15.822 -22.471  0.00  0.00    +0.158 HD
ENDBRANCH   3  10
BRANCH   2  20
ATOM     20  O   UNL     1      35.374 -22.807 -18.934  0.00  0.00    -0.453 OA
BRANCH  20  24
ATOM     21  N   UNL     1      36.423 -22.610 -14.927  0.00  0.00    -0.244 NA
ATOM     22  C   UNL     1      34.766 -23.077 -16.613  0.00  0.00    +0.055 C 
ATOM     23  C   UNL     1      35.178 -22.992 -15.267  0.00  0.00    +0.087 C 
ATOM     24  C   UNL     1      35.696 -22.749 -17.609  0.00  0.00    +0.148 C 
ATOM     25  C   UNL     1      33.458 -23.480 -16.931  0.00  0.00    +0.045 C 
ATOM     26  C   UNL     1      32.555 -23.800 -15.922  0.00  0.00    +0.173 C 
ATOM     27  C   UNL     1      34.254 -23.318 -14.277  0.00  0.00    +0.059 C 
ATOM     28  C   UNL     1      32.954 -23.719 -14.594  0.00  0.00    +0.174 C 
ATOM     29  C   UNL     1      36.980 -22.355 -17.262  0.00  0.00    +0.058 C 
ATOM     30  C   UNL     1      37.290 -22.302 -15.919  0.00  0.00    +0.102 C 
BRANCH  26  31
ATOM     31  O   UNL     1      31.290 -24.190 -16.247  0.00  0.00    -0.468 OA
ATOM     32  C   UNL     1      30.265 -23.202 -16.164  0.00  0.00    +0.253 C 
ENDBRANCH  26  31
BRANCH  28  33
ATOM     33  O   UNL     1      32.086 -24.028 -13.589  0.00  0.00    -0.468 OA
ATOM     34  C   UNL     1      31.956 -25.406 -13.246  0.00  0.00    +0.253 C 
ENDBRANCH  28  33
ENDBRANCH  20  24
ENDBRANCH   2  20
TORSDOF 5
ENDMDL
MODEL 3
REMARK VINA RESULT:     -11.5      1.493      2.390
REMARK  Name = 9911830
REMARK  5 active torsions:
REMARK  status: ('A' for Active; 'I' for Inactive)
REMARK    1  A    between atoms: C_2  and  O_20
REMARK    2  A    between atoms: C_3  and  N_10
REMARK    3  A    between atoms: O_20  and  C_24
REMARK    4  A    between atoms: C_26  and  O_31
REMARK    5  A    between atoms: C_28  and  O_33
REMARK                            x       y       z     vdW  Elec       q    Type
REMARK                         _______ _______ _______ _____ _____    ______ ____
ROOT
ATOM      1 CL   UNL     1      37.385 -19.497 -20.941  0.00  0.00    -0.081 Cl
ATOM      2  C   UNL     1      34.818 -21.889 -19.071  0.00  0.00    +0.146 C 
ATOM      3  C   UNL     1      34.671 -19.772 -20.847  0.00  0.00    +0.062 C 
ATOM      4  C   UNL     1      35.987 -21.293 -19.509  0.00  0.00    +0.050 C 
ATOM      5  C   UNL     1      33.577 -21.452 -19.500  0.00  0.00    +0.039 C 
ATOM      6  C   UNL     1      35.914 -20.227 -20.405  0.00  0.00    +0.074 C 
ATOM      7  C   UNL     1      33.504 -20.386 -20.396  0.00  0.00    +0.019 C 
ENDROOT
BRANCH   3  10
ATOM      8  O   UNL     1      34.271 -13.112 -22.388  0.00  0.00    -0.357 OA
ATOM      9  O   UNL     1      34.573 -16.830 -20.345  0.00  0.00    -0.252 OA
ATOM     10  N   UNL     1      34.563 -18.707 -21.747  0.00  0.00    -0.267 N 
ATOM     11  N   UNL     1      34.408 -16.597 -22.665  0.00  0.00    -0.251 N 
ATOM     12  N   UNL     1      34.367 -14.369 -21.805  0.00  0.00    -0.062 NA
ATOM     13  C   UNL     1      34.521 -17.320 -21.468  0.00  0.00    +0.309 C 
ATOM     14  C   UNL     1      34.335 -15.193 -22.832  0.00  0.00    +0.177 C 
ATOM     15  C   UNL     1      34.224 -14.576 -24.068  0.00  0.00    +0.073 C 
ATOM     16  C   UNL     1      34.187 -13.248 -23.736  0.00  0.00    +0.156 C 
ATOM     17  C   UNL     1      34.079 -12.008 -24.515  0.00  0.00    +0.075 C 
ATOM     18  H   UNL     1      34.511 -18.953 -22.698  0.00  0.00    +0.156 HD
ATOM     19  H   UNL     1      34.377 -17.131 -23.493  0.00  0.00    +0.158 HD
ENDBRANCH   3  10
BRANCH   2  20
ATOM     20  O   UNL     1      34.890 -22.946 -18.181  0.00  0.00    -0.453 OA
BRANCH  20  24
ATOM     21  N   UNL     1      37.492 -22.515 -14.982  0.00  0.00    -0.244 NA
ATOM     22  C   UNL     1      35.379 -23.291 -15.842  0.00  0.00    +0.055 C 
ATOM     23  C   UNL     1      36.303 -23.117 -14.791  0.00  0.00    +0.087 C 
ATOM     24  C   UNL     1      35.730 -22.815 -17.113  0.00  0.00    +0.148 C 
ATOM     25  C   UNL     1      34.146 -23.923 -15.606  0.00  0.00    +0.045 C 
ATOM     26  C   UNL     1      33.824 -24.386 -14.334  0.00  0.00    +0.173 C 
ATOM     27  C   UNL     1      35.955 -23.589 -13.528  0.00  0.00    +0.059 C 
ATOM     28  C   UNL     1      34.730 -24.218 -13.294  0.00  0.00    +0.174 C 
ATOM     29  C   UNL     1      36.954 -22.195 -17.313  0.00  0.00    +0.058 C 
ATOM     30  C   UNL     1      37.792 -22.071 -16.224  0.00  0.00    +0.102 C 
BRANCH  26  31
ATOM     31  O   UNL     1      32.626 -24.998 -14.123  0.00  0.00    -0.468 OA
ATOM     32  C   UNL     1      31.501 -24.155 -13.880  0.00  0.00    +0.253 C 
ENDBRANCH  26  31
BRANCH  28  33
ATOM     33  O   UNL     1      34.435 -24.664 -12.040  0.00  0.00    -0.468 OA
ATOM     34  C   UNL     1      35.530 -25.071 -11.223  0.00  0.00    +0.253 C 
ENDBRANCH  28  33
ENDBRANCH  20  24
ENDBRANCH   2  20
TORSDOF 5
ENDMDL
MODEL 4
REMARK VINA RESULT:     -11.2      1.912      2.930
REMARK  Name = 9911830
REMARK  5 active torsions:
REMARK  status: ('A' for Active; 'I' for Inactive)
REMARK    1  A    between atoms: C_2  and  O_20
REMARK    2  A    between atoms: C_3  and  N_10
REMARK    3  A    between atoms: O_20  and  C_24
REMARK    4  A    between atoms: C_26  and  O_31
REMARK    5  A    between atoms: C_28  and  O_33
REMARK                            x       y       z     vdW  Elec       q    Type
REMARK                         _______ _______ _______ _____ _____    ______ ____
ROOT
ATOM      1 CL   UNL     1      37.689 -19.074 -21.069  0.00  0.00    -0.081 Cl
ATOM      2  C   UNL     1      34.973 -21.627 -19.685  0.00  0.00    +0.146 C 
ATOM      3  C   UNL     1      34.966 -19.253 -21.108  0.00  0.00    +0.062 C 
ATOM      4  C   UNL     1      36.178 -21.016 -19.985  0.00  0.00    +0.050 C 
ATOM      5  C   UNL     1      33.765 -21.078 -20.079  0.00  0.00    +0.039 C 
ATOM      6  C   UNL     1      36.175 -19.820 -20.703  0.00  0.00    +0.074 C 
ATOM      7  C   UNL     1      33.762 -19.883 -20.797  0.00  0.00    +0.019 C 
ENDROOT
BRANCH   3  10
ATOM      8  O   UNL     1      33.234 -12.678 -21.926  0.00  0.00    -0.357 OA
ATOM      9  O   UNL     1      33.766 -16.612 -20.398  0.00  0.00    -0.252 OA
ATOM     10  N   UNL     1      34.928 -18.056 -21.830  0.00  0.00    -0.267 N 
ATOM     11  N   UNL     1      34.538 -15.877 -22.479  0.00  0.00    -0.251 N 
ATOM     12  N   UNL     1      33.454 -13.984 -21.506  0.00  0.00    -0.062 NA
ATOM     13  C   UNL     1      34.348 -16.820 -21.457  0.00  0.00    +0.309 C 
ATOM     14  C   UNL     1      34.116 -14.527 -22.508  0.00  0.00    +0.177 C 
ATOM     15  C   UNL     1      34.356 -13.675 -23.574  0.00  0.00    +0.073 C 
ATOM     16  C   UNL     1      33.776 -12.506 -23.159  0.00  0.00    +0.156 C 
ATOM     17  C   UNL     1      33.634 -11.173 -23.757  0.00  0.00    +0.075 C 
ATOM     18  H   UNL     1      35.364 -18.075 -22.712  0.00  0.00    +0.156 HD
ATOM     19  H   UNL     1      35.027 -16.193 -23.274  0.00  0.00    +0.158 HD
ENDBRANCH   3  10
BRANCH   2  20
ATOM     20  O   UNL     1      34.975 -22.812 -18.972  0.00  0.00    -0.453 OA
BRANCH  20  24
ATOM     21  N   UNL     1      36.212 -22.632 -15.018  0.00  0.00    -0.244 NA
ATOM     22  C   UNL     1      34.477 -23.092 -16.625  0.00  0.00    +0.055 C 
ATOM     23  C   UNL     1      34.952 -23.013 -15.300  0.00  0.00    +0.087 C 
ATOM     24  C   UNL     1      35.359 -22.760 -17.663  0.00  0.00    +0.148 C 
ATOM     25  C   UNL     1      33.155 -23.495 -16.883  0.00  0.00    +0.045 C 
ATOM     26  C   UNL     1      32.301 -23.820 -15.834  0.00  0.00    +0.173 C 
ATOM     27  C   UNL     1      34.076 -23.344 -14.269  0.00  0.00    +0.059 C 
ATOM     28  C   UNL     1      32.763 -23.744 -14.526  0.00  0.00    +0.174 C 
ATOM     29  C   UNL     1      36.658 -22.366 -17.376  0.00  0.00    +0.058 C 
ATOM     30  C   UNL     1      37.032 -22.319 -16.048  0.00  0.00    +0.102 C 
BRANCH  26  31
ATOM     31  O   UNL     1      31.023 -24.208 -16.101  0.00  0.00    -0.468 OA
ATOM     32  C   UNL     1      30.020 -23.195 -16.087  0.00  0.00    +0.253 C 
ENDBRANCH  26  31
BRANCH  28  33
ATOM     33  O   UNL     1      31.943 -24.058 -13.483  0.00  0.00    -0.468 OA
ATOM     34  C   UNL     1      31.852 -25.435 -13.122  0.00  0.00    +0.253 C 
ENDBRANCH  28  33
ENDBRANCH  20  24
ENDBRANCH   2  20
TORSDOF 5
ENDMDL
MODEL 5
REMARK VINA RESULT:     -11.2      1.511      1.675
REMARK  Name = 9911830
REMARK  5 active torsions:
REMARK  status: ('A' for Active; 'I' for Inactive)
REMARK    1  A    between atoms: C_2  and  O_20
REMARK    2  A    between atoms: C_3  and  N_10
REMARK    3  A    between atoms: O_20  and  C_24
REMARK    4  A    between atoms: C_26  and  O_31
REMARK    5  A    between atoms: C_28  and  O_33
REMARK                            x       y       z     vdW  Elec       q    Type
REMARK                         _______ _______ _______ _____ _____    ______ ____
ROOT
ATOM      1 CL   UNL     1      37.584 -19.172 -20.740  0.00  0.00    -0.081 Cl
ATOM      2  C   UNL     1      35.044 -21.875 -19.310  0.00  0.00    +0.146 C 
ATOM      3  C   UNL     1      34.875 -19.501 -20.721  0.00  0.00    +0.062 C 
ATOM      4  C   UNL     1      36.206 -21.198 -19.633  0.00  0.00    +0.050 C 
ATOM      5  C   UNL     1      33.799 -21.393 -19.675  0.00  0.00    +0.039 C 
ATOM      6  C   UNL     1      36.121 -20.002 -20.345  0.00  0.00    +0.074 C 
ATOM      7  C   UNL     1      33.714 -20.197 -20.387  0.00  0.00    +0.019 C 
ENDROOT
BRANCH   3  10
ATOM      8  O   UNL     1      33.825 -15.909 -26.456  0.00  0.00    -0.357 OA
ATOM      9  O   UNL     1      34.325 -19.038 -23.620  0.00  0.00    -0.252 OA
ATOM     10  N   UNL     1      34.755 -18.305 -21.437  0.00  0.00    -0.267 N 
ATOM     11  N   UNL     1      34.454 -16.758 -23.121  0.00  0.00    -0.251 N 
ATOM     12  N   UNL     1      34.001 -16.864 -25.463  0.00  0.00    -0.062 NA
ATOM     13  C   UNL     1      34.492 -18.127 -22.816  0.00  0.00    +0.309 C 
ATOM     14  C   UNL     1      34.221 -16.151 -24.378  0.00  0.00    +0.177 C 
ATOM     15  C   UNL     1      34.204 -14.779 -24.572  0.00  0.00    +0.073 C 
ATOM     16  C   UNL     1      33.948 -14.670 -25.912  0.00  0.00    +0.156 C 
ATOM     17  C   UNL     1      33.789 -13.534 -26.828  0.00  0.00    +0.075 C 
ATOM     18  H   UNL     1      34.867 -17.480 -20.913  0.00  0.00    +0.156 HD
ATOM     19  H   UNL     1      34.608 -16.142 -22.367  0.00  0.00    +0.158 HD
ENDBRANCH   3  10
BRANCH   2  20
ATOM     20  O   UNL     1      35.126 -23.061 -18.602  0.00  0.00    -0.453 OA
BRANCH  20  24
ATOM     21  N   UNL     1      32.644 -23.461 -15.305  0.00  0.00    -0.244 NA
ATOM     22  C   UNL     1      34.870 -23.374 -16.221  0.00  0.00    +0.055 C 
ATOM     23  C   UNL     1      33.979 -23.504 -15.137  0.00  0.00    +0.087 C 
ATOM     24  C   UNL     1      34.329 -23.195 -17.502  0.00  0.00    +0.148 C 
ATOM     25  C   UNL     1      36.259 -23.424 -16.009  0.00  0.00    +0.045 C 
ATOM     26  C   UNL     1      36.770 -23.602 -14.727  0.00  0.00    +0.173 C 
ATOM     27  C   UNL     1      34.517 -23.682 -13.865  0.00  0.00    +0.059 C 
ATOM     28  C   UNL     1      35.897 -23.732 -13.654  0.00  0.00    +0.174 C 
ATOM     29  C   UNL     1      32.954 -23.151 -17.678  0.00  0.00    +0.058 C 
ATOM     30  C   UNL     1      32.162 -23.287 -16.557  0.00  0.00    +0.102 C 
BRANCH  26  31
ATOM     31  O   UNL     1      38.118 -23.648 -14.539  0.00  0.00    -0.468 OA
ATOM     32  C   UNL     1      38.746 -24.924 -14.649  0.00  0.00    +0.253 C 
ENDBRANCH  26  31
BRANCH  28  33
ATOM     33  O   UNL     1      36.375 -23.907 -12.390  0.00  0.00    -0.468 OA
ATOM     34  C   UNL     1      36.256 -25.211 -11.826  0.00  0.00    +0.253 C 
ENDBRANCH  28  33
ENDBRANCH  20  24
ENDBRANCH   2  20
TORSDOF 5
ENDMDL
MODEL 6
REMARK VINA RESULT:     -11.1      2.620     11.200
REMARK  Name = 9911830
REMARK  5 active torsions:
REMARK  status: ('A' for Active; 'I' for Inactive)
REMARK    1  A    between atoms: C_2  and  O_20
REMARK    2  A    between atoms: C_3  and  N_10
REMARK    3  A    between atoms: O_20  and  C_24
REMARK    4  A    between atoms: C_26  and  O_31
REMARK    5  A    between atoms: C_28  and  O_33
REMARK                            x       y       z     vdW  Elec       q    Type
REMARK                         _______ _______ _______ _____ _____    ______ ____
ROOT
ATOM      1 CL   UNL     1      33.331 -21.743 -19.387  0.00  0.00    -0.081 Cl
ATOM      2  C   UNL     1      36.047 -19.266 -20.902  0.00  0.00    +0.146 C 
ATOM      3  C   UNL     1      36.015 -21.351 -19.082  0.00  0.00    +0.062 C 
ATOM      4  C   UNL     1      34.851 -19.905 -20.629  0.00  0.00    +0.050 C 
ATOM      5  C   UNL     1      37.228 -19.645 -20.287  0.00  0.00    +0.039 C 
ATOM      6  C   UNL     1      34.834 -20.957 -19.713  0.00  0.00    +0.074 C 
ATOM      7  C   UNL     1      37.211 -20.696 -19.371  0.00  0.00    +0.019 C 
ENDROOT
BRANCH   3  10
ATOM      8  O   UNL     1      37.842 -24.214 -13.136  0.00  0.00    -0.357 OA
ATOM      9  O   UNL     1      37.321 -21.542 -16.404  0.00  0.00    -0.252 OA
ATOM     10  N   UNL     1      36.033 -22.403 -18.160  0.00  0.00    -0.267 N 
ATOM     11  N   UNL     1      36.430 -23.701 -16.296  0.00  0.00    -0.251 N 
ATOM     12  N   UNL     1      37.619 -23.408 -14.246  0.00  0.00    -0.062 NA
ATOM     13  C   UNL     1      36.664 -22.454 -16.896  0.00  0.00    +0.309 C 
ATOM     14  C   UNL     1      36.881 -24.161 -15.036  0.00  0.00    +0.177 C 
ATOM     15  C   UNL     1      36.590 -25.419 -14.534  0.00  0.00    +0.073 C 
ATOM     16  C   UNL     1      37.224 -25.410 -13.320  0.00  0.00    +0.156 C 
ATOM     17  C   UNL     1      37.357 -26.390 -12.235  0.00  0.00    +0.075 C 
ATOM     18  H   UNL     1      35.539 -23.212 -18.425  0.00  0.00    +0.156 HD
ATOM     19  H   UNL     1      35.882 -24.335 -16.815  0.00  0.00    +0.158 HD
ENDBRANCH   3  10
BRANCH   2  20
ATOM     20  O   UNL     1      36.065 -18.222 -21.809  0.00  0.00    -0.453 OA
BRANCH  20  24
ATOM     21  N   UNL     1      33.840 -18.732 -25.272  0.00  0.00    -0.244 NA
ATOM     22  C   UNL     1      34.746 -17.263 -23.591  0.00  0.00    +0.055 C 
ATOM     23  C   UNL     1      34.001 -17.495 -24.764  0.00  0.00    +0.087 C 
ATOM     24  C   UNL     1      35.328 -18.365 -22.950  0.00  0.00    +0.148 C 
ATOM     25  C   UNL     1      34.893 -15.958 -23.089  0.00  0.00    +0.045 C 
ATOM     26  C   UNL     1      34.305 -14.881 -23.746  0.00  0.00    +0.173 C 
ATOM     27  C   UNL     1      33.422 -16.400 -25.401  0.00  0.00    +0.059 C 
ATOM     28  C   UNL     1      33.569 -15.103 -24.903  0.00  0.00    +0.174 C 
ATOM     29  C   UNL     1      35.164 -19.641 -23.469  0.00  0.00    +0.058 C 
ATOM     30  C   UNL     1      34.418 -19.769 -24.623  0.00  0.00    +0.102 C 
BRANCH  26  31
ATOM     31  O   UNL     1      34.457 -13.623 -23.247  0.00  0.00    -0.468 OA
ATOM     32  C   UNL     1      33.395 -13.109 -22.445  0.00  0.00    +0.253 C 
ENDBRANCH  26  31
BRANCH  28  33
ATOM     33  O   UNL     1      32.985 -14.063 -25.562  0.00  0.00    -0.468 OA
ATOM     34  C   UNL     1      33.575 -13.664 -26.797  0.00  0.00    +0.253 C 
ENDBRANCH  28  33
ENDBRANCH  20  24
ENDBRANCH   2  20
TORSDOF 5
ENDMDL
MODEL 7
REMARK VINA RESULT:     -11.0      2.443     11.172
REMARK  Name = 9911830
REMARK  5 active torsions:
REMARK  status: ('A' for Active; 'I' for Inactive)
REMARK    1  A    between atoms: C_2  and  O_20
REMARK    2  A    between atoms: C_3  and  N_10
REMARK    3  A    between atoms: O_20  and  C_24
REMARK    4  A    between atoms: C_26  and  O_31
REMARK    5  A    between atoms: C_28  and  O_33
REMARK                            x       y       z     vdW  Elec       q    Type
REMARK                         _______ _______ _______ _____ _____    ______ ____
ROOT
ATOM      1 CL   UNL     1      33.029 -21.873 -19.109  0.00  0.00    -0.081 Cl
ATOM      2  C   UNL     1      35.297 -19.401 -21.243  0.00  0.00    +0.146 C 
ATOM      3  C   UNL     1      35.703 -21.384 -19.355  0.00  0.00    +0.062 C 
ATOM      4  C   UNL     1      34.204 -20.061 -20.711  0.00  0.00    +0.050 C 
ATOM      5  C   UNL     1      36.589 -19.710 -20.854  0.00  0.00    +0.039 C 
ATOM      6  C   UNL     1      34.408 -21.060 -19.760  0.00  0.00    +0.074 C 
ATOM      7  C   UNL     1      36.793 -20.709 -19.903  0.00  0.00    +0.019 C 
ENDROOT
BRANCH   3  10
ATOM      8  O   UNL     1      37.989 -23.613 -13.297  0.00  0.00    -0.357 OA
ATOM      9  O   UNL     1      36.944 -21.206 -16.645  0.00  0.00    -0.252 OA
ATOM     10  N   UNL     1      35.942 -22.382 -18.406  0.00  0.00    -0.267 N 
ATOM     11  N   UNL     1      36.582 -23.512 -16.499  0.00  0.00    -0.251 N 
ATOM     12  N   UNL     1      37.614 -22.905 -14.432  0.00  0.00    -0.062 NA
ATOM     13  C   UNL     1      36.534 -22.257 -17.127  0.00  0.00    +0.309 C 
ATOM     14  C   UNL     1      37.094 -23.826 -15.218  0.00  0.00    +0.177 C 
ATOM     15  C   UNL     1      37.094 -25.106 -14.689  0.00  0.00    +0.073 C 
ATOM     16  C   UNL     1      37.674 -24.923 -13.462  0.00  0.00    +0.156 C 
ATOM     17  C   UNL     1      38.004 -25.822 -12.349  0.00  0.00    +0.075 C 
ATOM     18  H   UNL     1      35.660 -23.290 -18.660  0.00  0.00    +0.156 HD
ATOM     19  H   UNL     1      36.213 -24.267 -17.013  0.00  0.00    +0.158 HD
ENDBRANCH   3  10
BRANCH   2  20
ATOM     20  O   UNL     1      35.096 -18.409 -22.185  0.00  0.00    -0.453 OA
BRANCH  20  24
ATOM     21  N   UNL     1      34.298 -14.610 -20.725  0.00  0.00    -0.244 NA
ATOM     22  C   UNL     1      34.489 -16.108 -22.602  0.00  0.00    +0.055 C 
ATOM     23  C   UNL     1      34.228 -14.838 -22.050  0.00  0.00    +0.087 C 
ATOM     24  C   UNL     1      34.829 -17.150 -21.728  0.00  0.00    +0.148 C 
ATOM     25  C   UNL     1      34.408 -16.310 -23.991  0.00  0.00    +0.045 C 
ATOM     26  C   UNL     1      34.068 -15.258 -24.836  0.00  0.00    +0.173 C 
ATOM     27  C   UNL     1      33.891 -13.803 -22.919  0.00  0.00    +0.059 C 
ATOM     28  C   UNL     1      33.810 -14.003 -24.299  0.00  0.00    +0.174 C 
ATOM     29  C   UNL     1      34.902 -16.919 -20.362  0.00  0.00    +0.058 C 
ATOM     30  C   UNL     1      34.629 -15.642 -19.916  0.00  0.00    +0.102 C 
BRANCH  26  31
ATOM     31  O   UNL     1      33.993 -15.470 -26.180  0.00  0.00    -0.468 OA
ATOM     32  C   UNL     1      32.775 -16.015 -26.684  0.00  0.00    +0.253 C 
ENDBRANCH  26  31
BRANCH  28  33
ATOM     33  O   UNL     1      33.475 -12.959 -25.108  0.00  0.00    -0.468 OA
ATOM     34  C   UNL     1      34.211 -11.749 -24.943  0.00  0.00    +0.253 C 
ENDBRANCH  28  33
ENDBRANCH  20  24
ENDBRANCH   2  20
TORSDOF 5
ENDMDL
MODEL 8
REMARK VINA RESULT:     -11.0      0.976      1.296
REMARK  Name = 9911830
REMARK  5 active torsions:
REMARK  status: ('A' for Active; 'I' for Inactive)
REMARK    1  A    between atoms: C_2  and  O_20
REMARK    2  A    between atoms: C_3  and  N_10
REMARK    3  A    between atoms: O_20  and  C_24
REMARK    4  A    between atoms: C_26  and  O_31
REMARK    5  A    between atoms: C_28  and  O_33
REMARK                            x       y       z     vdW  Elec       q    Type
REMARK                         _______ _______ _______ _____ _____    ______ ____
ROOT
ATOM      1 CL   UNL     1      32.320 -20.165 -20.707  0.00  0.00    -0.081 Cl
ATOM      2  C   UNL     1      35.394 -22.019 -18.997  0.00  0.00    +0.146 C 
ATOM      3  C   UNL     1      35.039 -19.931 -20.779  0.00  0.00    +0.062 C 
ATOM      4  C   UNL     1      34.111 -21.656 -19.365  0.00  0.00    +0.050 C 
ATOM      5  C   UNL     1      36.504 -21.362 -19.499  0.00  0.00    +0.039 C 
ATOM      6  C   UNL     1      33.931 -20.604 -20.262  0.00  0.00    +0.074 C 
ATOM      7  C   UNL     1      36.325 -20.310 -20.396  0.00  0.00    +0.019 C 
ENDROOT
BRANCH   3  10
ATOM      8  O   UNL     1      34.220 -13.308 -22.314  0.00  0.00    -0.357 OA
ATOM      9  O   UNL     1      34.701 -17.007 -20.272  0.00  0.00    -0.252 OA
ATOM     10  N   UNL     1      34.893 -18.871 -21.678  0.00  0.00    -0.267 N 
ATOM     11  N   UNL     1      34.625 -16.772 -22.597  0.00  0.00    -0.251 N 
ATOM     12  N   UNL     1      34.381 -14.559 -21.732  0.00  0.00    -0.062 NA
ATOM     13  C   UNL     1      34.736 -17.493 -21.398  0.00  0.00    +0.309 C 
ATOM     14  C   UNL     1      34.456 -15.376 -22.762  0.00  0.00    +0.177 C 
ATOM     15  C   UNL     1      34.356 -14.761 -23.999  0.00  0.00    +0.073 C 
ATOM     16  C   UNL     1      34.207 -13.442 -23.666  0.00  0.00    +0.156 C 
ATOM     17  C   UNL     1      34.044 -12.208 -24.445  0.00  0.00    +0.075 C 
ATOM     18  H   UNL     1      34.903 -19.114 -22.632  0.00  0.00    +0.156 HD
ATOM     19  H   UNL     1      34.671 -17.302 -23.426  0.00  0.00    +0.158 HD
ENDBRANCH   3  10
BRANCH   2  20
ATOM     20  O   UNL     1      35.574 -23.064 -18.108  0.00  0.00    -0.453 OA
BRANCH  20  24
ATOM     21  N   UNL     1      32.668 -23.555 -15.191  0.00  0.00    -0.244 NA
ATOM     22  C   UNL     1      34.998 -23.435 -15.793  0.00  0.00    +0.055 C 
ATOM     23  C   UNL     1      33.968 -23.596 -14.843  0.00  0.00    +0.087 C 
ATOM     24  C   UNL     1      34.635 -23.228 -17.131  0.00  0.00    +0.148 C 
ATOM     25  C   UNL     1      36.345 -23.484 -15.394  0.00  0.00    +0.045 C 
ATOM     26  C   UNL     1      36.677 -23.691 -14.059  0.00  0.00    +0.173 C 
ATOM     27  C   UNL     1      34.329 -23.802 -13.514  0.00  0.00    +0.059 C 
ATOM     28  C   UNL     1      35.668 -23.850 -13.118  0.00  0.00    +0.174 C 
ATOM     29  C   UNL     1      33.297 -23.186 -17.492  0.00  0.00    +0.058 C 
ATOM     30  C   UNL     1      32.360 -23.353 -16.492  0.00  0.00    +0.102 C 
BRANCH  26  31
ATOM     31  O   UNL     1      37.987 -23.735 -13.689  0.00  0.00    -0.468 OA
ATOM     32  C   UNL     1      38.657 -24.988 -13.818  0.00  0.00    +0.253 C 
ENDBRANCH  26  31
BRANCH  28  33
ATOM     33  O   UNL     1      35.970 -24.053 -11.805  0.00  0.00    -0.468 OA
ATOM     34  C   UNL     1      35.736 -25.358 -11.280  0.00  0.00    +0.253 C 
ENDBRANCH  28  33
ENDBRANCH  20  24
ENDBRANCH   2  20
TORSDOF 5
ENDMDL
MODEL 9
REMARK VINA RESULT:     -10.2      7.151     16.018
REMARK  Name = 9911830
REMARK  5 active torsions:
REMARK  status: ('A' for Active; 'I' for Inactive)
REMARK    1  A    between atoms: C_2  and  O_20
REMARK    2  A    between atoms: C_3  and  N_10
REMARK    3  A    between atoms: O_20  and  C_24
REMARK    4  A    between atoms: C_26  and  O_31
REMARK    5  A    between atoms: C_28  and  O_33
REMARK                            x       y       z     vdW  Elec       q    Type
REMARK                         _______ _______ _______ _____ _____    ______ ____
ROOT
ATOM      1 CL   UNL     1      31.706 -11.819 -22.193  0.00  0.00    -0.081 Cl
ATOM      2  C   UNL     1      33.826  -8.560 -23.027  0.00  0.00    +0.146 C 
ATOM      3  C   UNL     1      33.956 -11.258 -23.633  0.00  0.00    +0.062 C 
ATOM      4  C   UNL     1      32.860  -9.413 -22.524  0.00  0.00    +0.050 C 
ATOM      5  C   UNL     1      34.857  -9.025 -23.826  0.00  0.00    +0.039 C 
ATOM      6  C   UNL     1      32.924 -10.772 -22.829  0.00  0.00    +0.074 C 
ATOM      7  C   UNL     1      34.921 -10.384 -24.132  0.00  0.00    +0.019 C 
ENDROOT
BRANCH   3  10
ATOM      8  O   UNL     1      35.117 -17.831 -22.105  0.00  0.00    -0.357 OA
ATOM      9  O   UNL     1      34.640 -13.609 -21.923  0.00  0.00    -0.252 OA
ATOM     10  N   UNL     1      34.048 -12.614 -23.960  0.00  0.00    -0.267 N 
ATOM     11  N   UNL     1      34.354 -14.898 -23.852  0.00  0.00    -0.251 N 
ATOM     12  N   UNL     1      34.939 -16.454 -22.137  0.00  0.00    -0.062 NA
ATOM     13  C   UNL     1      34.375 -13.702 -23.117  0.00  0.00    +0.309 C 
ATOM     14  C   UNL     1      34.620 -16.209 -23.392  0.00  0.00    +0.177 C 
ATOM     15  C   UNL     1      34.572 -17.329 -24.207  0.00  0.00    +0.073 C 
ATOM     16  C   UNL     1      34.895 -18.341 -23.343  0.00  0.00    +0.156 C 
ATOM     17  C   UNL     1      35.041 -19.795 -23.489  0.00  0.00    +0.075 C 
ATOM     18  H   UNL     1      33.860 -12.842 -24.898  0.00  0.00    +0.156 HD
ATOM     19  H   UNL     1      34.124 -14.814 -24.807  0.00  0.00    +0.158 HD
ENDBRANCH   3  10
BRANCH   2  20
ATOM     20  O   UNL     1      33.764  -7.212 -22.723  0.00  0.00    -0.453 OA
BRANCH  20  24
ATOM     21  N   UNL     1      33.531  -4.580 -25.919  0.00  0.00    -0.244 NA
ATOM     22  C   UNL     1      32.668  -5.353 -23.806  0.00  0.00    +0.055 C 
ATOM     23  C   UNL     1      32.636  -4.485 -24.917  0.00  0.00    +0.087 C 
ATOM     24  C   UNL     1      33.667  -6.335 -23.765  0.00  0.00    +0.148 C 
ATOM     25  C   UNL     1      31.718  -5.225 -22.778  0.00  0.00    +0.045 C 
ATOM     26  C   UNL     1      30.737  -4.241 -22.844  0.00  0.00    +0.173 C 
ATOM     27  C   UNL     1      31.643  -3.510 -24.958  0.00  0.00    +0.059 C 
ATOM     28  C   UNL     1      30.700  -3.383 -23.936  0.00  0.00    +0.174 C 
ATOM     29  C   UNL     1      34.590  -6.436 -24.796  0.00  0.00    +0.058 C 
ATOM     30  C   UNL     1      34.479  -5.542 -25.841  0.00  0.00    +0.102 C 
BRANCH  26  31
ATOM     31  O   UNL     1      29.824  -4.130 -21.839  0.00  0.00    -0.468 OA
ATOM     32  C   UNL     1      29.688  -5.245 -20.960  0.00  0.00    +0.253 C 
ENDBRANCH  26  31
BRANCH  28  33
ATOM     33  O   UNL     1      29.748  -2.411 -24.021  0.00  0.00    -0.468 OA
ATOM     34  C   UNL     1      29.277  -2.078 -25.325  0.00  0.00    +0.253 C 
ENDBRANCH  28  33
ENDBRANCH  20  24
ENDBRANCH   2  20
TORSDOF 5
ENDMDL
