MODEL 1
REMARK VINA RESULT:     -12.3      0.000      0.000
REMARK  Name = 24882195
REMARK  2 active torsions:
REMARK  status: ('A' for Active; 'I' for Inactive)
REMARK    1  A    between atoms: C_5  and  N_15
REMARK    2  A    between atoms: N_15  and  C_21
REMARK                            x       y       z     vdW  Elec       q    Type
REMARK                         _______ _______ _______ _____ _____    ______ ____
ROOT
ATOM      1  C   UNL     1      34.789 -20.069 -20.633  0.00  0.00    +0.001 C 
ATOM      2  C   UNL     1      36.112 -20.352 -20.230  0.00  0.00    +0.000 C 
ATOM      3  C   UNL     1      33.947 -21.720 -19.030  0.00  0.00    +0.000 C 
ATOM      4  C   UNL     1      35.271 -22.003 -18.627  0.00  0.00    +0.000 C 
ATOM      5  C   UNL     1      35.634 -18.431 -22.223  0.00  0.00    +0.049 C 
ATOM      6  C   UNL     1      33.724 -20.757 -20.028  0.00  0.00    +0.000 C 
ATOM      7  C   UNL     1      34.566 -19.106 -21.631  0.00  0.00    +0.015 C 
ATOM      8  C   UNL     1      36.337 -21.315 -19.232  0.00  0.00    +0.000 C 
ATOM      9  C   UNL     1      37.177 -19.664 -20.835  0.00  0.00    +0.001 C 
ATOM     10  C   UNL     1      36.938 -18.710 -21.826  0.00  0.00    +0.015 C 
ATOM     11  C   UNL     1      32.884 -22.408 -18.425  0.00  0.00    +0.000 C 
ATOM     12  C   UNL     1      35.494 -22.966 -17.629  0.00  0.00    +0.000 C 
ATOM     13  C   UNL     1      33.122 -23.362 -17.435  0.00  0.00    +0.000 C 
ATOM     14  C   UNL     1      34.425 -23.640 -17.037  0.00  0.00    +0.000 C 
ENDROOT
BRANCH   5  15
ATOM     15  N   UNL     1      35.392 -17.467 -23.224  0.00  0.00    -0.299 N 
ATOM     16  H   UNL     1      35.808 -17.645 -24.098  0.00  0.00    +0.153 HD
BRANCH  15  21
ATOM     17  N   UNL     1      34.151 -15.802 -24.331  0.00  0.00    -0.106 N 
ATOM     18  N   UNL     1      33.113 -13.947 -23.208  0.00  0.00    -0.340 NA
ATOM     19  N   UNL     1      34.271 -16.276 -25.599  0.00  0.00    -0.139 NA
ATOM     20  N   UNL     1      33.033 -14.366 -25.596  0.00  0.00    -0.145 NA
ATOM     21  C   UNL     1      34.667 -16.330 -23.141  0.00  0.00    +0.138 C 
ATOM     22  C   UNL     1      34.414 -15.680 -21.994  0.00  0.00    +0.061 C 
ATOM     23  C   UNL     1      33.387 -14.631 -24.354  0.00  0.00    +0.174 C 
ATOM     24  C   UNL     1      33.592 -14.437 -22.103  0.00  0.00    +0.125 C 
ATOM     25  C   UNL     1      33.301 -13.696 -20.823  0.00  0.00    +0.068 C 
ATOM     26  C   UNL     1      33.587 -15.382 -26.304  0.00  0.00    +0.230 C 
ENDBRANCH  15  21
ENDBRANCH   5  15
TORSDOF 2
ENDMDL
MODEL 2
REMARK VINA RESULT:     -12.2      6.831     10.901
REMARK  Name = 24882195
REMARK  2 active torsions:
REMARK  status: ('A' for Active; 'I' for Inactive)
REMARK    1  A    between atoms: C_5  and  N_15
REMARK    2  A    between atoms: N_15  and  C_21
REMARK                            x       y       z     vdW  Elec       q    Type
REMARK                         _______ _______ _______ _____ _____    ______ ____
ROOT
ATOM      1  C   UNL     1      35.259 -22.774 -17.396  0.00  0.00    +0.001 C 
ATOM      2  C   UNL     1      33.869 -22.782 -17.646  0.00  0.00    +0.000 C 
ATOM      3  C   UNL     1      35.597 -21.295 -19.319  0.00  0.00    +0.000 C 
ATOM      4  C   UNL     1      34.207 -21.302 -19.570  0.00  0.00    +0.000 C 
ATOM      5  C   UNL     1      34.913 -24.245 -15.487  0.00  0.00    +0.049 C 
ATOM      6  C   UNL     1      36.104 -22.031 -18.236  0.00  0.00    +0.000 C 
ATOM      7  C   UNL     1      35.766 -23.511 -16.313  0.00  0.00    +0.015 C 
ATOM      8  C   UNL     1      33.361 -22.046 -18.729  0.00  0.00    +0.000 C 
ATOM      9  C   UNL     1      33.024 -23.525 -16.805  0.00  0.00    +0.001 C 
ATOM     10  C   UNL     1      33.543 -24.252 -15.733  0.00  0.00    +0.015 C 
ATOM     11  C   UNL     1      36.441 -20.552 -20.160  0.00  0.00    +0.000 C 
ATOM     12  C   UNL     1      33.699 -20.566 -20.652  0.00  0.00    +0.000 C 
ATOM     13  C   UNL     1      35.922 -19.826 -21.232  0.00  0.00    +0.000 C 
ATOM     14  C   UNL     1      34.553 -19.833 -21.477  0.00  0.00    +0.000 C 
ENDROOT
BRANCH   5  15
ATOM     15  N   UNL     1      35.439 -24.979 -14.403  0.00  0.00    -0.299 N 
ATOM     16  H   UNL     1      34.794 -25.536 -13.911  0.00  0.00    +0.153 HD
BRANCH  15  21
ATOM     17  N   UNL     1      37.003 -24.305 -12.779  0.00  0.00    -0.106 N 
ATOM     18  N   UNL     1      39.318 -24.954 -12.810  0.00  0.00    -0.340 NA
ATOM     19  N   UNL     1      36.174 -23.557 -12.004  0.00  0.00    -0.139 NA
ATOM     20  N   UNL     1      38.278 -23.541 -11.135  0.00  0.00    -0.145 NA
ATOM     21  C   UNL     1      36.711 -25.017 -13.949  0.00  0.00    +0.138 C 
ATOM     22  C   UNL     1      37.704 -25.691 -14.548  0.00  0.00    +0.061 C 
ATOM     23  C   UNL     1      38.287 -24.281 -12.226  0.00  0.00    +0.174 C 
ATOM     24  C   UNL     1      39.047 -25.615 -13.896  0.00  0.00    +0.125 C 
ATOM     25  C   UNL     1      40.172 -26.367 -14.559  0.00  0.00    +0.068 C 
ATOM     26  C   UNL     1      36.988 -23.131 -11.045  0.00  0.00    +0.230 C 
ENDBRANCH  15  21
ENDBRANCH   5  15
TORSDOF 2
ENDMDL
MODEL 3
REMARK VINA RESULT:     -11.9      6.613     10.638
REMARK  Name = 24882195
REMARK  2 active torsions:
REMARK  status: ('A' for Active; 'I' for Inactive)
REMARK    1  A    between atoms: C_5  and  N_15
REMARK    2  A    between atoms: N_15  and  C_21
REMARK                            x       y       z     vdW  Elec       q    Type
REMARK                         _______ _______ _______ _____ _____    ______ ____
ROOT
ATOM      1  C   UNL     1      34.791 -22.582 -17.662  0.00  0.00    +0.001 C 
ATOM      2  C   UNL     1      33.448 -22.399 -18.055  0.00  0.00    +0.000 C 
ATOM      3  C   UNL     1      35.530 -21.186 -19.534  0.00  0.00    +0.000 C 
ATOM      4  C   UNL     1      34.186 -21.002 -19.928  0.00  0.00    +0.000 C 
ATOM      5  C   UNL     1      34.047 -23.968 -15.804  0.00  0.00    +0.049 C 
ATOM      6  C   UNL     1      35.815 -21.974 -18.407  0.00  0.00    +0.000 C 
ATOM      7  C   UNL     1      35.075 -23.371 -16.535  0.00  0.00    +0.015 C 
ATOM      8  C   UNL     1      33.162 -21.611 -19.183  0.00  0.00    +0.000 C 
ATOM      9  C   UNL     1      32.424 -23.008 -17.310  0.00  0.00    +0.001 C 
ATOM     10  C   UNL     1      32.723 -23.787 -16.191  0.00  0.00    +0.015 C 
ATOM     11  C   UNL     1      36.552 -20.578 -20.281  0.00  0.00    +0.000 C 
ATOM     12  C   UNL     1      33.902 -20.215 -21.056  0.00  0.00    +0.000 C 
ATOM     13  C   UNL     1      36.254 -19.798 -21.398  0.00  0.00    +0.000 C 
ATOM     14  C   UNL     1      34.930 -19.617 -21.785  0.00  0.00    +0.000 C 
ENDROOT
BRANCH   5  15
ATOM     15  N   UNL     1      34.350 -24.756 -14.674  0.00  0.00    -0.299 N 
ATOM     16  H   UNL     1      33.618 -25.323 -14.340  0.00  0.00    +0.153 HD
BRANCH  15  21
ATOM     17  N   UNL     1      36.356 -25.918 -14.264  0.00  0.00    -0.106 N 
ATOM     18  N   UNL     1      38.005 -25.204 -12.667  0.00  0.00    -0.340 NA
ATOM     19  N   UNL     1      36.179 -26.935 -15.148  0.00  0.00    -0.139 NA
ATOM     20  N   UNL     1      38.164 -27.183 -14.061  0.00  0.00    -0.145 NA
ATOM     21  C   UNL     1      35.511 -24.835 -13.988  0.00  0.00    +0.138 C 
ATOM     22  C   UNL     1      35.902 -23.943 -13.064  0.00  0.00    +0.061 C 
ATOM     23  C   UNL     1      37.580 -26.090 -13.611  0.00  0.00    +0.174 C 
ATOM     24  C   UNL     1      37.221 -24.199 -12.411  0.00  0.00    +0.125 C 
ATOM     25  C   UNL     1      37.672 -23.206 -11.370  0.00  0.00    +0.068 C 
ATOM     26  C   UNL     1      37.285 -27.653 -14.981  0.00  0.00    +0.230 C 
ENDBRANCH  15  21
ENDBRANCH   5  15
TORSDOF 2
ENDMDL
MODEL 4
REMARK VINA RESULT:     -11.6      1.025      2.270
REMARK  Name = 24882195
REMARK  2 active torsions:
REMARK  status: ('A' for Active; 'I' for Inactive)
REMARK    1  A    between atoms: C_5  and  N_15
REMARK    2  A    between atoms: N_15  and  C_21
REMARK                            x       y       z     vdW  Elec       q    Type
REMARK                         _______ _______ _______ _____ _____    ______ ____
ROOT
ATOM      1  C   UNL     1      35.004 -20.342 -20.672  0.00  0.00    +0.001 C 
ATOM      2  C   UNL     1      36.291 -20.378 -20.093  0.00  0.00    +0.000 C 
ATOM      3  C   UNL     1      34.191 -21.898 -18.963  0.00  0.00    +0.000 C 
ATOM      4  C   UNL     1      35.478 -21.934 -18.383  0.00  0.00    +0.000 C 
ATOM      5  C   UNL     1      35.821 -18.797 -22.365  0.00  0.00    +0.049 C 
ATOM      6  C   UNL     1      33.971 -21.103 -20.100  0.00  0.00    +0.000 C 
ATOM      7  C   UNL     1      34.785 -19.547 -21.809  0.00  0.00    +0.015 C 
ATOM      8  C   UNL     1      36.512 -21.174 -18.955  0.00  0.00    +0.000 C 
ATOM      9  C   UNL     1      37.324 -19.617 -20.665  0.00  0.00    +0.001 C 
ATOM     10  C   UNL     1      37.089 -18.831 -21.794  0.00  0.00    +0.015 C 
ATOM     11  C   UNL     1      33.159 -22.659 -18.390  0.00  0.00    +0.000 C 
ATOM     12  C   UNL     1      35.698 -22.729 -17.246  0.00  0.00    +0.000 C 
ATOM     13  C   UNL     1      33.393 -23.444 -17.261  0.00  0.00    +0.000 C 
ATOM     14  C   UNL     1      34.661 -23.479 -16.690  0.00  0.00    +0.000 C 
ENDROOT
BRANCH   5  15
ATOM     15  N   UNL     1      35.583 -18.003 -23.507  0.00  0.00    -0.299 N 
ATOM     16  H   UNL     1      35.997 -18.320 -24.342  0.00  0.00    +0.153 HD
BRANCH  15  21
ATOM     17  N   UNL     1      34.559 -16.184 -22.421  0.00  0.00    -0.106 N 
ATOM     18  N   UNL     1      33.363 -14.446 -23.574  0.00  0.00    -0.340 NA
ATOM     19  N   UNL     1      34.888 -16.507 -21.142  0.00  0.00    -0.139 NA
ATOM     20  N   UNL     1      33.683 -14.575 -21.173  0.00  0.00    -0.145 NA
ATOM     21  C   UNL     1      34.864 -16.864 -23.607  0.00  0.00    +0.138 C 
ATOM     22  C   UNL     1      34.427 -16.348 -24.766  0.00  0.00    +0.061 C 
ATOM     23  C   UNL     1      33.821 -14.996 -22.414  0.00  0.00    +0.174 C 
ATOM     24  C   UNL     1      33.646 -15.077 -24.675  0.00  0.00    +0.125 C 
ATOM     25  C   UNL     1      33.148 -14.487 -25.969  0.00  0.00    +0.068 C 
ATOM     26  C   UNL     1      34.341 -15.515 -20.448  0.00  0.00    +0.230 C 
ENDBRANCH  15  21
ENDBRANCH   5  15
TORSDOF 2
ENDMDL
MODEL 5
REMARK VINA RESULT:     -11.5      5.883     10.209
REMARK  Name = 24882195
REMARK  2 active torsions:
REMARK  status: ('A' for Active; 'I' for Inactive)
REMARK    1  A    between atoms: C_5  and  N_15
REMARK    2  A    between atoms: N_15  and  C_21
REMARK                            x       y       z     vdW  Elec       q    Type
REMARK                         _______ _______ _______ _____ _____    ______ ____
ROOT
ATOM      1  C   UNL     1      35.737 -21.617 -18.799  0.00  0.00    +0.001 C 
ATOM      2  C   UNL     1      34.385 -21.721 -19.195  0.00  0.00    +0.000 C 
ATOM      3  C   UNL     1      36.158 -20.065 -20.648  0.00  0.00    +0.000 C 
ATOM      4  C   UNL     1      34.806 -20.169 -21.044  0.00  0.00    +0.000 C 
ATOM      5  C   UNL     1      35.309 -23.159 -16.966  0.00  0.00    +0.049 C 
ATOM      6  C   UNL     1      36.605 -20.791 -19.532  0.00  0.00    +0.000 C 
ATOM      7  C   UNL     1      36.184 -22.343 -17.683  0.00  0.00    +0.015 C 
ATOM      8  C   UNL     1      33.937 -20.996 -20.312  0.00  0.00    +0.000 C 
ATOM      9  C   UNL     1      33.517 -22.547 -18.462  0.00  0.00    +0.001 C 
ATOM     10  C   UNL     1      33.976 -23.262 -17.355  0.00  0.00    +0.015 C 
ATOM     11  C   UNL     1      37.025 -19.239 -21.381  0.00  0.00    +0.000 C 
ATOM     12  C   UNL     1      34.358 -19.443 -22.160  0.00  0.00    +0.000 C 
ATOM     13  C   UNL     1      36.566 -18.525 -22.488  0.00  0.00    +0.000 C 
ATOM     14  C   UNL     1      35.234 -18.627 -22.876  0.00  0.00    +0.000 C 
ENDROOT
BRANCH   5  15
ATOM     15  N   UNL     1      35.774 -23.881 -15.847  0.00  0.00    -0.299 N 
ATOM     16  H   UNL     1      36.691 -24.232 -15.916  0.00  0.00    +0.153 HD
BRANCH  15  21
ATOM     17  N   UNL     1      35.816 -23.929 -13.495  0.00  0.00    -0.106 N 
ATOM     18  N   UNL     1      33.966 -24.663 -12.145  0.00  0.00    -0.340 NA
ATOM     19  N   UNL     1      37.077 -23.457 -13.310  0.00  0.00    -0.139 NA
ATOM     20  N   UNL     1      36.100 -23.880 -11.297  0.00  0.00    -0.145 NA
ATOM     21  C   UNL     1      35.128 -24.156 -14.693  0.00  0.00    +0.138 C 
ATOM     22  C   UNL     1      33.875 -24.631 -14.627  0.00  0.00    +0.061 C 
ATOM     23  C   UNL     1      35.237 -24.180 -12.247  0.00  0.00    +0.174 C 
ATOM     24  C   UNL     1      33.328 -24.874 -13.258  0.00  0.00    +0.125 C 
ATOM     25  C   UNL     1      31.921 -25.408 -13.168  0.00  0.00    +0.068 C 
ATOM     26  C   UNL     1      37.187 -23.450 -11.985  0.00  0.00    +0.230 C 
ENDBRANCH  15  21
ENDBRANCH   5  15
TORSDOF 2
ENDMDL
MODEL 6
REMARK VINA RESULT:     -11.3      6.500     10.824
REMARK  Name = 24882195
REMARK  2 active torsions:
REMARK  status: ('A' for Active; 'I' for Inactive)
REMARK    1  A    between atoms: C_5  and  N_15
REMARK    2  A    between atoms: N_15  and  C_21
REMARK                            x       y       z     vdW  Elec       q    Type
REMARK                         _______ _______ _______ _____ _____    ______ ____
ROOT
ATOM      1  C   UNL     1      34.970 -22.325 -17.866  0.00  0.00    +0.001 C 
ATOM      2  C   UNL     1      36.338 -21.979 -17.840  0.00  0.00    +0.000 C 
ATOM      3  C   UNL     1      34.685 -21.037 -19.931  0.00  0.00    +0.000 C 
ATOM      4  C   UNL     1      36.054 -20.690 -19.905  0.00  0.00    +0.000 C 
ATOM      5  C   UNL     1      35.263 -23.602 -15.815  0.00  0.00    +0.049 C 
ATOM      6  C   UNL     1      34.161 -21.849 -18.911  0.00  0.00    +0.000 C 
ATOM      7  C   UNL     1      34.447 -23.136 -16.846  0.00  0.00    +0.015 C 
ATOM      8  C   UNL     1      36.863 -21.166 -18.859  0.00  0.00    +0.000 C 
ATOM      9  C   UNL     1      37.147 -22.455 -16.795  0.00  0.00    +0.001 C 
ATOM     10  C   UNL     1      36.612 -23.262 -15.789  0.00  0.00    +0.015 C 
ATOM     11  C   UNL     1      33.877 -20.560 -20.976  0.00  0.00    +0.000 C 
ATOM     12  C   UNL     1      36.577 -19.879 -20.924  0.00  0.00    +0.000 C 
ATOM     13  C   UNL     1      34.411 -19.754 -21.981  0.00  0.00    +0.000 C 
ATOM     14  C   UNL     1      35.760 -19.414 -21.955  0.00  0.00    +0.000 C 
ENDROOT
BRANCH   5  15
ATOM     15  N   UNL     1      34.721 -24.417 -14.799  0.00  0.00    -0.299 N 
ATOM     16  H   UNL     1      33.776 -24.666 -14.910  0.00  0.00    +0.153 HD
BRANCH  15  21
ATOM     17  N   UNL     1      36.248 -25.942 -13.860  0.00  0.00    -0.106 N 
ATOM     18  N   UNL     1      36.725 -26.069 -11.506  0.00  0.00    -0.340 NA
ATOM     19  N   UNL     1      36.636 -26.563 -15.004  0.00  0.00    -0.139 NA
ATOM     20  N   UNL     1      37.727 -27.464 -13.220  0.00  0.00    -0.145 NA
ATOM     21  C   UNL     1      35.328 -24.899 -13.692  0.00  0.00    +0.138 C 
ATOM     22  C   UNL     1      35.104 -24.441 -12.451  0.00  0.00    +0.061 C 
ATOM     23  C   UNL     1      36.930 -26.510 -12.779  0.00  0.00    +0.174 C 
ATOM     24  C   UNL     1      35.871 -25.101 -11.351  0.00  0.00    +0.125 C 
ATOM     25  C   UNL     1      35.627 -24.598  -9.951  0.00  0.00    +0.068 C 
ATOM     26  C   UNL     1      37.515 -27.455 -14.560  0.00  0.00    +0.230 C 
ENDBRANCH  15  21
ENDBRANCH   5  15
TORSDOF 2
ENDMDL
MODEL 7
REMARK VINA RESULT:     -11.2      3.603      6.580
REMARK  Name = 24882195
REMARK  2 active torsions:
REMARK  status: ('A' for Active; 'I' for Inactive)
REMARK    1  A    between atoms: C_5  and  N_15
REMARK    2  A    between atoms: N_15  and  C_21
REMARK                            x       y       z     vdW  Elec       q    Type
REMARK                         _______ _______ _______ _____ _____    ______ ____
ROOT
ATOM      1  C   UNL     1      34.336 -14.910 -23.223  0.00  0.00    +0.001 C 
ATOM      2  C   UNL     1      34.056 -15.423 -24.508  0.00  0.00    +0.000 C 
ATOM      3  C   UNL     1      34.957 -17.154 -22.462  0.00  0.00    +0.000 C 
ATOM      4  C   UNL     1      34.677 -17.669 -23.747  0.00  0.00    +0.000 C 
ATOM      5  C   UNL     1      33.717 -12.684 -23.988  0.00  0.00    +0.049 C 
ATOM      6  C   UNL     1      34.783 -15.783 -22.217  0.00  0.00    +0.000 C 
ATOM      7  C   UNL     1      34.161 -13.538 -22.978  0.00  0.00    +0.015 C 
ATOM      8  C   UNL     1      34.230 -16.796 -24.754  0.00  0.00    +0.000 C 
ATOM      9  C   UNL     1      33.610 -14.551 -25.514  0.00  0.00    +0.001 C 
ATOM     10  C   UNL     1      33.441 -13.190 -25.255  0.00  0.00    +0.015 C 
ATOM     11  C   UNL     1      35.403 -18.028 -21.457  0.00  0.00    +0.000 C 
ATOM     12  C   UNL     1      34.852 -19.040 -23.993  0.00  0.00    +0.000 C 
ATOM     13  C   UNL     1      35.572 -19.388 -21.716  0.00  0.00    +0.000 C 
ATOM     14  C   UNL     1      35.297 -19.893 -22.982  0.00  0.00    +0.000 C 
ENDROOT
BRANCH   5  15
ATOM     15  N   UNL     1      33.547 -11.309 -23.725  0.00  0.00    -0.299 N 
ATOM     16  H   UNL     1      33.927 -10.696 -24.395  0.00  0.00    +0.153 HD
BRANCH  15  21
ATOM     17  N   UNL     1      33.135  -9.347 -22.492  0.00  0.00    -0.106 N 
ATOM     18  N   UNL     1      31.741  -9.273 -20.534  0.00  0.00    -0.340 NA
ATOM     19  N   UNL     1      33.879  -8.486 -23.235  0.00  0.00    -0.139 NA
ATOM     20  N   UNL     1      32.901  -7.377 -21.504  0.00  0.00    -0.145 NA
ATOM     21  C   UNL     1      32.933 -10.721 -22.675  0.00  0.00    +0.138 C 
ATOM     22  C   UNL     1      32.146 -11.370 -21.803  0.00  0.00    +0.061 C 
ATOM     23  C   UNL     1      32.545  -8.644 -21.438  0.00  0.00    +0.174 C 
ATOM     24  C   UNL     1      31.554 -10.548 -20.704  0.00  0.00    +0.125 C 
ATOM     25  C   UNL     1      30.669 -11.265 -19.716  0.00  0.00    +0.068 C 
ATOM     26  C   UNL     1      33.700  -7.333 -22.600  0.00  0.00    +0.230 C 
ENDBRANCH  15  21
ENDBRANCH   5  15
TORSDOF 2
ENDMDL
MODEL 8
REMARK VINA RESULT:     -11.2      1.386      3.240
REMARK  Name = 24882195
REMARK  2 active torsions:
REMARK  status: ('A' for Active; 'I' for Inactive)
REMARK    1  A    between atoms: C_5  and  N_15
REMARK    2  A    between atoms: N_15  and  C_21
REMARK                            x       y       z     vdW  Elec       q    Type
REMARK                         _______ _______ _______ _____ _____    ______ ____
ROOT
ATOM      1  C   UNL     1      35.540 -21.026 -19.511  0.00  0.00    +0.001 C 
ATOM      2  C   UNL     1      34.178 -21.394 -19.449  0.00  0.00    +0.000 C 
ATOM      3  C   UNL     1      35.996 -22.371 -17.516  0.00  0.00    +0.000 C 
ATOM      4  C   UNL     1      34.634 -22.740 -17.452  0.00  0.00    +0.000 C 
ATOM      5  C   UNL     1      35.077 -19.691 -21.493  0.00  0.00    +0.049 C 
ATOM      6  C   UNL     1      36.431 -21.519 -18.544  0.00  0.00    +0.000 C 
ATOM      7  C   UNL     1      35.973 -20.172 -20.539  0.00  0.00    +0.015 C 
ATOM      8  C   UNL     1      33.742 -22.247 -18.420  0.00  0.00    +0.000 C 
ATOM      9  C   UNL     1      33.287 -20.901 -20.417  0.00  0.00    +0.001 C 
ATOM     10  C   UNL     1      33.735 -20.054 -21.432  0.00  0.00    +0.015 C 
ATOM     11  C   UNL     1      36.886 -22.864 -16.547  0.00  0.00    +0.000 C 
ATOM     12  C   UNL     1      34.200 -23.593 -16.424  0.00  0.00    +0.000 C 
ATOM     13  C   UNL     1      36.439 -23.710 -15.532  0.00  0.00    +0.000 C 
ATOM     14  C   UNL     1      35.098 -24.074 -15.471  0.00  0.00    +0.000 C 
ENDROOT
BRANCH   5  15
ATOM     15  N   UNL     1      35.529 -18.836 -22.520  0.00  0.00    -0.299 N 
ATOM     16  H   UNL     1      36.333 -19.136 -23.003  0.00  0.00    +0.153 HD
BRANCH  15  21
ATOM     17  N   UNL     1      34.742 -16.694 -21.946  0.00  0.00    -0.106 N 
ATOM     18  N   UNL     1      33.910 -15.108 -23.550  0.00  0.00    -0.340 NA
ATOM     19  N   UNL     1      34.936 -16.765 -20.603  0.00  0.00    -0.139 NA
ATOM     20  N   UNL     1      34.056 -14.739 -21.157  0.00  0.00    -0.145 NA
ATOM     21  C   UNL     1      35.008 -17.658 -22.927  0.00  0.00    +0.138 C 
ATOM     22  C   UNL     1      34.731 -17.359 -24.205  0.00  0.00    +0.061 C 
ATOM     23  C   UNL     1      34.203 -15.443 -22.262  0.00  0.00    +0.174 C 
ATOM     24  C   UNL     1      34.157 -16.003 -24.460  0.00  0.00    +0.125 C 
ATOM     25  C   UNL     1      33.840 -15.654 -25.892  0.00  0.00    +0.068 C 
ATOM     26  C   UNL     1      34.511 -15.575 -20.191  0.00  0.00    +0.230 C 
ENDBRANCH  15  21
ENDBRANCH   5  15
TORSDOF 2
ENDMDL
MODEL 9
REMARK VINA RESULT:     -11.2      5.544      9.410
REMARK  Name = 24882195
REMARK  2 active torsions:
REMARK  status: ('A' for Active; 'I' for Inactive)
REMARK    1  A    between atoms: C_5  and  N_15
REMARK    2  A    between atoms: N_15  and  C_21
REMARK                            x       y       z     vdW  Elec       q    Type
REMARK                         _______ _______ _______ _____ _____    ______ ____
ROOT
ATOM      1  C   UNL     1      34.588 -21.572 -19.513  0.00  0.00    +0.001 C 
ATOM      2  C   UNL     1      35.919 -21.308 -19.122  0.00  0.00    +0.000 C 
ATOM      3  C   UNL     1      34.807 -19.961 -21.345  0.00  0.00    +0.000 C 
ATOM      4  C   UNL     1      36.138 -19.696 -20.955  0.00  0.00    +0.000 C 
ATOM      5  C   UNL     1      34.380 -23.170 -17.689  0.00  0.00    +0.049 C 
ATOM      6  C   UNL     1      34.050 -20.894 -20.619  0.00  0.00    +0.000 C 
ATOM      7  C   UNL     1      33.831 -22.505 -18.786  0.00  0.00    +0.015 C 
ATOM      8  C   UNL     1      36.678 -20.374 -19.848  0.00  0.00    +0.000 C 
ATOM      9  C   UNL     1      36.458 -21.986 -18.015  0.00  0.00    +0.001 C 
ATOM     10  C   UNL     1      35.692 -22.911 -17.304  0.00  0.00    +0.015 C 
ATOM     11  C   UNL     1      34.270 -19.282 -22.451  0.00  0.00    +0.000 C 
ATOM     12  C   UNL     1      36.896 -18.763 -21.681  0.00  0.00    +0.000 C 
ATOM     13  C   UNL     1      35.034 -18.358 -23.162  0.00  0.00    +0.000 C 
ATOM     14  C   UNL     1      36.346 -18.099 -22.778  0.00  0.00    +0.000 C 
ENDROOT
BRANCH   5  15
ATOM     15  N   UNL     1      33.606 -24.105 -16.970  0.00  0.00    -0.299 N 
ATOM     16  H   UNL     1      33.651 -25.035 -17.292  0.00  0.00    +0.153 HD
BRANCH  15  21
ATOM     17  N   UNL     1      33.342 -24.165 -14.633  0.00  0.00    -0.106 N 
ATOM     18  N   UNL     1      31.317 -23.525 -13.505  0.00  0.00    -0.340 NA
ATOM     19  N   UNL     1      34.579 -24.621 -14.305  0.00  0.00    -0.139 NA
ATOM     20  N   UNL     1      33.340 -24.308 -12.421  0.00  0.00    -0.145 NA
ATOM     21  C   UNL     1      32.810 -23.895 -15.900  0.00  0.00    +0.138 C 
ATOM     22  C   UNL     1      31.548 -23.445 -15.977  0.00  0.00    +0.061 C 
ATOM     23  C   UNL     1      32.601 -23.979 -13.462  0.00  0.00    +0.174 C 
ATOM     24  C   UNL     1      30.823 -23.274 -14.682  0.00  0.00    +0.125 C 
ATOM     25  C   UNL     1      29.404 -22.771 -14.754  0.00  0.00    +0.068 C 
ATOM     26  C   UNL     1      34.518 -24.685 -12.980  0.00  0.00    +0.230 C 
ENDBRANCH  15  21
ENDBRANCH   5  15
TORSDOF 2
ENDMDL
