MODEL 1
REMARK VINA RESULT:     -11.6      0.000      0.000
REMARK  Name = 448903
REMARK  11 active torsions:
REMARK  status: ('A' for Active; 'I' for Inactive)
REMARK    1  A    between atoms: N_1  and  C_22
REMARK    2  A    between atoms: C_8  and  N_11
REMARK    3  A    between atoms: C_12  and  C_14
REMARK    4  A    between atoms: C_14  and  C_15
REMARK    5  A    between atoms: C_15  and  C_16
REMARK    6  A    between atoms: C_22  and  C_23
REMARK    7  A    between atoms: C_23  and  C_24
REMARK    8  A    between atoms: C_24  and  N_25
REMARK    9  A    between atoms: C_24  and  C_35
REMARK   10  A    between atoms: C_29  and  C_32
REMARK   11  A    between atoms: C_35  and  O_36
REMARK                            x       y       z     vdW  Elec       q    Type
REMARK                         _______ _______ _______ _____ _____    ______ ____
ROOT
ATOM      1  N   UNL     1      33.656 -23.779 -15.596  0.00  0.00    -0.286 N 
ATOM      2  C   UNL     1      34.568 -23.165 -16.424  0.00  0.00    +0.053 C 
ATOM      3  C   UNL     1      35.819 -23.282 -15.813  0.00  0.00    +0.015 C 
ATOM      4  C   UNL     1      34.284 -24.280 -14.488  0.00  0.00    +0.065 C 
ATOM      5  C   UNL     1      35.624 -23.988 -14.593  0.00  0.00    +0.017 C 
ATOM      6  C   UNL     1      34.384 -22.521 -17.652  0.00  0.00    +0.029 C 
ATOM      7  C   UNL     1      36.943 -22.729 -16.460  0.00  0.00    +0.003 C 
ATOM      8  C   UNL     1      35.514 -21.981 -18.275  0.00  0.00    +0.052 C 
ATOM      9  C   UNL     1      36.774 -22.083 -17.690  0.00  0.00    +0.015 C 
ENDROOT
BRANCH   8  11
ATOM     10  O   UNL     1      33.061 -20.922 -19.654  0.00  0.00    -0.275 OA
ATOM     11  N   UNL     1      35.374 -21.332 -19.503  0.00  0.00    -0.284 N 
ATOM     12  C   UNL     1      34.204 -20.844 -20.096  0.00  0.00    +0.226 C 
ATOM     13  H   UNL     1      36.204 -21.201 -20.017  0.00  0.00    +0.155 HD
BRANCH  12  14
ATOM     14  C   UNL     1      34.462 -20.195 -21.447  0.00  0.00    +0.090 C 
BRANCH  14  15
ATOM     15  C   UNL     1      35.597 -19.173 -21.375  0.00  0.00    +0.036 C 
BRANCH  15  16
ATOM     16  C   UNL     1      35.192 -17.794 -21.836  0.00  0.00    -0.022 C 
ATOM     17  C   UNL     1      34.820 -16.828 -20.903  0.00  0.00    -0.004 C 
ATOM     18  C   UNL     1      35.190 -17.487 -23.197  0.00  0.00    -0.004 C 
ATOM     19  C   UNL     1      34.445 -15.553 -21.329  0.00  0.00    -0.000 C 
ATOM     20  C   UNL     1      34.814 -16.213 -23.624  0.00  0.00    -0.000 C 
ATOM     21  C   UNL     1      34.442 -15.246 -22.690  0.00  0.00    -0.000 C 
ENDBRANCH  15  16
ENDBRANCH  14  15
ENDBRANCH  12  14
ENDBRANCH   8  11
BRANCH   1  22
ATOM     22  C   UNL     1      32.234 -23.889 -15.846  0.00  0.00    +0.097 C 
BRANCH  22  23
ATOM     23  C   UNL     1      31.354 -23.154 -14.826  0.00  0.00    +0.040 C 
BRANCH  23  24
ATOM     24  C   UNL     1      30.022 -23.856 -14.482  0.00  0.00    +0.091 C 
BRANCH  24  25
ATOM     25  N   UNL     1      29.005 -23.742 -15.541  0.00  0.00    -0.246 NA
ATOM     26  N   UNL     1      27.592 -24.195 -17.194  0.00  0.00    -0.251 NA
ATOM     27  C   UNL     1      28.337 -22.603 -15.917  0.00  0.00    +0.125 C 
ATOM     28  C   UNL     1      28.533 -24.682 -16.329  0.00  0.00    +0.201 C 
ATOM     29  C   UNL     1      27.455 -22.859 -16.940  0.00  0.00    +0.124 C 
BRANCH  29  32
ATOM     30  O   UNL     1      26.336 -20.799 -17.246  0.00  0.00    -0.269 OA
ATOM     31  N   UNL     1      25.950 -22.432 -18.789  0.00  0.00    -0.324 N 
ATOM     32  C   UNL     1      26.572 -21.973 -17.621  0.00  0.00    +0.257 C 
ATOM     33  H   UNL     1      25.334 -21.844 -19.282  0.00  0.00    +0.145 HD
ATOM     34  H   UNL     1      26.128 -23.344 -19.116  0.00  0.00    +0.145 HD
ENDBRANCH  29  32
ENDBRANCH  24  25
BRANCH  24  35
ATOM     35  C   UNL     1      30.264 -25.332 -14.127  0.00  0.00    +0.153 C 
BRANCH  35  36
ATOM     36  O   UNL     1      30.704 -25.435 -12.778  0.00  0.00    -0.381 OA
ATOM     37  H   UNL     1      31.524 -24.930 -12.666  0.00  0.00    +0.210 HD
ENDBRANCH  35  36
ENDBRANCH  24  35
ENDBRANCH  23  24
ENDBRANCH  22  23
ENDBRANCH   1  22
TORSDOF 11
ENDMDL
MODEL 2
REMARK VINA RESULT:     -11.4      4.119      6.720
REMARK  Name = 448903
REMARK  11 active torsions:
REMARK  status: ('A' for Active; 'I' for Inactive)
REMARK    1  A    between atoms: N_1  and  C_22
REMARK    2  A    between atoms: C_8  and  N_11
REMARK    3  A    between atoms: C_12  and  C_14
REMARK    4  A    between atoms: C_14  and  C_15
REMARK    5  A    between atoms: C_15  and  C_16
REMARK    6  A    between atoms: C_22  and  C_23
REMARK    7  A    between atoms: C_23  and  C_24
REMARK    8  A    between atoms: C_24  and  N_25
REMARK    9  A    between atoms: C_24  and  C_35
REMARK   10  A    between atoms: C_29  and  C_32
REMARK   11  A    between atoms: C_35  and  O_36
REMARK                            x       y       z     vdW  Elec       q    Type
REMARK                         _______ _______ _______ _____ _____    ______ ____
ROOT
ATOM      1  N   UNL     1      36.259 -23.380 -15.701  0.00  0.00    -0.286 N 
ATOM      2  C   UNL     1      35.667 -22.890 -16.844  0.00  0.00    +0.053 C 
ATOM      3  C   UNL     1      34.340 -23.328 -16.839  0.00  0.00    +0.015 C 
ATOM      4  C   UNL     1      35.355 -24.109 -14.976  0.00  0.00    +0.065 C 
ATOM      5  C   UNL     1      34.159 -24.095 -15.654  0.00  0.00    +0.017 C 
ATOM      6  C   UNL     1      36.199 -22.102 -17.871  0.00  0.00    +0.029 C 
ATOM      7  C   UNL     1      33.502 -22.962 -17.911  0.00  0.00    +0.003 C 
ATOM      8  C   UNL     1      35.347 -21.751 -18.923  0.00  0.00    +0.052 C 
ATOM      9  C   UNL     1      34.019 -22.173 -18.944  0.00  0.00    +0.015 C 
ENDROOT
BRANCH   8  11
ATOM     10  O   UNL     1      33.940 -19.789 -20.715  0.00  0.00    -0.275 OA
ATOM     11  N   UNL     1      35.837 -20.964 -19.967  0.00  0.00    -0.284 N 
ATOM     12  C   UNL     1      35.138 -20.051 -20.766  0.00  0.00    +0.226 C 
ATOM     13  H   UNL     1      36.796 -21.065 -20.167  0.00  0.00    +0.155 HD
BRANCH  12  14
ATOM     14  C   UNL     1      36.027 -19.385 -21.804  0.00  0.00    +0.090 C 
BRANCH  14  15
ATOM     15  C   UNL     1      35.297 -19.195 -23.134  0.00  0.00    +0.036 C 
BRANCH  15  16
ATOM     16  C   UNL     1      34.941 -17.757 -23.421  0.00  0.00    -0.022 C 
ATOM     17  C   UNL     1      35.039 -16.799 -22.413  0.00  0.00    -0.004 C 
ATOM     18  C   UNL     1      34.514 -17.385 -24.697  0.00  0.00    -0.004 C 
ATOM     19  C   UNL     1      34.709 -15.470 -22.678  0.00  0.00    -0.000 C 
ATOM     20  C   UNL     1      34.185 -16.056 -24.962  0.00  0.00    -0.000 C 
ATOM     21  C   UNL     1      34.282 -15.098 -23.953  0.00  0.00    -0.000 C 
ENDBRANCH  15  16
ENDBRANCH  14  15
ENDBRANCH  12  14
ENDBRANCH   8  11
BRANCH   1  22
ATOM     22  C   UNL     1      37.635 -23.165 -15.309  0.00  0.00    +0.097 C 
BRANCH  22  23
ATOM     23  C   UNL     1      38.537 -24.397 -15.467  0.00  0.00    +0.040 C 
BRANCH  23  24
ATOM     24  C   UNL     1      39.204 -24.893 -14.164  0.00  0.00    +0.091 C 
BRANCH  24  25
ATOM     25  N   UNL     1      38.241 -25.304 -13.129  0.00  0.00    -0.246 NA
ATOM     26  N   UNL     1      36.829 -26.479 -11.880  0.00  0.00    -0.251 NA
ATOM     27  C   UNL     1      37.741 -24.522 -12.118  0.00  0.00    +0.125 C 
ATOM     28  C   UNL     1      37.672 -26.476 -12.957  0.00  0.00    +0.201 C 
ATOM     29  C   UNL     1      36.862 -25.229 -11.330  0.00  0.00    +0.124 C 
BRANCH  29  32
ATOM     30  O   UNL     1      35.233 -25.497  -9.638  0.00  0.00    -0.269 OA
ATOM     31  N   UNL     1      36.433 -23.559  -9.629  0.00  0.00    -0.324 N 
ATOM     32  C   UNL     1      36.126 -24.807 -10.186  0.00  0.00    +0.257 C 
ATOM     33  H   UNL     1      35.942 -23.239  -8.838  0.00  0.00    +0.145 HD
ATOM     34  H   UNL     1      37.140 -23.002 -10.029  0.00  0.00    +0.145 HD
ENDBRANCH  29  32
ENDBRANCH  24  25
BRANCH  24  35
ATOM     35  C   UNL     1      40.191 -26.034 -14.461  0.00  0.00    +0.153 C 
BRANCH  35  36
ATOM     36  O   UNL     1      40.273 -26.242 -15.867  0.00  0.00    -0.381 OA
ATOM     37  H   UNL     1      39.840 -25.507 -16.329  0.00  0.00    +0.210 HD
ENDBRANCH  35  36
ENDBRANCH  24  35
ENDBRANCH  23  24
ENDBRANCH  22  23
ENDBRANCH   1  22
TORSDOF 11
ENDMDL
MODEL 3
REMARK VINA RESULT:     -11.4      6.904     12.182
REMARK  Name = 448903
REMARK  11 active torsions:
REMARK  status: ('A' for Active; 'I' for Inactive)
REMARK    1  A    between atoms: N_1  and  C_22
REMARK    2  A    between atoms: C_8  and  N_11
REMARK    3  A    between atoms: C_12  and  C_14
REMARK    4  A    between atoms: C_14  and  C_15
REMARK    5  A    between atoms: C_15  and  C_16
REMARK    6  A    between atoms: C_22  and  C_23
REMARK    7  A    between atoms: C_23  and  C_24
REMARK    8  A    between atoms: C_24  and  N_25
REMARK    9  A    between atoms: C_24  and  C_35
REMARK   10  A    between atoms: C_29  and  C_32
REMARK   11  A    between atoms: C_35  and  O_36
REMARK                            x       y       z     vdW  Elec       q    Type
REMARK                         _______ _______ _______ _____ _____    ______ ____
ROOT
ATOM      1  N   UNL     1      32.987 -14.219 -22.012  0.00  0.00    -0.286 N 
ATOM      2  C   UNL     1      32.424 -13.058 -21.530  0.00  0.00    +0.053 C 
ATOM      3  C   UNL     1      32.118 -13.279 -20.184  0.00  0.00    +0.015 C 
ATOM      4  C   UNL     1      33.047 -15.162 -21.021  0.00  0.00    +0.065 C 
ATOM      5  C   UNL     1      32.517 -14.610 -19.879  0.00  0.00    +0.017 C 
ATOM      6  C   UNL     1      32.166 -11.843 -22.174  0.00  0.00    +0.029 C 
ATOM      7  C   UNL     1      31.523 -12.237 -19.445  0.00  0.00    +0.003 C 
ATOM      8  C   UNL     1      31.576 -10.824 -21.419  0.00  0.00    +0.052 C 
ATOM      9  C   UNL     1      31.260 -11.016 -20.075  0.00  0.00    +0.015 C 
ENDROOT
BRANCH   8  11
ATOM     10  O   UNL     1      32.912  -8.150 -21.094  0.00  0.00    -0.275 OA
ATOM     11  N   UNL     1      31.303  -9.596 -22.023  0.00  0.00    -0.284 N 
ATOM     12  C   UNL     1      31.969  -8.376 -21.846  0.00  0.00    +0.226 C 
ATOM     13  H   UNL     1      30.547  -9.585 -22.653  0.00  0.00    +0.155 HD
BRANCH  12  14
ATOM     14  C   UNL     1      31.370  -7.259 -22.686  0.00  0.00    +0.090 C 
BRANCH  14  15
ATOM     15  C   UNL     1      32.138  -5.948 -22.511  0.00  0.00    +0.036 C 
BRANCH  15  16
ATOM     16  C   UNL     1      32.744  -5.434 -23.795  0.00  0.00    -0.022 C 
ATOM     17  C   UNL     1      33.859  -6.066 -24.343  0.00  0.00    -0.004 C 
ATOM     18  C   UNL     1      32.186  -4.326 -24.434  0.00  0.00    -0.004 C 
ATOM     19  C   UNL     1      34.419  -5.591 -25.529  0.00  0.00    -0.000 C 
ATOM     20  C   UNL     1      32.746  -3.851 -25.621  0.00  0.00    -0.000 C 
ATOM     21  C   UNL     1      33.862  -4.483 -26.168  0.00  0.00    -0.000 C 
ENDBRANCH  15  16
ENDBRANCH  14  15
ENDBRANCH  12  14
ENDBRANCH   8  11
BRANCH   1  22
ATOM     22  C   UNL     1      33.452 -14.428 -23.366  0.00  0.00    +0.097 C 
BRANCH  22  23
ATOM     23  C   UNL     1      34.814 -15.127 -23.466  0.00  0.00    +0.040 C 
BRANCH  23  24
ATOM     24  C   UNL     1      34.842 -16.385 -24.363  0.00  0.00    +0.091 C 
BRANCH  24  25
ATOM     25  N   UNL     1      34.992 -17.641 -23.610  0.00  0.00    -0.246 NA
ATOM     26  N   UNL     1      34.927 -19.773 -22.991  0.00  0.00    -0.251 NA
ATOM     27  C   UNL     1      35.569 -17.792 -22.374  0.00  0.00    +0.125 C 
ATOM     28  C   UNL     1      34.616 -18.853 -23.954  0.00  0.00    +0.201 C 
ATOM     29  C   UNL     1      35.541 -19.106 -21.969  0.00  0.00    +0.124 C 
BRANCH  29  32
ATOM     30  O   UNL     1      35.386 -20.543 -20.098  0.00  0.00    -0.269 OA
ATOM     31  N   UNL     1      37.303 -19.330 -20.323  0.00  0.00    -0.324 N 
ATOM     32  C   UNL     1      36.027 -19.697 -20.768  0.00  0.00    +0.257 C 
ATOM     33  H   UNL     1      37.667 -19.721 -19.496  0.00  0.00    +0.145 HD
ATOM     34  H   UNL     1      37.836 -18.681 -20.837  0.00  0.00    +0.145 HD
ENDBRANCH  29  32
ENDBRANCH  24  25
BRANCH  24  35
ATOM     35  C   UNL     1      33.592 -16.441 -25.257  0.00  0.00    +0.153 C 
BRANCH  35  36
ATOM     36  O   UNL     1      33.817 -15.687 -26.443  0.00  0.00    -0.381 OA
ATOM     37  H   UNL     1      33.266 -16.040 -27.159  0.00  0.00    +0.210 HD
ENDBRANCH  35  36
ENDBRANCH  24  35
ENDBRANCH  23  24
ENDBRANCH  22  23
ENDBRANCH   1  22
TORSDOF 11
ENDMDL
MODEL 4
REMARK VINA RESULT:     -11.3      3.456      7.293
REMARK  Name = 448903
REMARK  11 active torsions:
REMARK  status: ('A' for Active; 'I' for Inactive)
REMARK    1  A    between atoms: N_1  and  C_22
REMARK    2  A    between atoms: C_8  and  N_11
REMARK    3  A    between atoms: C_12  and  C_14
REMARK    4  A    between atoms: C_14  and  C_15
REMARK    5  A    between atoms: C_15  and  C_16
REMARK    6  A    between atoms: C_22  and  C_23
REMARK    7  A    between atoms: C_23  and  C_24
REMARK    8  A    between atoms: C_24  and  N_25
REMARK    9  A    between atoms: C_24  and  C_35
REMARK   10  A    between atoms: C_29  and  C_32
REMARK   11  A    between atoms: C_35  and  O_36
REMARK                            x       y       z     vdW  Elec       q    Type
REMARK                         _______ _______ _______ _____ _____    ______ ____
ROOT
ATOM      1  N   UNL     1      32.668 -25.051 -13.630  0.00  0.00    -0.286 N 
ATOM      2  C   UNL     1      32.086 -24.333 -14.651  0.00  0.00    +0.053 C 
ATOM      3  C   UNL     1      30.704 -24.389 -14.456  0.00  0.00    +0.015 C 
ATOM      4  C   UNL     1      31.704 -25.555 -12.799  0.00  0.00    +0.065 C 
ATOM      5  C   UNL     1      30.479 -25.163 -13.284  0.00  0.00    +0.017 C 
ATOM      6  C   UNL     1      32.671 -23.646 -15.721  0.00  0.00    +0.029 C 
ATOM      7  C   UNL     1      29.863 -23.728 -15.374  0.00  0.00    +0.003 C 
ATOM      8  C   UNL     1      31.817 -22.997 -16.618  0.00  0.00    +0.052 C 
ATOM      9  C   UNL     1      30.434 -23.036 -16.448  0.00  0.00    +0.015 C 
ENDROOT
BRANCH   8  11
ATOM     10  O   UNL     1      33.804 -23.865 -18.700  0.00  0.00    -0.275 OA
ATOM     11  N   UNL     1      32.360 -22.300 -17.697  0.00  0.00    -0.284 N 
ATOM     12  C   UNL     1      33.277 -22.757 -18.651  0.00  0.00    +0.226 C 
ATOM     13  H   UNL     1      32.060 -21.367 -17.802  0.00  0.00    +0.155 HD
BRANCH  12  14
ATOM     14  C   UNL     1      33.630 -21.692 -19.678  0.00  0.00    +0.090 C 
BRANCH  14  15
ATOM     15  C   UNL     1      35.120 -21.349 -19.646  0.00  0.00    +0.036 C 
BRANCH  15  16
ATOM     16  C   UNL     1      35.518 -20.314 -20.671  0.00  0.00    -0.022 C 
ATOM     17  C   UNL     1      36.796 -19.759 -20.641  0.00  0.00    -0.004 C 
ATOM     18  C   UNL     1      34.606 -19.914 -21.648  0.00  0.00    -0.004 C 
ATOM     19  C   UNL     1      37.164 -18.803 -21.588  0.00  0.00    -0.000 C 
ATOM     20  C   UNL     1      34.973 -18.958 -22.595  0.00  0.00    -0.000 C 
ATOM     21  C   UNL     1      36.252 -18.402 -22.565  0.00  0.00    -0.000 C 
ENDBRANCH  15  16
ENDBRANCH  14  15
ENDBRANCH  12  14
ENDBRANCH   8  11
BRANCH   1  22
ATOM     22  C   UNL     1      34.089 -25.252 -13.448  0.00  0.00    +0.097 C 
BRANCH  22  23
ATOM     23  C   UNL     1      34.736 -24.304 -12.428  0.00  0.00    +0.040 C 
BRANCH  23  24
ATOM     24  C   UNL     1      36.090 -24.781 -11.856  0.00  0.00    +0.091 C 
BRANCH  24  25
ATOM     25  N   UNL     1      37.167 -24.833 -12.859  0.00  0.00    -0.246 NA
ATOM     26  N   UNL     1      38.508 -24.373 -14.568  0.00  0.00    -0.251 NA
ATOM     27  C   UNL     1      38.144 -25.791 -12.963  0.00  0.00    +0.125 C 
ATOM     28  C   UNL     1      37.415 -23.994 -13.840  0.00  0.00    +0.201 C 
ATOM     29  C   UNL     1      38.988 -25.528 -14.017  0.00  0.00    +0.124 C 
BRANCH  29  32
ATOM     30  O   UNL     1      40.499 -26.279 -15.672  0.00  0.00    -0.269 OA
ATOM     31  N   UNL     1      40.874 -26.967 -13.532  0.00  0.00    -0.324 N 
ATOM     32  C   UNL     1      40.123 -26.256 -14.476  0.00  0.00    +0.257 C 
ATOM     33  H   UNL     1      41.664 -27.480 -13.817  0.00  0.00    +0.145 HD
ATOM     34  H   UNL     1      40.612 -26.954 -12.583  0.00  0.00    +0.145 HD
ENDBRANCH  29  32
ENDBRANCH  24  25
BRANCH  24  35
ATOM     35  C   UNL     1      36.510 -23.908 -10.662  0.00  0.00    +0.153 C 
BRANCH  35  36
ATOM     36  O   UNL     1      36.150 -24.553  -9.446  0.00  0.00    -0.381 OA
ATOM     37  H   UNL     1      36.934 -24.971  -9.057  0.00  0.00    +0.210 HD
ENDBRANCH  35  36
ENDBRANCH  24  35
ENDBRANCH  23  24
ENDBRANCH  22  23
ENDBRANCH   1  22
TORSDOF 11
ENDMDL
MODEL 5
REMARK VINA RESULT:     -11.1      4.626      9.934
REMARK  Name = 448903
REMARK  11 active torsions:
REMARK  status: ('A' for Active; 'I' for Inactive)
REMARK    1  A    between atoms: N_1  and  C_22
REMARK    2  A    between atoms: C_8  and  N_11
REMARK    3  A    between atoms: C_12  and  C_14
REMARK    4  A    between atoms: C_14  and  C_15
REMARK    5  A    between atoms: C_15  and  C_16
REMARK    6  A    between atoms: C_22  and  C_23
REMARK    7  A    between atoms: C_23  and  C_24
REMARK    8  A    between atoms: C_24  and  N_25
REMARK    9  A    between atoms: C_24  and  C_35
REMARK   10  A    between atoms: C_29  and  C_32
REMARK   11  A    between atoms: C_35  and  O_36
REMARK                            x       y       z     vdW  Elec       q    Type
REMARK                         _______ _______ _______ _____ _____    ______ ____
ROOT
ATOM      1  N   UNL     1      34.736 -16.680 -23.173  0.00  0.00    -0.286 N 
ATOM      2  C   UNL     1      34.309 -15.507 -23.753  0.00  0.00    +0.053 C 
ATOM      3  C   UNL     1      34.015 -15.794 -25.089  0.00  0.00    +0.015 C 
ATOM      4  C   UNL     1      34.720 -17.695 -24.091  0.00  0.00    +0.065 C 
ATOM      5  C   UNL     1      34.279 -17.179 -25.286  0.00  0.00    +0.017 C 
ATOM      6  C   UNL     1      34.162 -14.228 -23.206  0.00  0.00    +0.029 C 
ATOM      7  C   UNL     1      33.552 -14.754 -25.920  0.00  0.00    +0.003 C 
ATOM      8  C   UNL     1      33.700 -13.212 -24.049  0.00  0.00    +0.052 C 
ATOM      9  C   UNL     1      33.399 -13.470 -25.385  0.00  0.00    +0.015 C 
ENDROOT
BRANCH   8  11
ATOM     10  O   UNL     1      35.148 -10.661 -24.708  0.00  0.00    -0.275 OA
ATOM     11  N   UNL     1      33.539 -11.922 -23.542  0.00  0.00    -0.284 N 
ATOM     12  C   UNL     1      34.234 -10.759 -23.895  0.00  0.00    +0.226 C 
ATOM     13  H   UNL     1      32.848 -11.816 -22.847  0.00  0.00    +0.155 HD
BRANCH  12  14
ATOM     14  C   UNL     1      33.767  -9.541 -23.113  0.00  0.00    +0.090 C 
BRANCH  14  15
ATOM     15  C   UNL     1      32.253  -9.554 -22.899  0.00  0.00    +0.036 C 
BRANCH  15  16
ATOM     16  C   UNL     1      31.848  -9.990 -21.512  0.00  0.00    -0.022 C 
ATOM     17  C   UNL     1      31.166 -11.192 -21.330  0.00  0.00    -0.004 C 
ATOM     18  C   UNL     1      32.158  -9.190 -20.411  0.00  0.00    -0.004 C 
ATOM     19  C   UNL     1      30.792 -11.595 -20.047  0.00  0.00    -0.000 C 
ATOM     20  C   UNL     1      31.783  -9.593 -19.129  0.00  0.00    -0.000 C 
ATOM     21  C   UNL     1      31.101 -10.795 -18.947  0.00  0.00    -0.000 C 
ENDBRANCH  15  16
ENDBRANCH  14  15
ENDBRANCH  12  14
ENDBRANCH   8  11
BRANCH   1  22
ATOM     22  C   UNL     1      35.144 -16.835 -21.793  0.00  0.00    +0.097 C 
BRANCH  22  23
ATOM     23  C   UNL     1      34.890 -18.231 -21.211  0.00  0.00    +0.040 C 
BRANCH  23  24
ATOM     24  C   UNL     1      36.158 -19.007 -20.788  0.00  0.00    +0.091 C 
BRANCH  24  25
ATOM     25  N   UNL     1      35.870 -20.267 -20.083  0.00  0.00    -0.246 NA
ATOM     26  N   UNL     1      36.065 -22.145 -18.914  0.00  0.00    -0.251 NA
ATOM     27  C   UNL     1      34.643 -20.868 -19.947  0.00  0.00    +0.125 C 
ATOM     28  C   UNL     1      36.704 -21.061 -19.449  0.00  0.00    +0.201 C 
ATOM     29  C   UNL     1      34.739 -22.035 -19.226  0.00  0.00    +0.124 C 
BRANCH  29  32
ATOM     30  O   UNL     1      32.649 -22.628 -18.293  0.00  0.00    -0.269 OA
ATOM     31  N   UNL     1      33.919 -24.313 -19.156  0.00  0.00    -0.324 N 
ATOM     32  C   UNL     1      33.721 -22.960 -18.855  0.00  0.00    +0.257 C 
ATOM     33  H   UNL     1      33.234 -24.977 -18.913  0.00  0.00    +0.145 HD
ATOM     34  H   UNL     1      34.744 -24.600 -19.611  0.00  0.00    +0.145 HD
ENDBRANCH  29  32
ENDBRANCH  24  25
BRANCH  24  35
ATOM     35  C   UNL     1      37.063 -19.267 -22.004  0.00  0.00    +0.153 C 
BRANCH  35  36
ATOM     36  O   UNL     1      38.320 -18.627 -21.812  0.00  0.00    -0.381 OA
ATOM     37  H   UNL     1      38.940 -19.249 -21.400  0.00  0.00    +0.210 HD
ENDBRANCH  35  36
ENDBRANCH  24  35
ENDBRANCH  23  24
ENDBRANCH  22  23
ENDBRANCH   1  22
TORSDOF 11
ENDMDL
MODEL 6
REMARK VINA RESULT:     -11.1      1.364      1.692
REMARK  Name = 448903
REMARK  11 active torsions:
REMARK  status: ('A' for Active; 'I' for Inactive)
REMARK    1  A    between atoms: N_1  and  C_22
REMARK    2  A    between atoms: C_8  and  N_11
REMARK    3  A    between atoms: C_12  and  C_14
REMARK    4  A    between atoms: C_14  and  C_15
REMARK    5  A    between atoms: C_15  and  C_16
REMARK    6  A    between atoms: C_22  and  C_23
REMARK    7  A    between atoms: C_23  and  C_24
REMARK    8  A    between atoms: C_24  and  N_25
REMARK    9  A    between atoms: C_24  and  C_35
REMARK   10  A    between atoms: C_29  and  C_32
REMARK   11  A    between atoms: C_35  and  O_36
REMARK                            x       y       z     vdW  Elec       q    Type
REMARK                         _______ _______ _______ _____ _____    ______ ____
ROOT
ATOM      1  N   UNL     1      34.982 -24.355 -14.424  0.00  0.00    -0.286 N 
ATOM      2  C   UNL     1      35.574 -23.620 -15.427  0.00  0.00    +0.053 C 
ATOM      3  C   UNL     1      36.943 -23.577 -15.150  0.00  0.00    +0.015 C 
ATOM      4  C   UNL     1      35.925 -24.778 -13.528  0.00  0.00    +0.065 C 
ATOM      5  C   UNL     1      37.149 -24.313 -13.949  0.00  0.00    +0.017 C 
ATOM      6  C   UNL     1      35.010 -22.996 -16.545  0.00  0.00    +0.029 C 
ATOM      7  C   UNL     1      37.791 -22.878 -16.031  0.00  0.00    +0.003 C 
ATOM      8  C   UNL     1      35.871 -22.309 -17.405  0.00  0.00    +0.052 C 
ATOM      9  C   UNL     1      37.241 -22.250 -17.154  0.00  0.00    +0.015 C 
ENDROOT
BRANCH   8  11
ATOM     10  O   UNL     1      33.128 -22.449 -18.629  0.00  0.00    -0.275 OA
ATOM     11  N   UNL     1      35.349 -21.674 -18.533  0.00  0.00    -0.284 N 
ATOM     12  C   UNL     1      34.053 -21.763 -19.055  0.00  0.00    +0.226 C 
ATOM     13  H   UNL     1      35.971 -21.089 -19.024  0.00  0.00    +0.155 HD
BRANCH  12  14
ATOM     14  C   UNL     1      33.868 -20.917 -20.305  0.00  0.00    +0.090 C 
BRANCH  14  15
ATOM     15  C   UNL     1      35.207 -20.431 -20.861  0.00  0.00    +0.036 C 
BRANCH  15  16
ATOM     16  C   UNL     1      35.088 -19.186 -21.706  0.00  0.00    -0.022 C 
ATOM     17  C   UNL     1      35.059 -17.931 -21.098  0.00  0.00    -0.004 C 
ATOM     18  C   UNL     1      35.009 -19.290 -23.095  0.00  0.00    -0.004 C 
ATOM     19  C   UNL     1      34.949 -16.780 -21.879  0.00  0.00    -0.000 C 
ATOM     20  C   UNL     1      34.899 -18.139 -23.875  0.00  0.00    -0.000 C 
ATOM     21  C   UNL     1      34.869 -16.884 -23.267  0.00  0.00    -0.000 C 
ENDBRANCH  15  16
ENDBRANCH  14  15
ENDBRANCH  12  14
ENDBRANCH   8  11
BRANCH   1  22
ATOM     22  C   UNL     1      33.568 -24.647 -14.319  0.00  0.00    +0.097 C 
BRANCH  22  23
ATOM     23  C   UNL     1      32.709 -23.459 -13.868  0.00  0.00    +0.040 C 
BRANCH  23  24
ATOM     24  C   UNL     1      31.206 -23.768 -13.683  0.00  0.00    +0.091 C 
BRANCH  24  25
ATOM     25  N   UNL     1      30.381 -23.400 -14.845  0.00  0.00    -0.246 NA
ATOM     26  N   UNL     1      29.712 -22.774 -16.868  0.00  0.00    -0.251 NA
ATOM     27  C   UNL     1      29.010 -23.361 -14.898  0.00  0.00    +0.125 C 
ATOM     28  C   UNL     1      30.773 -23.041 -16.047  0.00  0.00    +0.201 C 
ATOM     29  C   UNL     1      28.572 -22.976 -16.143  0.00  0.00    +0.124 C 
BRANCH  29  32
ATOM     30  O   UNL     1      26.870 -23.148 -17.775  0.00  0.00    -0.269 OA
ATOM     31  N   UNL     1      26.292 -22.254 -15.760  0.00  0.00    -0.324 N 
ATOM     32  C   UNL     1      27.242 -22.808 -16.627  0.00  0.00    +0.257 C 
ATOM     33  H   UNL     1      25.365 -22.125 -16.064  0.00  0.00    +0.145 HD
ATOM     34  H   UNL     1      26.552 -21.992 -14.847  0.00  0.00    +0.145 HD
ENDBRANCH  29  32
ENDBRANCH  24  25
BRANCH  24  35
ATOM     35  C   UNL     1      30.999 -25.249 -13.325  0.00  0.00    +0.153 C 
BRANCH  35  36
ATOM     36  O   UNL     1      30.438 -25.353 -12.021  0.00  0.00    -0.381 OA
ATOM     37  H   UNL     1      30.957 -24.818 -11.401  0.00  0.00    +0.210 HD
ENDBRANCH  35  36
ENDBRANCH  24  35
ENDBRANCH  23  24
ENDBRANCH  22  23
ENDBRANCH   1  22
TORSDOF 11
ENDMDL
MODEL 7
REMARK VINA RESULT:     -11.1      6.318     11.618
REMARK  Name = 448903
REMARK  11 active torsions:
REMARK  status: ('A' for Active; 'I' for Inactive)
REMARK    1  A    between atoms: N_1  and  C_22
REMARK    2  A    between atoms: C_8  and  N_11
REMARK    3  A    between atoms: C_12  and  C_14
REMARK    4  A    between atoms: C_14  and  C_15
REMARK    5  A    between atoms: C_15  and  C_16
REMARK    6  A    between atoms: C_22  and  C_23
REMARK    7  A    between atoms: C_23  and  C_24
REMARK    8  A    between atoms: C_24  and  N_25
REMARK    9  A    between atoms: C_24  and  C_35
REMARK   10  A    between atoms: C_29  and  C_32
REMARK   11  A    between atoms: C_35  and  O_36
REMARK                            x       y       z     vdW  Elec       q    Type
REMARK                         _______ _______ _______ _____ _____    ______ ____
ROOT
ATOM      1  N   UNL     1      33.392 -14.047 -21.874  0.00  0.00    -0.286 N 
ATOM      2  C   UNL     1      34.045 -15.229 -22.144  0.00  0.00    +0.053 C 
ATOM      3  C   UNL     1      34.269 -15.268 -23.522  0.00  0.00    +0.015 C 
ATOM      4  C   UNL     1      33.197 -13.340 -23.030  0.00  0.00    +0.065 C 
ATOM      5  C   UNL     1      33.730 -14.069 -24.067  0.00  0.00    +0.017 C 
ATOM      6  C   UNL     1      34.450 -16.255 -21.283  0.00  0.00    +0.029 C 
ATOM      7  C   UNL     1      34.930 -16.386 -24.070  0.00  0.00    +0.003 C 
ATOM      8  C   UNL     1      35.104 -17.353 -21.849  0.00  0.00    +0.052 C 
ATOM      9  C   UNL     1      35.342 -17.419 -23.220  0.00  0.00    +0.015 C 
ENDROOT
BRANCH   8  11
ATOM     10  O   UNL     1      37.731 -18.813 -21.739  0.00  0.00    -0.275 OA
ATOM     11  N   UNL     1      35.526 -18.398 -21.025  0.00  0.00    -0.284 N 
ATOM     12  C   UNL     1      36.772 -19.037 -21.005  0.00  0.00    +0.226 C 
ATOM     13  H   UNL     1      34.864 -18.728 -20.375  0.00  0.00    +0.155 HD
BRANCH  12  14
ATOM     14  C   UNL     1      36.847 -20.136 -19.957  0.00  0.00    +0.090 C 
BRANCH  14  15
ATOM     15  C   UNL     1      35.698 -21.134 -20.103  0.00  0.00    +0.036 C 
BRANCH  15  16
ATOM     16  C   UNL     1      35.395 -21.888 -18.831  0.00  0.00    -0.022 C 
ATOM     17  C   UNL     1      34.139 -22.462 -18.642  0.00  0.00    -0.004 C 
ATOM     18  C   UNL     1      36.374 -22.012 -17.844  0.00  0.00    -0.004 C 
ATOM     19  C   UNL     1      33.859 -23.159 -17.466  0.00  0.00    -0.000 C 
ATOM     20  C   UNL     1      36.095 -22.709 -16.669  0.00  0.00    -0.000 C 
ATOM     21  C   UNL     1      34.838 -23.282 -16.479  0.00  0.00    -0.000 C 
ENDBRANCH  15  16
ENDBRANCH  14  15
ENDBRANCH  12  14
ENDBRANCH   8  11
BRANCH   1  22
ATOM     22  C   UNL     1      32.966 -13.602 -20.564  0.00  0.00    +0.097 C 
BRANCH  22  23
ATOM     23  C   UNL     1      31.698 -12.737 -20.572  0.00  0.00    +0.040 C 
BRANCH  23  24
ATOM     24  C   UNL     1      31.834 -11.367 -19.871  0.00  0.00    +0.091 C 
BRANCH  24  25
ATOM     25  N   UNL     1      31.878 -10.229 -20.804  0.00  0.00    -0.246 NA
ATOM     26  N   UNL     1      31.710  -8.953 -22.614  0.00  0.00    -0.251 NA
ATOM     27  C   UNL     1      32.299  -8.954 -20.524  0.00  0.00    +0.125 C 
ATOM     28  C   UNL     1      31.529 -10.195 -22.071  0.00  0.00    +0.201 C 
ATOM     29  C   UNL     1      32.205  -8.144 -21.631  0.00  0.00    +0.124 C 
BRANCH  29  32
ATOM     30  O   UNL     1      33.100  -6.288 -22.790  0.00  0.00    -0.269 OA
ATOM     31  N   UNL     1      32.179  -5.891 -20.744  0.00  0.00    -0.324 N 
ATOM     32  C   UNL     1      32.532  -6.766 -21.778  0.00  0.00    +0.257 C 
ATOM     33  H   UNL     1      32.391  -4.932 -20.816  0.00  0.00    +0.145 HD
ATOM     34  H   UNL     1      31.718  -6.234 -19.944  0.00  0.00    +0.145 HD
ENDBRANCH  29  32
ENDBRANCH  24  25
BRANCH  24  35
ATOM     35  C   UNL     1      30.710 -11.173 -18.840  0.00  0.00    +0.153 C 
BRANCH  35  36
ATOM     36  O   UNL     1      31.207 -11.435 -17.533  0.00  0.00    -0.381 OA
ATOM     37  H   UNL     1      30.701 -10.920 -16.885  0.00  0.00    +0.210 HD
ENDBRANCH  35  36
ENDBRANCH  24  35
ENDBRANCH  23  24
ENDBRANCH  22  23
ENDBRANCH   1  22
TORSDOF 11
ENDMDL
MODEL 8
REMARK VINA RESULT:     -10.6      3.943      7.039
REMARK  Name = 448903
REMARK  11 active torsions:
REMARK  status: ('A' for Active; 'I' for Inactive)
REMARK    1  A    between atoms: N_1  and  C_22
REMARK    2  A    between atoms: C_8  and  N_11
REMARK    3  A    between atoms: C_12  and  C_14
REMARK    4  A    between atoms: C_14  and  C_15
REMARK    5  A    between atoms: C_15  and  C_16
REMARK    6  A    between atoms: C_22  and  C_23
REMARK    7  A    between atoms: C_23  and  C_24
REMARK    8  A    between atoms: C_24  and  N_25
REMARK    9  A    between atoms: C_24  and  C_35
REMARK   10  A    between atoms: C_29  and  C_32
REMARK   11  A    between atoms: C_35  and  O_36
REMARK                            x       y       z     vdW  Elec       q    Type
REMARK                         _______ _______ _______ _____ _____    ______ ____
ROOT
ATOM      1  N   UNL     1      35.192 -23.421 -15.948  0.00  0.00    -0.286 N 
ATOM      2  C   UNL     1      34.839 -22.801 -17.126  0.00  0.00    +0.053 C 
ATOM      3  C   UNL     1      33.512 -23.149 -17.390  0.00  0.00    +0.015 C 
ATOM      4  C   UNL     1      34.138 -24.146 -15.461  0.00  0.00    +0.065 C 
ATOM      5  C   UNL     1      33.084 -23.997 -16.331  0.00  0.00    +0.017 C 
ATOM      6  C   UNL     1      35.584 -21.968 -17.967  0.00  0.00    +0.029 C 
ATOM      7  C   UNL     1      32.897 -22.642 -18.553  0.00  0.00    +0.003 C 
ATOM      8  C   UNL     1      34.952 -21.476 -19.114  0.00  0.00    +0.052 C 
ATOM      9  C   UNL     1      33.630 -21.806 -19.403  0.00  0.00    +0.015 C 
ENDROOT
BRANCH   8  11
ATOM     10  O   UNL     1      34.088 -20.113 -21.650  0.00  0.00    -0.275 OA
ATOM     11  N   UNL     1      35.660 -20.640 -19.980  0.00  0.00    -0.284 N 
ATOM     12  C   UNL     1      35.203 -20.017 -21.148  0.00  0.00    +0.226 C 
ATOM     13  H   UNL     1      36.599 -20.467 -19.739  0.00  0.00    +0.155 HD
BRANCH  12  14
ATOM     14  C   UNL     1      36.280 -19.179 -21.820  0.00  0.00    +0.090 C 
BRANCH  14  15
ATOM     15  C   UNL     1      35.704 -18.315 -22.943  0.00  0.00    +0.036 C 
BRANCH  15  16
ATOM     16  C   UNL     1      35.172 -16.987 -22.463  0.00  0.00    -0.022 C 
ATOM     17  C   UNL     1      34.948 -15.955 -23.374  0.00  0.00    -0.004 C 
ATOM     18  C   UNL     1      34.903 -16.792 -21.108  0.00  0.00    -0.004 C 
ATOM     19  C   UNL     1      34.456 -14.727 -22.930  0.00  0.00    -0.000 C 
ATOM     20  C   UNL     1      34.412 -15.564 -20.664  0.00  0.00    -0.000 C 
ATOM     21  C   UNL     1      34.188 -14.532 -21.575  0.00  0.00    -0.000 C 
ENDBRANCH  15  16
ENDBRANCH  14  15
ENDBRANCH  12  14
ENDBRANCH   8  11
BRANCH   1  22
ATOM     22  C   UNL     1      36.486 -23.330 -15.305  0.00  0.00    +0.097 C 
BRANCH  22  23
ATOM     23  C   UNL     1      36.439 -22.820 -13.859  0.00  0.00    +0.040 C 
BRANCH  23  24
ATOM     24  C   UNL     1      36.513 -23.917 -12.773  0.00  0.00    +0.091 C 
BRANCH  24  25
ATOM     25  N   UNL     1      37.347 -25.068 -13.156  0.00  0.00    -0.246 NA
ATOM     26  N   UNL     1      38.080 -27.126 -13.560  0.00  0.00    -0.251 NA
ATOM     27  C   UNL     1      38.634 -25.026 -13.631  0.00  0.00    +0.125 C 
ATOM     28  C   UNL     1      37.043 -26.347 -13.126  0.00  0.00    +0.201 C 
ATOM     29  C   UNL     1      39.110 -26.290 -13.889  0.00  0.00    +0.124 C 
BRANCH  29  32
ATOM     30  O   UNL     1      40.734 -26.569 -15.585  0.00  0.00    -0.269 OA
ATOM     31  N   UNL     1      41.295 -27.254 -13.484  0.00  0.00    -0.324 N 
ATOM     32  C   UNL     1      40.380 -26.698 -14.388  0.00  0.00    +0.257 C 
ATOM     33  H   UNL     1      42.181 -27.545 -13.798  0.00  0.00    +0.145 HD
ATOM     34  H   UNL     1      41.051 -27.353 -12.535  0.00  0.00    +0.145 HD
ENDBRANCH  29  32
ENDBRANCH  24  25
BRANCH  24  35
ATOM     35  C   UNL     1      36.994 -23.325 -11.438  0.00  0.00    +0.153 C 
BRANCH  35  36
ATOM     36  O   UNL     1      37.935 -22.286 -11.685  0.00  0.00    -0.381 OA
ATOM     37  H   UNL     1      37.763 -21.545 -11.084  0.00  0.00    +0.210 HD
ENDBRANCH  35  36
ENDBRANCH  24  35
ENDBRANCH  23  24
ENDBRANCH  22  23
ENDBRANCH   1  22
TORSDOF 11
ENDMDL
MODEL 9
REMARK VINA RESULT:     -10.6      7.586     12.953
REMARK  Name = 448903
REMARK  11 active torsions:
REMARK  status: ('A' for Active; 'I' for Inactive)
REMARK    1  A    between atoms: N_1  and  C_22
REMARK    2  A    between atoms: C_8  and  N_11
REMARK    3  A    between atoms: C_12  and  C_14
REMARK    4  A    between atoms: C_14  and  C_15
REMARK    5  A    between atoms: C_15  and  C_16
REMARK    6  A    between atoms: C_22  and  C_23
REMARK    7  A    between atoms: C_23  and  C_24
REMARK    8  A    between atoms: C_24  and  N_25
REMARK    9  A    between atoms: C_24  and  C_35
REMARK   10  A    between atoms: C_29  and  C_32
REMARK   11  A    between atoms: C_35  and  O_36
REMARK                            x       y       z     vdW  Elec       q    Type
REMARK                         _______ _______ _______ _____ _____    ______ ____
ROOT
ATOM      1  N   UNL     1      32.337 -12.763 -21.716  0.00  0.00    -0.286 N 
ATOM      2  C   UNL     1      32.222 -11.425 -21.409  0.00  0.00    +0.053 C 
ATOM      3  C   UNL     1      31.822 -11.344 -20.073  0.00  0.00    +0.015 C 
ATOM      4  C   UNL     1      32.027 -13.527 -20.624  0.00  0.00    +0.065 C 
ATOM      5  C   UNL     1      31.704 -12.678 -19.591  0.00  0.00    +0.017 C 
ATOM      6  C   UNL     1      32.438 -10.294 -22.203  0.00  0.00    +0.029 C 
ATOM      7  C   UNL     1      31.628 -10.071 -19.500  0.00  0.00    +0.003 C 
ATOM      8  C   UNL     1      32.240  -9.042 -21.612  0.00  0.00    +0.052 C 
ATOM      9  C   UNL     1      31.842  -8.931 -20.281  0.00  0.00    +0.015 C 
ENDROOT
BRANCH   8  11
ATOM     10  O   UNL     1      30.420  -7.619 -23.537  0.00  0.00    -0.275 OA
ATOM     11  N   UNL     1      32.446  -7.888 -22.369  0.00  0.00    -0.284 N 
ATOM     12  C   UNL     1      31.555  -7.255 -23.245  0.00  0.00    +0.226 C 
ATOM     13  H   UNL     1      33.330  -7.464 -22.276  0.00  0.00    +0.155 HD
BRANCH  12  14
ATOM     14  C   UNL     1      32.152  -6.013 -23.888  0.00  0.00    +0.090 C 
BRANCH  14  15
ATOM     15  C   UNL     1      33.631  -6.208 -24.226  0.00  0.00    +0.036 C 
BRANCH  15  16
ATOM     16  C   UNL     1      34.076  -5.424 -25.437  0.00  0.00    -0.022 C 
ATOM     17  C   UNL     1      35.415  -5.437 -25.823  0.00  0.00    -0.004 C 
ATOM     18  C   UNL     1      33.145  -4.687 -26.171  0.00  0.00    -0.004 C 
ATOM     19  C   UNL     1      35.826  -4.712 -26.942  0.00  0.00    -0.000 C 
ATOM     20  C   UNL     1      33.556  -3.962 -27.290  0.00  0.00    -0.000 C 
ATOM     21  C   UNL     1      34.897  -3.975 -27.675  0.00  0.00    -0.000 C 
ENDBRANCH  15  16
ENDBRANCH  14  15
ENDBRANCH  12  14
ENDBRANCH   8  11
BRANCH   1  22
ATOM     22  C   UNL     1      32.729 -13.299 -23.002  0.00  0.00    +0.097 C 
BRANCH  22  23
ATOM     23  C   UNL     1      34.233 -13.570 -23.142  0.00  0.00    +0.040 C 
BRANCH  23  24
ATOM     24  C   UNL     1      34.601 -14.980 -23.654  0.00  0.00    +0.091 C 
BRANCH  24  25
ATOM     25  N   UNL     1      34.817 -15.960 -22.577  0.00  0.00    -0.246 NA
ATOM     26  N   UNL     1      34.878 -16.974 -20.602  0.00  0.00    -0.251 NA
ATOM     27  C   UNL     1      35.370 -17.210 -22.704  0.00  0.00    +0.125 C 
ATOM     28  C   UNL     1      34.532 -15.849 -21.299  0.00  0.00    +0.201 C 
ATOM     29  C   UNL     1      35.419 -17.858 -21.492  0.00  0.00    +0.124 C 
BRANCH  29  32
ATOM     30  O   UNL     1      35.285 -20.217 -21.424  0.00  0.00    -0.269 OA
ATOM     31  N   UNL     1      37.169 -19.257 -20.575  0.00  0.00    -0.324 N 
ATOM     32  C   UNL     1      35.909 -19.157 -21.176  0.00  0.00    +0.257 C 
ATOM     33  H   UNL     1      37.537 -20.141 -20.344  0.00  0.00    +0.145 HD
ATOM     34  H   UNL     1      37.689 -18.443 -20.382  0.00  0.00    +0.145 HD
ENDBRANCH  29  32
ENDBRANCH  24  25
BRANCH  24  35
ATOM     35  C   UNL     1      33.539 -15.492 -24.641  0.00  0.00    +0.153 C 
BRANCH  35  36
ATOM     36  O   UNL     1      34.175 -16.029 -25.795  0.00  0.00    -0.381 OA
ATOM     37  H   UNL     1      33.535 -16.550 -26.304  0.00  0.00    +0.210 HD
ENDBRANCH  35  36
ENDBRANCH  24  35
ENDBRANCH  23  24
ENDBRANCH  22  23
ENDBRANCH   1  22
TORSDOF 11
ENDMDL
