MODEL 1
REMARK VINA RESULT:     -11.8      0.000      0.000
REMARK  Name = 24978486
REMARK  5 active torsions:
REMARK  status: ('A' for Active; 'I' for Inactive)
REMARK    1  A    between atoms: O_1  and  C_6
REMARK    2  A    between atoms: O_1  and  C_18
REMARK    3  A    between atoms: C_18  and  C_20
REMARK    4  A    between atoms: N_19  and  C_26
REMARK    5  A    between atoms: C_26  and  C_29
REMARK                            x       y       z     vdW  Elec       q    Type
REMARK                         _______ _______ _______ _____ _____    ______ ____
ROOT
ATOM      1  O   UNL     1      35.171 -22.456 -17.941  0.00  0.00    -0.479 OA
ENDROOT
BRANCH   1   6
ATOM      2  N   UNL     1      32.727 -24.270 -14.171  0.00  0.00    -0.332 NA
ATOM      3  N   UNL     1      31.496 -23.686 -16.158  0.00  0.00    -0.317 NA
ATOM      4  N   UNL     1      32.563 -22.806 -18.035  0.00  0.00    -0.335 N 
ATOM      5  N   UNL     1      30.403 -24.570 -14.284  0.00  0.00    -0.283 N 
ATOM      6  C   UNL     1      35.093 -22.960 -16.667  0.00  0.00    +0.130 C 
ATOM      7  C   UNL     1      33.890 -23.369 -16.065  0.00  0.00    +0.177 C 
ATOM      8  C   UNL     1      36.289 -23.055 -15.963  0.00  0.00    +0.033 C 
ATOM      9  C   UNL     1      33.872 -23.876 -14.756  0.00  0.00    +0.137 C 
ATOM     10  C   UNL     1      32.660 -23.301 -16.714  0.00  0.00    +0.181 C 
ATOM     11  C   UNL     1      36.285 -23.555 -14.666  0.00  0.00    +0.005 C 
ATOM     12  C   UNL     1      35.083 -23.960 -14.075  0.00  0.00    +0.030 C 
ATOM     13  C   UNL     1      31.601 -24.154 -14.904  0.00  0.00    +0.197 C 
ATOM     14  H   UNL     1      31.688 -22.763 -18.482  0.00  0.00    +0.144 HD
ATOM     15  H   UNL     1      33.373 -22.505 -18.507  0.00  0.00    +0.144 HD
ATOM     16  H   UNL     1      30.421 -24.922 -13.364  0.00  0.00    +0.156 HD
ATOM     17  H   UNL     1      29.549 -24.510 -14.771  0.00  0.00    +0.156 HD
ENDBRANCH   1   6
BRANCH   1  18
ATOM     18  C   UNL     1      36.432 -21.969 -18.364  0.00  0.00    +0.205 C 
BRANCH  18  20
ATOM     19  N   UNL     1      35.518 -18.939 -21.302  0.00  0.00    +0.390 N 
ATOM     20  C   UNL     1      36.261 -21.292 -19.721  0.00  0.00    +0.040 C 
ATOM     21  C   UNL     1      37.168 -20.063 -19.841  0.00  0.00    -0.019 C 
ATOM     22  C   UNL     1      34.803 -20.885 -19.953  0.00  0.00    -0.019 C 
ATOM     23  C   UNL     1      36.928 -19.322 -21.159  0.00  0.00    -0.077 C 
ATOM     24  C   UNL     1      34.642 -20.117 -21.267  0.00  0.00    -0.077 C 
ATOM     25  H   UNL     1      35.272 -18.340 -20.513  0.00  0.00    -0.079 HD
BRANCH  19  26
ATOM     26  C   UNL     1      35.315 -18.187 -22.540  0.00  0.00    -0.049 C 
BRANCH  26  29
ATOM     27 CL   UNL     1      34.835 -16.383 -24.948  0.00  0.00    -0.082 Cl
ATOM     28 CL   UNL     1      33.844 -13.410 -24.241  0.00  0.00    -0.081 Cl
ATOM     29  C   UNL     1      34.850 -16.780 -22.274  0.00  0.00    -0.032 C 
ATOM     30  C   UNL     1      34.602 -15.876 -23.306  0.00  0.00    +0.062 C 
ATOM     31  C   UNL     1      34.668 -16.391 -20.947  0.00  0.00    -0.005 C 
ATOM     32  C   UNL     1      34.171 -14.582 -23.011  0.00  0.00    +0.068 C 
ATOM     33  C   UNL     1      34.237 -15.098 -20.652  0.00  0.00    +0.001 C 
ATOM     34  C   UNL     1      33.989 -14.193 -21.684  0.00  0.00    +0.012 C 
ENDBRANCH  26  29
ENDBRANCH  19  26
ENDBRANCH  18  20
ENDBRANCH   1  18
TORSDOF 5
ENDMDL
MODEL 2
REMARK VINA RESULT:     -11.8      2.093      3.020
REMARK  Name = 24978486
REMARK  5 active torsions:
REMARK  status: ('A' for Active; 'I' for Inactive)
REMARK    1  A    between atoms: O_1  and  C_6
REMARK    2  A    between atoms: O_1  and  C_18
REMARK    3  A    between atoms: C_18  and  C_20
REMARK    4  A    between atoms: N_19  and  C_26
REMARK    5  A    between atoms: C_26  and  C_29
REMARK                            x       y       z     vdW  Elec       q    Type
REMARK                         _______ _______ _______ _____ _____    ______ ____
ROOT
ATOM      1  O   UNL     1      34.924 -22.844 -17.317  0.00  0.00    -0.479 OA
ENDROOT
BRANCH   1   6
ATOM      2  N   UNL     1      36.099 -24.581 -12.949  0.00  0.00    -0.332 NA
ATOM      3  N   UNL     1      37.878 -23.913 -14.431  0.00  0.00    -0.317 NA
ATOM      4  N   UNL     1      37.435 -23.063 -16.556  0.00  0.00    -0.335 N 
ATOM      5  N   UNL     1      38.345 -24.765 -12.299  0.00  0.00    -0.283 N 
ATOM      6  C   UNL     1      34.609 -23.356 -16.083  0.00  0.00    +0.130 C 
ATOM      7  C   UNL     1      35.570 -23.714 -15.122  0.00  0.00    +0.177 C 
ATOM      8  C   UNL     1      33.256 -23.517 -15.806  0.00  0.00    +0.033 C 
ATOM      9  C   UNL     1      35.187 -24.236 -13.876  0.00  0.00    +0.137 C 
ATOM     10  C   UNL     1      36.939 -23.578 -15.335  0.00  0.00    +0.181 C 
ATOM     11  C   UNL     1      32.863 -24.033 -14.576  0.00  0.00    +0.005 C 
ATOM     12  C   UNL     1      33.826 -24.387 -13.625  0.00  0.00    +0.030 C 
ATOM     13  C   UNL     1      37.394 -24.401 -13.277  0.00  0.00    +0.197 C 
ATOM     14  H   UNL     1      38.404 -22.971 -16.695  0.00  0.00    +0.144 HD
ATOM     15  H   UNL     1      36.808 -22.795 -17.267  0.00  0.00    +0.144 HD
ATOM     16  H   UNL     1      38.047 -25.128 -11.434  0.00  0.00    +0.156 HD
ATOM     17  H   UNL     1      39.307 -24.655 -12.481  0.00  0.00    +0.156 HD
ENDBRANCH   1   6
BRANCH   1  18
ATOM     18  C   UNL     1      33.886 -22.800 -18.279  0.00  0.00    +0.205 C 
BRANCH  18  20
ATOM     19  N   UNL     1      35.196 -19.486 -20.719  0.00  0.00    +0.390 N 
ATOM     20  C   UNL     1      34.382 -22.022 -19.494  0.00  0.00    +0.040 C 
ATOM     21  C   UNL     1      35.742 -21.374 -19.216  0.00  0.00    -0.019 C 
ATOM     22  C   UNL     1      33.372 -20.947 -19.910  0.00  0.00    -0.019 C 
ATOM     23  C   UNL     1      36.198 -20.510 -20.394  0.00  0.00    -0.077 C 
ATOM     24  C   UNL     1      33.906 -20.098 -21.065  0.00  0.00    -0.077 C 
ATOM     25  H   UNL     1      35.058 -18.906 -19.891  0.00  0.00    -0.079 HD
BRANCH  19  26
ATOM     26  C   UNL     1      35.668 -18.637 -21.812  0.00  0.00    -0.049 C 
BRANCH  26  29
ATOM     27 CL   UNL     1      34.995 -17.339 -24.485  0.00  0.00    -0.082 Cl
ATOM     28 CL   UNL     1      33.630 -14.437 -24.280  0.00  0.00    -0.081 Cl
ATOM     29  C   UNL     1      35.027 -17.275 -21.782  0.00  0.00    -0.032 C 
ATOM     30  C   UNL     1      34.680 -16.595 -22.950  0.00  0.00    +0.062 C 
ATOM     31  C   UNL     1      34.782 -16.693 -20.539  0.00  0.00    -0.005 C 
ATOM     32  C   UNL     1      34.087 -15.334 -22.873  0.00  0.00    +0.068 C 
ATOM     33  C   UNL     1      34.189 -15.433 -20.462  0.00  0.00    +0.001 C 
ATOM     34  C   UNL     1      33.842 -14.754 -21.630  0.00  0.00    +0.012 C 
ENDBRANCH  26  29
ENDBRANCH  19  26
ENDBRANCH  18  20
ENDBRANCH   1  18
TORSDOF 5
ENDMDL
MODEL 3
REMARK VINA RESULT:     -11.4      4.296      9.981
REMARK  Name = 24978486
REMARK  5 active torsions:
REMARK  status: ('A' for Active; 'I' for Inactive)
REMARK    1  A    between atoms: O_1  and  C_6
REMARK    2  A    between atoms: O_1  and  C_18
REMARK    3  A    between atoms: C_18  and  C_20
REMARK    4  A    between atoms: N_19  and  C_26
REMARK    5  A    between atoms: C_26  and  C_29
REMARK                            x       y       z     vdW  Elec       q    Type
REMARK                         _______ _______ _______ _____ _____    ______ ____
ROOT
ATOM      1  O   UNL     1      35.035 -18.262 -22.395  0.00  0.00    -0.479 OA
ENDROOT
BRANCH   1   6
ATOM      2  N   UNL     1      33.670 -14.003 -24.257  0.00  0.00    -0.332 NA
ATOM      3  N   UNL     1      33.945 -15.871 -25.755  0.00  0.00    -0.317 NA
ATOM      4  N   UNL     1      34.598 -17.968 -24.974  0.00  0.00    -0.335 N 
ATOM      5  N   UNL     1      33.288 -13.771 -26.560  0.00  0.00    -0.283 N 
ATOM      6  C   UNL     1      34.704 -16.935 -22.288  0.00  0.00    +0.130 C 
ATOM      7  C   UNL     1      34.344 -16.133 -23.385  0.00  0.00    +0.177 C 
ATOM      8  C   UNL     1      34.741 -16.387 -21.010  0.00  0.00    +0.033 C 
ATOM      9  C   UNL     1      34.017 -14.778 -23.214  0.00  0.00    +0.137 C 
ATOM     10  C   UNL     1      34.287 -16.618 -24.689  0.00  0.00    +0.181 C 
ATOM     11  C   UNL     1      34.419 -15.047 -20.827  0.00  0.00    +0.005 C 
ATOM     12  C   UNL     1      34.061 -14.256 -21.924  0.00  0.00    +0.030 C 
ATOM     13  C   UNL     1      33.653 -14.591 -25.470  0.00  0.00    +0.197 C 
ATOM     14  H   UNL     1      34.554 -18.299 -25.899  0.00  0.00    +0.144 HD
ATOM     15  H   UNL     1      34.857 -18.577 -24.245  0.00  0.00    +0.144 HD
ATOM     16  H   UNL     1      33.063 -12.824 -26.410  0.00  0.00    +0.156 HD
ATOM     17  H   UNL     1      33.256 -14.146 -27.470  0.00  0.00    +0.156 HD
ENDBRANCH   1   6
BRANCH   1  18
ATOM     18  C   UNL     1      35.840 -18.809 -21.366  0.00  0.00    +0.205 C 
BRANCH  18  20
ATOM     19  N   UNL     1      34.199 -21.926 -18.867  0.00  0.00    +0.390 N 
ATOM     20  C   UNL     1      35.252 -20.155 -20.952  0.00  0.00    +0.040 C 
ATOM     21  C   UNL     1      33.849 -19.986 -20.362  0.00  0.00    -0.019 C 
ATOM     22  C   UNL     1      36.158 -20.863 -19.939  0.00  0.00    -0.019 C 
ATOM     23  C   UNL     1      33.295 -21.319 -19.853  0.00  0.00    -0.077 C 
ATOM     24  C   UNL     1      35.528 -22.167 -19.445  0.00  0.00    -0.077 C 
ATOM     25  H   UNL     1      34.306 -21.272 -18.092  0.00  0.00    -0.079 HD
BRANCH  19  26
ATOM     26  C   UNL     1      33.632 -23.173 -18.353  0.00  0.00    -0.049 C 
BRANCH  26  29
ATOM     27 CL   UNL     1      31.207 -23.280 -16.511  0.00  0.00    -0.082 Cl
ATOM     28 CL   UNL     1      31.887 -23.637 -13.391  0.00  0.00    -0.081 Cl
ATOM     29  C   UNL     1      33.885 -23.338 -16.878  0.00  0.00    -0.032 C 
ATOM     30  C   UNL     1      32.844 -23.399 -15.951  0.00  0.00    +0.062 C 
ATOM     31  C   UNL     1      35.208 -23.431 -16.447  0.00  0.00    -0.005 C 
ATOM     32  C   UNL     1      33.127 -23.553 -14.594  0.00  0.00    +0.068 C 
ATOM     33  C   UNL     1      35.491 -23.586 -15.090  0.00  0.00    +0.001 C 
ATOM     34  C   UNL     1      34.451 -23.647 -14.164  0.00  0.00    +0.012 C 
ENDBRANCH  26  29
ENDBRANCH  19  26
ENDBRANCH  18  20
ENDBRANCH   1  18
TORSDOF 5
ENDMDL
MODEL 4
REMARK VINA RESULT:     -10.9      2.092      3.465
REMARK  Name = 24978486
REMARK  5 active torsions:
REMARK  status: ('A' for Active; 'I' for Inactive)
REMARK    1  A    between atoms: O_1  and  C_6
REMARK    2  A    between atoms: O_1  and  C_18
REMARK    3  A    between atoms: C_18  and  C_20
REMARK    4  A    between atoms: N_19  and  C_26
REMARK    5  A    between atoms: C_26  and  C_29
REMARK                            x       y       z     vdW  Elec       q    Type
REMARK                         _______ _______ _______ _____ _____    ______ ____
ROOT
ATOM      1  O   UNL     1      34.125 -23.742 -17.132  0.00  0.00    -0.479 OA
ENDROOT
BRANCH   1   6
ATOM      2  N   UNL     1      33.661 -24.483 -12.366  0.00  0.00    -0.332 NA
ATOM      3  N   UNL     1      35.840 -24.753 -13.359  0.00  0.00    -0.317 NA
ATOM      4  N   UNL     1      36.185 -24.423 -15.641  0.00  0.00    -0.335 N 
ATOM      5  N   UNL     1      35.516 -25.090 -11.063  0.00  0.00    -0.283 N 
ATOM      6  C   UNL     1      33.394 -23.795 -15.971  0.00  0.00    +0.130 C 
ATOM      7  C   UNL     1      33.944 -24.127 -14.721  0.00  0.00    +0.177 C 
ATOM      8  C   UNL     1      32.039 -23.499 -16.078  0.00  0.00    +0.033 C 
ATOM      9  C   UNL     1      33.145 -24.167 -13.567  0.00  0.00    +0.137 C 
ATOM     10  C   UNL     1      35.291 -24.432 -14.545  0.00  0.00    +0.181 C 
ATOM     11  C   UNL     1      31.237 -23.536 -14.943  0.00  0.00    +0.005 C 
ATOM     12  C   UNL     1      31.792 -23.867 -13.702  0.00  0.00    +0.030 C 
ATOM     13  C   UNL     1      34.980 -24.759 -12.327  0.00  0.00    +0.197 C 
ATOM     14  H   UNL     1      37.135 -24.640 -15.504  0.00  0.00    +0.144 HD
ATOM     15  H   UNL     1      35.856 -24.197 -16.542  0.00  0.00    +0.144 HD
ATOM     16  H   UNL     1      34.931 -25.110 -10.271  0.00  0.00    +0.156 HD
ATOM     17  H   UNL     1      36.473 -25.300 -10.973  0.00  0.00    +0.156 HD
ENDBRANCH   1   6
BRANCH   1  18
ATOM     18  C   UNL     1      33.457 -23.279 -18.291  0.00  0.00    +0.205 C 
BRANCH  18  20
ATOM     19  N   UNL     1      35.351 -20.331 -20.816  0.00  0.00    +0.390 N 
ATOM     20  C   UNL     1      34.098 -21.965 -18.730  0.00  0.00    +0.040 C 
ATOM     21  C   UNL     1      33.291 -21.306 -19.853  0.00  0.00    -0.019 C 
ATOM     22  C   UNL     1      35.543 -22.185 -19.191  0.00  0.00    -0.019 C 
ATOM     23  C   UNL     1      33.983 -20.041 -20.366  0.00  0.00    -0.077 C 
ATOM     24  C   UNL     1      36.160 -20.891 -19.725  0.00  0.00    -0.077 C 
ATOM     25  H   UNL     1      35.298 -21.027 -21.559  0.00  0.00    -0.079 HD
BRANCH  19  26
ATOM     26  C   UNL     1      35.980 -19.123 -21.351  0.00  0.00    -0.049 C 
BRANCH  26  29
ATOM     27 CL   UNL     1      35.331 -16.155 -21.574  0.00  0.00    -0.082 Cl
ATOM     28 CL   UNL     1      33.898 -15.281 -24.314  0.00  0.00    -0.081 Cl
ATOM     29  C   UNL     1      35.307 -18.651 -22.612  0.00  0.00    -0.032 C 
ATOM     30  C   UNL     1      34.968 -17.313 -22.813  0.00  0.00    +0.062 C 
ATOM     31  C   UNL     1      35.023 -19.598 -23.596  0.00  0.00    -0.005 C 
ATOM     32  C   UNL     1      34.345 -16.922 -23.999  0.00  0.00    +0.068 C 
ATOM     33  C   UNL     1      34.401 -19.207 -24.782  0.00  0.00    +0.001 C 
ATOM     34  C   UNL     1      34.062 -17.869 -24.982  0.00  0.00    +0.012 C 
ENDBRANCH  26  29
ENDBRANCH  19  26
ENDBRANCH  18  20
ENDBRANCH   1  18
TORSDOF 5
ENDMDL
MODEL 5
REMARK VINA RESULT:     -10.8      4.803     10.039
REMARK  Name = 24978486
REMARK  5 active torsions:
REMARK  status: ('A' for Active; 'I' for Inactive)
REMARK    1  A    between atoms: O_1  and  C_6
REMARK    2  A    between atoms: O_1  and  C_18
REMARK    3  A    between atoms: C_18  and  C_20
REMARK    4  A    between atoms: N_19  and  C_26
REMARK    5  A    between atoms: C_26  and  C_29
REMARK                            x       y       z     vdW  Elec       q    Type
REMARK                         _______ _______ _______ _____ _____    ______ ____
ROOT
ATOM      1  O   UNL     1      33.552 -14.926 -22.808  0.00  0.00    -0.479 OA
ENDROOT
BRANCH   1   6
ATOM      2  N   UNL     1      31.967 -10.676 -21.103  0.00  0.00    -0.332 NA
ATOM      3  N   UNL     1      31.555 -12.658 -19.796  0.00  0.00    -0.317 NA
ATOM      4  N   UNL     1      32.271 -14.758 -20.514  0.00  0.00    -0.335 N 
ATOM      5  N   UNL     1      30.828 -10.558 -19.055  0.00  0.00    -0.283 N 
ATOM      6  C   UNL     1      33.388 -13.565 -22.885  0.00  0.00    +0.130 C 
ATOM      7  C   UNL     1      32.732 -12.804 -21.902  0.00  0.00    +0.177 C 
ATOM      8  C   UNL     1      33.911 -12.941 -24.013  0.00  0.00    +0.033 C 
ATOM      9  C   UNL     1      32.593 -11.413 -22.038  0.00  0.00    +0.137 C 
ATOM     10  C   UNL     1      32.188 -13.366 -20.751  0.00  0.00    +0.181 C 
ATOM     11  C   UNL     1      33.779 -11.565 -24.159  0.00  0.00    +0.005 C 
ATOM     12  C   UNL     1      33.125 -10.815 -23.176  0.00  0.00    +0.030 C 
ATOM     13  C   UNL     1      31.482 -11.338 -20.033  0.00  0.00    +0.197 C 
ATOM     14  H   UNL     1      31.882 -15.143 -19.696  0.00  0.00    +0.144 HD
ATOM     15  H   UNL     1      32.720 -15.342 -21.168  0.00  0.00    +0.144 HD
ATOM     16  H   UNL     1      30.745  -9.585 -19.177  0.00  0.00    +0.156 HD
ATOM     17  H   UNL     1      30.454 -10.986 -18.251  0.00  0.00    +0.156 HD
ENDBRANCH   1   6
BRANCH   1  18
ATOM     18  C   UNL     1      34.397 -15.527 -23.771  0.00  0.00    +0.205 C 
BRANCH  18  20
ATOM     19  N   UNL     1      35.209 -19.133 -21.536  0.00  0.00    +0.390 N 
ATOM     20  C   UNL     1      35.179 -16.652 -23.098  0.00  0.00    +0.040 C 
ATOM     21  C   UNL     1      34.822 -18.012 -23.708  0.00  0.00    -0.019 C 
ATOM     22  C   UNL     1      34.917 -16.677 -21.589  0.00  0.00    -0.019 C 
ATOM     23  C   UNL     1      35.526 -19.154 -22.970  0.00  0.00    -0.077 C 
ATOM     24  C   UNL     1      35.617 -17.863 -20.922  0.00  0.00    -0.077 C 
ATOM     25  H   UNL     1      34.198 -19.221 -21.436  0.00  0.00    -0.079 HD
BRANCH  19  26
ATOM     26  C   UNL     1      35.847 -20.259 -20.855  0.00  0.00    -0.049 C 
BRANCH  26  29
ATOM     27 CL   UNL     1      37.021 -21.953 -18.612  0.00  0.00    -0.082 Cl
ATOM     28 CL   UNL     1      34.858 -23.463 -16.776  0.00  0.00    -0.081 Cl
ATOM     29  C   UNL     1      34.884 -20.993 -19.960  0.00  0.00    -0.032 C 
ATOM     30  C   UNL     1      35.319 -21.794 -18.905  0.00  0.00    +0.062 C 
ATOM     31  C   UNL     1      33.519 -20.852 -20.212  0.00  0.00    -0.005 C 
ATOM     32  C   UNL     1      34.389 -22.455 -18.101  0.00  0.00    +0.068 C 
ATOM     33  C   UNL     1      32.589 -21.512 -19.409  0.00  0.00    +0.001 C 
ATOM     34  C   UNL     1      33.025 -22.313 -18.353  0.00  0.00    +0.012 C 
ENDBRANCH  26  29
ENDBRANCH  19  26
ENDBRANCH  18  20
ENDBRANCH   1  18
TORSDOF 5
ENDMDL
MODEL 6
REMARK VINA RESULT:     -10.8      4.284      9.876
REMARK  Name = 24978486
REMARK  5 active torsions:
REMARK  status: ('A' for Active; 'I' for Inactive)
REMARK    1  A    between atoms: O_1  and  C_6
REMARK    2  A    between atoms: O_1  and  C_18
REMARK    3  A    between atoms: C_18  and  C_20
REMARK    4  A    between atoms: N_19  and  C_26
REMARK    5  A    between atoms: C_26  and  C_29
REMARK                            x       y       z     vdW  Elec       q    Type
REMARK                         _______ _______ _______ _____ _____    ______ ____
ROOT
ATOM      1  O   UNL     1      35.109 -17.804 -21.393  0.00  0.00    -0.479 OA
ENDROOT
BRANCH   1   6
ATOM      2  N   UNL     1      33.663 -13.955 -23.958  0.00  0.00    -0.332 NA
ATOM      3  N   UNL     1      33.791 -13.750 -21.560  0.00  0.00    -0.317 NA
ATOM      4  N   UNL     1      34.473 -15.534 -20.222  0.00  0.00    -0.335 N 
ATOM      5  N   UNL     1      33.103 -11.945 -22.886  0.00  0.00    -0.283 N 
ATOM      6  C   UNL     1      34.810 -17.165 -22.571  0.00  0.00    +0.130 C 
ATOM      7  C   UNL     1      34.373 -15.831 -22.643  0.00  0.00    +0.177 C 
ATOM      8  C   UNL     1      34.957 -17.912 -23.735  0.00  0.00    +0.033 C 
ATOM      9  C   UNL     1      34.081 -15.231 -23.878  0.00  0.00    +0.137 C 
ATOM     10  C   UNL     1      34.207 -15.029 -21.516  0.00  0.00    +0.181 C 
ATOM     11  C   UNL     1      34.669 -17.330 -24.965  0.00  0.00    +0.005 C 
ATOM     12  C   UNL     1      34.236 -16.001 -25.027  0.00  0.00    +0.030 C 
ATOM     13  C   UNL     1      33.540 -13.284 -22.795  0.00  0.00    +0.197 C 
ATOM     14  H   UNL     1      34.351 -14.957 -19.434  0.00  0.00    +0.144 HD
ATOM     15  H   UNL     1      34.782 -16.462 -20.110  0.00  0.00    +0.144 HD
ATOM     16  H   UNL     1      32.905 -11.551 -23.766  0.00  0.00    +0.156 HD
ATOM     17  H   UNL     1      32.996 -11.404 -22.070  0.00  0.00    +0.156 HD
ENDBRANCH   1   6
BRANCH   1  18
ATOM     18  C   UNL     1      36.056 -18.854 -21.454  0.00  0.00    +0.205 C 
BRANCH  18  20
ATOM     19  N   UNL     1      34.166 -21.802 -18.926  0.00  0.00    +0.390 N 
ATOM     20  C   UNL     1      35.374 -20.150 -21.025  0.00  0.00    +0.040 C 
ATOM     21  C   UNL     1      33.973 -19.877 -20.468  0.00  0.00    -0.019 C 
ATOM     22  C   UNL     1      36.211 -20.892 -19.978  0.00  0.00    -0.019 C 
ATOM     23  C   UNL     1      33.323 -21.160 -19.943  0.00  0.00    -0.077 C 
ATOM     24  C   UNL     1      35.488 -22.141 -19.470  0.00  0.00    -0.077 C 
ATOM     25  H   UNL     1      34.300 -21.139 -18.163  0.00  0.00    -0.079 HD
BRANCH  19  26
ATOM     26  C   UNL     1      33.508 -22.997 -18.398  0.00  0.00    -0.049 C 
BRANCH  26  29
ATOM     27 CL   UNL     1      31.179 -23.319 -16.461  0.00  0.00    -0.082 Cl
ATOM     28 CL   UNL     1      32.017 -23.797 -13.396  0.00  0.00    -0.081 Cl
ATOM     29  C   UNL     1      33.837 -23.223 -16.946  0.00  0.00    -0.032 C 
ATOM     30  C   UNL     1      32.844 -23.383 -15.980  0.00  0.00    +0.062 C 
ATOM     31  C   UNL     1      35.181 -23.271 -16.579  0.00  0.00    -0.005 C 
ATOM     32  C   UNL     1      33.196 -23.591 -14.645  0.00  0.00    +0.068 C 
ATOM     33  C   UNL     1      35.533 -23.479 -15.245  0.00  0.00    +0.001 C 
ATOM     34  C   UNL     1      34.540 -23.639 -14.279  0.00  0.00    +0.012 C 
ENDBRANCH  26  29
ENDBRANCH  19  26
ENDBRANCH  18  20
ENDBRANCH   1  18
TORSDOF 5
ENDMDL
MODEL 7
REMARK VINA RESULT:     -10.8      1.457      2.301
REMARK  Name = 24978486
REMARK  5 active torsions:
REMARK  status: ('A' for Active; 'I' for Inactive)
REMARK    1  A    between atoms: O_1  and  C_6
REMARK    2  A    between atoms: O_1  and  C_18
REMARK    3  A    between atoms: C_18  and  C_20
REMARK    4  A    between atoms: N_19  and  C_26
REMARK    5  A    between atoms: C_26  and  C_29
REMARK                            x       y       z     vdW  Elec       q    Type
REMARK                         _______ _______ _______ _____ _____    ______ ____
ROOT
ATOM      1  O   UNL     1      32.774 -22.749 -17.988  0.00  0.00    -0.479 OA
ENDROOT
BRANCH   1   6
ATOM      2  N   UNL     1      32.405 -24.717 -13.576  0.00  0.00    -0.332 NA
ATOM      3  N   UNL     1      30.378 -24.152 -14.751  0.00  0.00    -0.317 NA
ATOM      4  N   UNL     1      30.431 -23.201 -16.879  0.00  0.00    -0.335 N 
ATOM      5  N   UNL     1      30.302 -25.108 -12.613  0.00  0.00    -0.283 N 
ATOM      6  C   UNL     1      33.309 -23.275 -16.839  0.00  0.00    +0.130 C 
ATOM      7  C   UNL     1      32.533 -23.741 -15.763  0.00  0.00    +0.177 C 
ATOM      8  C   UNL     1      34.697 -23.333 -16.771  0.00  0.00    +0.033 C 
ATOM      9  C   UNL     1      33.138 -24.268 -14.611  0.00  0.00    +0.137 C 
ATOM     10  C   UNL     1      31.141 -23.712 -15.768  0.00  0.00    +0.181 C 
ATOM     11  C   UNL     1      35.308 -23.852 -15.635  0.00  0.00    +0.005 C 
ATOM     12  C   UNL     1      34.529 -24.314 -14.569  0.00  0.00    +0.030 C 
ATOM     13  C   UNL     1      31.065 -24.634 -13.702  0.00  0.00    +0.197 C 
ATOM     14  H   UNL     1      29.447 -23.187 -16.869  0.00  0.00    +0.144 HD
ATOM     15  H   UNL     1      30.921 -22.861 -17.662  0.00  0.00    +0.144 HD
ATOM     16  H   UNL     1      30.754 -25.472 -11.817  0.00  0.00    +0.156 HD
ATOM     17  H   UNL     1      29.318 -25.075 -12.648  0.00  0.00    +0.156 HD
ENDBRANCH   1   6
BRANCH   1  18
ATOM     18  C   UNL     1      33.584 -22.784 -19.149  0.00  0.00    +0.205 C 
BRANCH  18  20
ATOM     19  N   UNL     1      35.276 -19.373 -21.189  0.00  0.00    +0.390 N 
ATOM     20  C   UNL     1      34.172 -21.393 -19.374  0.00  0.00    +0.040 C 
ATOM     21  C   UNL     1      33.292 -20.570 -20.320  0.00  0.00    -0.019 C 
ATOM     22  C   UNL     1      35.595 -21.482 -19.936  0.00  0.00    -0.019 C 
ATOM     23  C   UNL     1      33.927 -19.212 -20.629  0.00  0.00    -0.077 C 
ATOM     24  C   UNL     1      36.153 -20.094 -20.258  0.00  0.00    -0.077 C 
ATOM     25  H   UNL     1      35.198 -19.927 -22.043  0.00  0.00    -0.079 HD
BRANCH  19  26
ATOM     26  C   UNL     1      35.848 -18.070 -21.527  0.00  0.00    -0.049 C 
BRANCH  26  29
ATOM     27 CL   UNL     1      34.774 -15.236 -21.224  0.00  0.00    -0.082 Cl
ATOM     28 CL   UNL     1      33.353 -14.035 -23.843  0.00  0.00    -0.081 Cl
ATOM     29  C   UNL     1      35.170 -17.452 -22.721  0.00  0.00    -0.032 C 
ATOM     30  C   UNL     1      34.644 -16.160 -22.685  0.00  0.00    +0.062 C 
ATOM     31  C   UNL     1      35.076 -18.211 -23.887  0.00  0.00    -0.005 C 
ATOM     32  C   UNL     1      34.025 -15.628 -23.817  0.00  0.00    +0.068 C 
ATOM     33  C   UNL     1      34.457 -17.679 -25.018  0.00  0.00    +0.001 C 
ATOM     34  C   UNL     1      33.932 -16.388 -24.982  0.00  0.00    +0.012 C 
ENDBRANCH  26  29
ENDBRANCH  19  26
ENDBRANCH  18  20
ENDBRANCH   1  18
TORSDOF 5
ENDMDL
MODEL 8
REMARK VINA RESULT:     -10.8      7.150     10.741
REMARK  Name = 24978486
REMARK  5 active torsions:
REMARK  status: ('A' for Active; 'I' for Inactive)
REMARK    1  A    between atoms: O_1  and  C_6
REMARK    2  A    between atoms: O_1  and  C_18
REMARK    3  A    between atoms: C_18  and  C_20
REMARK    4  A    between atoms: N_19  and  C_26
REMARK    5  A    between atoms: C_26  and  C_29
REMARK                            x       y       z     vdW  Elec       q    Type
REMARK                         _______ _______ _______ _____ _____    ______ ____
ROOT
ATOM      1  O   UNL     1      33.265 -13.385 -21.743  0.00  0.00    -0.479 OA
ENDROOT
BRANCH   1   6
ATOM      2  N   UNL     1      35.071 -17.463 -23.638  0.00  0.00    -0.332 NA
ATOM      3  N   UNL     1      35.231 -17.139 -21.256  0.00  0.00    -0.317 NA
ATOM      4  N   UNL     1      34.398 -15.218 -20.231  0.00  0.00    -0.335 N 
ATOM      5  N   UNL     1      36.075 -19.078 -22.265  0.00  0.00    -0.283 N 
ATOM      6  C   UNL     1      33.544 -14.222 -22.794  0.00  0.00    +0.130 C 
ATOM      7  C   UNL     1      34.192 -15.462 -22.651  0.00  0.00    +0.177 C 
ATOM      8  C   UNL     1      33.151 -13.786 -24.055  0.00  0.00    +0.033 C 
ATOM      9  C   UNL     1      34.452 -16.275 -23.765  0.00  0.00    +0.137 C 
ATOM     10  C   UNL     1      34.610 -15.956 -21.418  0.00  0.00    +0.181 C 
ATOM     11  C   UNL     1      33.403 -14.582 -25.167  0.00  0.00    +0.005 C 
ATOM     12  C   UNL     1      34.048 -15.814 -25.015  0.00  0.00    +0.030 C 
ATOM     13  C   UNL     1      35.427 -17.830 -22.391  0.00  0.00    +0.197 C 
ATOM     14  H   UNL     1      34.698 -15.579 -19.366  0.00  0.00    +0.144 HD
ATOM     15  H   UNL     1      33.949 -14.342 -20.270  0.00  0.00    +0.144 HD
ATOM     16  H   UNL     1      36.244 -19.627 -23.064  0.00  0.00    +0.156 HD
ATOM     17  H   UNL     1      36.357 -19.400 -21.378  0.00  0.00    +0.156 HD
ENDBRANCH   1   6
BRANCH   1  18
ATOM     18  C   UNL     1      31.929 -13.362 -21.276  0.00  0.00    +0.205 C 
BRANCH  18  20
ATOM     19  N   UNL     1      32.260  -9.110 -20.599  0.00  0.00    +0.390 N 
ATOM     20  C   UNL     1      31.519 -11.910 -21.045  0.00  0.00    +0.040 C 
ATOM     21  C   UNL     1      32.032 -11.007 -22.170  0.00  0.00    -0.019 C 
ATOM     22  C   UNL     1      32.036 -11.401 -19.695  0.00  0.00    -0.019 C 
ATOM     23  C   UNL     1      31.712  -9.536 -21.893  0.00  0.00    -0.077 C 
ATOM     24  C   UNL     1      31.716  -9.918 -19.500  0.00  0.00    -0.077 C 
ATOM     25  H   UNL     1      33.270  -9.250 -20.623  0.00  0.00    -0.079 HD
BRANCH  19  26
ATOM     26  C   UNL     1      31.990  -7.690 -20.372  0.00  0.00    -0.049 C 
BRANCH  26  29
ATOM     27 CL   UNL     1      29.998  -5.492 -21.066  0.00  0.00    -0.082 Cl
ATOM     28 CL   UNL     1      30.703  -3.804 -23.707  0.00  0.00    -0.081 Cl
ATOM     29  C   UNL     1      32.266  -6.863 -21.600  0.00  0.00    -0.032 C 
ATOM     30  C   UNL     1      31.416  -5.834 -22.004  0.00  0.00    +0.062 C 
ATOM     31  C   UNL     1      33.411  -7.153 -22.342  0.00  0.00    -0.005 C 
ATOM     32  C   UNL     1      31.712  -5.094 -23.150  0.00  0.00    +0.068 C 
ATOM     33  C   UNL     1      33.707  -6.414 -23.486  0.00  0.00    +0.001 C 
ATOM     34  C   UNL     1      32.857  -5.384 -23.890  0.00  0.00    +0.012 C 
ENDBRANCH  26  29
ENDBRANCH  19  26
ENDBRANCH  18  20
ENDBRANCH   1  18
TORSDOF 5
ENDMDL
MODEL 9
REMARK VINA RESULT:     -10.8      5.513     11.227
REMARK  Name = 24978486
REMARK  5 active torsions:
REMARK  status: ('A' for Active; 'I' for Inactive)
REMARK    1  A    between atoms: O_1  and  C_6
REMARK    2  A    between atoms: O_1  and  C_18
REMARK    3  A    between atoms: C_18  and  C_20
REMARK    4  A    between atoms: N_19  and  C_26
REMARK    5  A    between atoms: C_26  and  C_29
REMARK                            x       y       z     vdW  Elec       q    Type
REMARK                         _______ _______ _______ _____ _____    ______ ____
ROOT
ATOM      1  O   UNL     1      34.008 -12.968 -23.130  0.00  0.00    -0.479 OA
ENDROOT
BRANCH   1   6
ATOM      2  N   UNL     1      31.917  -8.779 -21.882  0.00  0.00    -0.332 NA
ATOM      3  N   UNL     1      33.796  -8.715 -23.390  0.00  0.00    -0.317 NA
ATOM      4  N   UNL     1      34.882 -10.666 -24.062  0.00  0.00    -0.335 N 
ATOM      5  N   UNL     1      32.718  -6.743 -22.728  0.00  0.00    -0.283 N 
ATOM      6  C   UNL     1      33.070 -12.226 -22.457  0.00  0.00    +0.130 C 
ATOM      7  C   UNL     1      32.987 -10.825 -22.531  0.00  0.00    +0.177 C 
ATOM      8  C   UNL     1      32.170 -12.934 -21.667  0.00  0.00    +0.033 C 
ATOM      9  C   UNL     1      32.005 -10.120 -21.817  0.00  0.00    +0.137 C 
ATOM     10  C   UNL     1      33.855 -10.057 -23.303  0.00  0.00    +0.181 C 
ATOM     11  C   UNL     1      31.194 -12.248 -20.954  0.00  0.00    +0.005 C 
ATOM     12  C   UNL     1      31.118 -10.853 -21.034  0.00  0.00    +0.030 C 
ATOM     13  C   UNL     1      32.817  -8.150 -22.664  0.00  0.00    +0.197 C 
ATOM     14  H   UNL     1      35.489 -10.112 -24.603  0.00  0.00    +0.144 HD
ATOM     15  H   UNL     1      34.988 -11.645 -24.048  0.00  0.00    +0.144 HD
ATOM     16  H   UNL     1      32.019  -6.275 -22.216  0.00  0.00    +0.156 HD
ATOM     17  H   UNL     1      33.347  -6.229 -23.285  0.00  0.00    +0.156 HD
ENDBRANCH   1   6
BRANCH   1  18
ATOM     18  C   UNL     1      33.584 -14.208 -23.665  0.00  0.00    +0.205 C 
BRANCH  18  20
ATOM     19  N   UNL     1      34.948 -18.028 -22.180  0.00  0.00    +0.390 N 
ATOM     20  C   UNL     1      34.528 -15.300 -23.168  0.00  0.00    +0.040 C 
ATOM     21  C   UNL     1      34.489 -16.523 -24.090  0.00  0.00    -0.019 C 
ATOM     22  C   UNL     1      34.178 -15.719 -21.736  0.00  0.00    -0.019 C 
ATOM     23  C   UNL     1      35.356 -17.660 -23.542  0.00  0.00    -0.077 C 
ATOM     24  C   UNL     1      35.055 -16.882 -21.267  0.00  0.00    -0.077 C 
ATOM     25  H   UNL     1      33.970 -18.316 -22.210  0.00  0.00    -0.079 HD
BRANCH  19  26
ATOM     26  C   UNL     1      35.751 -19.148 -21.691  0.00  0.00    -0.049 C 
BRANCH  26  29
ATOM     27 CL   UNL     1      37.284 -20.833 -19.668  0.00  0.00    -0.082 Cl
ATOM     28 CL   UNL     1      35.464 -22.743 -17.834  0.00  0.00    -0.081 Cl
ATOM     29  C   UNL     1      34.953 -20.065 -20.802  0.00  0.00    -0.032 C 
ATOM     30  C   UNL     1      35.559 -20.877 -19.844  0.00  0.00    +0.062 C 
ATOM     31  C   UNL     1      33.567 -20.086 -20.958  0.00  0.00    -0.005 C 
ATOM     32  C   UNL     1      34.779 -21.711 -19.041  0.00  0.00    +0.068 C 
ATOM     33  C   UNL     1      32.787 -20.918 -20.156  0.00  0.00    +0.001 C 
ATOM     34  C   UNL     1      33.394 -21.731 -19.198  0.00  0.00    +0.012 C 
ENDBRANCH  26  29
ENDBRANCH  19  26
ENDBRANCH  18  20
ENDBRANCH   1  18
TORSDOF 5
ENDMDL
