MODEL 1
REMARK VINA RESULT:     -11.6      0.000      0.000
REMARK  Name = 25151352
REMARK  5 active torsions:
REMARK  status: ('A' for Active; 'I' for Inactive)
REMARK    1  A    between atoms: N_1  and  C_21
REMARK    2  A    between atoms: C_3  and  C_9
REMARK    3  A    between atoms: C_9  and  C_13
REMARK    4  A    between atoms: C_21  and  C_23
REMARK    5  A    between atoms: C_27  and  C_31
REMARK                            x       y       z     vdW  Elec       q    Type
REMARK                         _______ _______ _______ _____ _____    ______ ____
ROOT
ATOM      1  N   UNL     1      35.069 -22.371 -18.856  0.00  0.00    -0.314 N 
ATOM      2  N   UNL     1      36.450 -20.650 -19.757  0.00  0.00    -0.230 NA
ATOM      3  C   UNL     1      35.526 -19.108 -21.372  0.00  0.00    +0.002 C 
ATOM      4  C   UNL     1      34.297 -19.755 -21.297  0.00  0.00    +0.000 C 
ATOM      5  C   UNL     1      36.561 -19.590 -20.588  0.00  0.00    +0.096 C 
ATOM      6  C   UNL     1      35.241 -21.254 -19.712  0.00  0.00    +0.129 C 
ATOM      7  C   UNL     1      34.144 -20.849 -20.454  0.00  0.00    +0.034 C 
ATOM      8  H   UNL     1      35.835 -22.677 -18.319  0.00  0.00    +0.149 HD
ENDROOT
BRANCH   3   9
ATOM      9  C   UNL     1      35.724 -17.906 -22.284  0.00  0.00    +0.056 C 
BRANCH   9  13
ATOM     10 CL   UNL     1      33.382 -14.238 -26.326  0.00  0.00    -0.081 Cl
ATOM     11  N   UNL     1      33.954 -15.151 -20.657  0.00  0.00    -0.297 N 
ATOM     12  N   UNL     1      33.045 -13.727 -22.375  0.00  0.00    -0.228 NA
ATOM     13  C   UNL     1      34.954 -16.708 -21.892  0.00  0.00    -0.000 C 
ATOM     14  C   UNL     1      34.353 -15.765 -22.766  0.00  0.00    +0.030 C 
ATOM     15  C   UNL     1      33.737 -14.808 -21.965  0.00  0.00    +0.132 C 
ATOM     16  C   UNL     1      34.693 -16.304 -20.600  0.00  0.00    +0.059 C 
ATOM     17  C   UNL     1      34.253 -15.605 -24.158  0.00  0.00    +0.015 C 
ATOM     18  C   UNL     1      33.547 -14.502 -24.636  0.00  0.00    +0.077 C 
ATOM     19  C   UNL     1      32.983 -13.622 -23.723  0.00  0.00    +0.112 C 
ATOM     20  H   UNL     1      33.629 -14.647 -19.877  0.00  0.00    +0.154 HD
ENDBRANCH   9  13
ENDBRANCH   3   9
BRANCH   1  21
ATOM     21  C   UNL     1      33.831 -23.070 -18.743  0.00  0.00    +0.117 C 
BRANCH  21  23
ATOM     22  N   UNL     1      34.298 -23.981 -15.101  0.00  0.00    -0.240 NA
ATOM     23  C   UNL     1      33.516 -23.354 -17.301  0.00  0.00    +0.017 C 
ATOM     24  C   UNL     1      32.213 -23.265 -16.820  0.00  0.00    +0.000 C 
ATOM     25  C   UNL     1      34.513 -23.712 -16.408  0.00  0.00    +0.096 C 
ATOM     26  C   UNL     1      31.953 -23.535 -15.481  0.00  0.00    +0.023 C 
ATOM     27  C   UNL     1      33.021 -23.885 -14.670  0.00  0.00    +0.153 C 
BRANCH  27  31
ATOM     28  F   UNL     1      32.293 -25.436 -13.001  0.00  0.00    -0.164 F 
ATOM     29  F   UNL     1      33.898 -24.084 -12.453  0.00  0.00    -0.164 F 
ATOM     30  F   UNL     1      31.869 -23.331 -12.665  0.00  0.00    -0.164 F 
ATOM     31  C   UNL     1      32.777 -24.180 -13.228  0.00  0.00    +0.435 C 
ENDBRANCH  27  31
ENDBRANCH  21  23
ENDBRANCH   1  21
TORSDOF 5
ENDMDL
MODEL 2
REMARK VINA RESULT:     -11.5      1.514      1.787
REMARK  Name = 25151352
REMARK  5 active torsions:
REMARK  status: ('A' for Active; 'I' for Inactive)
REMARK    1  A    between atoms: N_1  and  C_21
REMARK    2  A    between atoms: C_3  and  C_9
REMARK    3  A    between atoms: C_9  and  C_13
REMARK    4  A    between atoms: C_21  and  C_23
REMARK    5  A    between atoms: C_27  and  C_31
REMARK                            x       y       z     vdW  Elec       q    Type
REMARK                         _______ _______ _______ _____ _____    ______ ____
ROOT
ATOM      1  N   UNL     1      34.924 -22.467 -18.989  0.00  0.00    -0.314 N 
ATOM      2  N   UNL     1      36.439 -20.825 -19.818  0.00  0.00    -0.230 NA
ATOM      3  C   UNL     1      35.584 -18.939 -21.065  0.00  0.00    +0.002 C 
ATOM      4  C   UNL     1      34.287 -19.421 -20.918  0.00  0.00    +0.000 C 
ATOM      5  C   UNL     1      36.616 -19.672 -20.502  0.00  0.00    +0.096 C 
ATOM      6  C   UNL     1      35.166 -21.262 -19.697  0.00  0.00    +0.129 C 
ATOM      7  C   UNL     1      34.066 -20.604 -20.222  0.00  0.00    +0.034 C 
ATOM      8  H   UNL     1      35.690 -22.952 -18.607  0.00  0.00    +0.149 HD
ENDROOT
BRANCH   3   9
ATOM      9  C   UNL     1      35.858 -17.647 -21.819  0.00  0.00    +0.056 C 
BRANCH   9  13
ATOM     10 CL   UNL     1      33.775 -12.436 -23.765  0.00  0.00    -0.081 Cl
ATOM     11  N   UNL     1      34.201 -18.044 -25.055  0.00  0.00    -0.297 N 
ATOM     12  N   UNL     1      33.395 -15.884 -25.754  0.00  0.00    -0.228 NA
ATOM     13  C   UNL     1      35.144 -17.528 -23.108  0.00  0.00    -0.000 C 
ATOM     14  C   UNL     1      34.605 -16.341 -23.669  0.00  0.00    +0.030 C 
ATOM     15  C   UNL     1      34.025 -16.697 -24.883  0.00  0.00    +0.132 C 
ATOM     16  C   UNL     1      34.880 -18.560 -23.982  0.00  0.00    +0.059 C 
ATOM     17  C   UNL     1      34.537 -14.990 -23.292  0.00  0.00    +0.015 C 
ATOM     18  C   UNL     1      33.897 -14.104 -24.158  0.00  0.00    +0.077 C 
ATOM     19  C   UNL     1      33.359 -14.596 -25.339  0.00  0.00    +0.112 C 
ATOM     20  H   UNL     1      33.888 -18.563 -25.831  0.00  0.00    +0.154 HD
ENDBRANCH   9  13
ENDBRANCH   3   9
BRANCH   1  21
ATOM     21  C   UNL     1      33.614 -23.003 -18.810  0.00  0.00    +0.117 C 
BRANCH  21  23
ATOM     22  N   UNL     1      34.250 -23.921 -15.195  0.00  0.00    -0.240 NA
ATOM     23  C   UNL     1      33.364 -23.308 -17.359  0.00  0.00    +0.017 C 
ATOM     24  C   UNL     1      32.078 -23.268 -16.829  0.00  0.00    +0.000 C 
ATOM     25  C   UNL     1      34.406 -23.637 -16.507  0.00  0.00    +0.096 C 
ATOM     26  C   UNL     1      31.878 -23.556 -15.484  0.00  0.00    +0.023 C 
ATOM     27  C   UNL     1      32.987 -23.873 -14.716  0.00  0.00    +0.153 C 
BRANCH  27  31
ATOM     28  F   UNL     1      32.320 -25.440 -13.036  0.00  0.00    -0.164 F 
ATOM     29  F   UNL     1      33.965 -24.114 -12.546  0.00  0.00    -0.164 F 
ATOM     30  F   UNL     1      31.938 -23.335 -12.651  0.00  0.00    -0.164 F 
ATOM     31  C   UNL     1      32.808 -24.186 -13.268  0.00  0.00    +0.435 C 
ENDBRANCH  27  31
ENDBRANCH  21  23
ENDBRANCH   1  21
TORSDOF 5
ENDMDL
MODEL 3
REMARK VINA RESULT:     -11.5      1.977      2.511
REMARK  Name = 25151352
REMARK  5 active torsions:
REMARK  status: ('A' for Active; 'I' for Inactive)
REMARK    1  A    between atoms: N_1  and  C_21
REMARK    2  A    between atoms: C_3  and  C_9
REMARK    3  A    between atoms: C_9  and  C_13
REMARK    4  A    between atoms: C_21  and  C_23
REMARK    5  A    between atoms: C_27  and  C_31
REMARK                            x       y       z     vdW  Elec       q    Type
REMARK                         _______ _______ _______ _____ _____    ______ ____
ROOT
ATOM      1  N   UNL     1      36.606 -21.586 -18.688  0.00  0.00    -0.314 N 
ATOM      2  N   UNL     1      37.250 -19.852 -20.191  0.00  0.00    -0.230 NA
ATOM      3  C   UNL     1      35.612 -18.923 -21.706  0.00  0.00    +0.002 C 
ATOM      4  C   UNL     1      34.643 -19.779 -21.195  0.00  0.00    +0.000 C 
ATOM      5  C   UNL     1      36.889 -18.998 -21.175  0.00  0.00    +0.096 C 
ATOM      6  C   UNL     1      36.282 -20.670 -19.720  0.00  0.00    +0.129 C 
ATOM      7  C   UNL     1      34.976 -20.673 -20.183  0.00  0.00    +0.034 C 
ATOM      8  H   UNL     1      37.527 -21.602 -18.343  0.00  0.00    +0.149 HD
ENDROOT
BRANCH   3   9
ATOM      9  C   UNL     1      35.278 -17.933 -22.812  0.00  0.00    +0.056 C 
BRANCH   9  13
ATOM     10 CL   UNL     1      33.363 -13.740 -26.557  0.00  0.00    -0.081 Cl
ATOM     11  N   UNL     1      34.317 -14.912 -20.988  0.00  0.00    -0.297 N 
ATOM     12  N   UNL     1      33.558 -13.281 -22.590  0.00  0.00    -0.228 NA
ATOM     13  C   UNL     1      34.827 -16.610 -22.332  0.00  0.00    -0.000 C 
ATOM     14  C   UNL     1      34.352 -15.537 -23.131  0.00  0.00    +0.030 C 
ATOM     15  C   UNL     1      34.042 -14.495 -22.264  0.00  0.00    +0.132 C 
ATOM     16  C   UNL     1      34.794 -16.197 -21.018  0.00  0.00    +0.059 C 
ATOM     17  C   UNL     1      34.144 -15.320 -24.503  0.00  0.00    +0.015 C 
ATOM     18  C   UNL     1      33.644 -14.080 -24.897  0.00  0.00    +0.077 C 
ATOM     19  C   UNL     1      33.379 -13.127 -23.923  0.00  0.00    +0.112 C 
ATOM     20  H   UNL     1      34.190 -14.373 -20.175  0.00  0.00    +0.154 HD
ENDBRANCH   9  13
ENDBRANCH   3   9
BRANCH   1  21
ATOM     21  C   UNL     1      35.650 -22.485 -18.130  0.00  0.00    +0.117 C 
BRANCH  21  23
ATOM     22  N   UNL     1      37.678 -22.903 -14.963  0.00  0.00    -0.240 NA
ATOM     23  C   UNL     1      36.006 -22.816 -16.707  0.00  0.00    +0.017 C 
ATOM     24  C   UNL     1      35.053 -23.322 -15.828  0.00  0.00    +0.000 C 
ATOM     25  C   UNL     1      37.292 -22.626 -16.229  0.00  0.00    +0.096 C 
ATOM     26  C   UNL     1      35.412 -23.619 -14.518  0.00  0.00    +0.023 C 
ATOM     27  C   UNL     1      36.725 -23.393 -14.138  0.00  0.00    +0.153 C 
BRANCH  27  31
ATOM     28  F   UNL     1      37.663 -22.625 -12.076  0.00  0.00    -0.164 F 
ATOM     29  F   UNL     1      36.126 -24.150 -11.949  0.00  0.00    -0.164 F 
ATOM     30  F   UNL     1      38.108 -24.665 -12.681  0.00  0.00    -0.164 F 
ATOM     31  C   UNL     1      37.145 -23.700 -12.740  0.00  0.00    +0.435 C 
ENDBRANCH  27  31
ENDBRANCH  21  23
ENDBRANCH   1  21
TORSDOF 5
ENDMDL
MODEL 4
REMARK VINA RESULT:     -11.3      7.032     11.780
REMARK  Name = 25151352
REMARK  5 active torsions:
REMARK  status: ('A' for Active; 'I' for Inactive)
REMARK    1  A    between atoms: N_1  and  C_21
REMARK    2  A    between atoms: C_3  and  C_9
REMARK    3  A    between atoms: C_9  and  C_13
REMARK    4  A    between atoms: C_21  and  C_23
REMARK    5  A    between atoms: C_27  and  C_31
REMARK                            x       y       z     vdW  Elec       q    Type
REMARK                         _______ _______ _______ _____ _____    ______ ____
ROOT
ATOM      1  N   UNL     1      34.064 -13.940 -22.388  0.00  0.00    -0.314 N 
ATOM      2  N   UNL     1      34.526 -15.796 -20.965  0.00  0.00    -0.230 NA
ATOM      3  C   UNL     1      35.201 -17.902 -21.941  0.00  0.00    +0.002 C 
ATOM      4  C   UNL     1      35.114 -17.349 -23.214  0.00  0.00    +0.000 C 
ATOM      5  C   UNL     1      34.900 -17.091 -20.859  0.00  0.00    +0.096 C 
ATOM      6  C   UNL     1      34.451 -15.294 -22.218  0.00  0.00    +0.129 C 
ATOM      7  C   UNL     1      34.732 -16.021 -23.364  0.00  0.00    +0.034 C 
ATOM      8  H   UNL     1      33.860 -13.405 -21.589  0.00  0.00    +0.149 HD
ENDROOT
BRANCH   3   9
ATOM      9  C   UNL     1      35.618 -19.352 -21.744  0.00  0.00    +0.056 C 
BRANCH   9  13
ATOM     10 CL   UNL     1      37.400 -22.642 -17.131  0.00  0.00    -0.081 Cl
ATOM     11  N   UNL     1      32.783 -21.094 -20.226  0.00  0.00    -0.297 N 
ATOM     12  N   UNL     1      33.608 -22.394 -18.374  0.00  0.00    -0.228 NA
ATOM     13  C   UNL     1      34.666 -20.159 -20.951  0.00  0.00    -0.000 C 
ATOM     14  C   UNL     1      34.978 -20.979 -19.835  0.00  0.00    +0.030 C 
ATOM     15  C   UNL     1      33.782 -21.547 -19.406  0.00  0.00    +0.132 C 
ATOM     16  C   UNL     1      33.308 -20.250 -21.169  0.00  0.00    +0.059 C 
ATOM     17  C   UNL     1      36.143 -21.313 -19.126  0.00  0.00    +0.015 C 
ATOM     18  C   UNL     1      36.020 -22.187 -18.047  0.00  0.00    +0.077 C 
ATOM     19  C   UNL     1      34.762 -22.682 -17.729  0.00  0.00    +0.112 C 
ATOM     20  H   UNL     1      31.832 -21.337 -20.150  0.00  0.00    +0.154 HD
ENDBRANCH   9  13
ENDBRANCH   3   9
BRANCH   1  21
ATOM     21  C   UNL     1      33.959 -13.326 -23.671  0.00  0.00    +0.117 C 
BRANCH  21  23
ATOM     22  N   UNL     1      32.703  -9.910 -22.636  0.00  0.00    -0.240 NA
ATOM     23  C   UNL     1      33.864 -11.832 -23.532  0.00  0.00    +0.017 C 
ATOM     24  C   UNL     1      34.798 -10.995 -24.136  0.00  0.00    +0.000 C 
ATOM     25  C   UNL     1      32.846 -11.244 -22.800  0.00  0.00    +0.096 C 
ATOM     26  C   UNL     1      34.683  -9.617 -23.991  0.00  0.00    +0.023 C 
ATOM     27  C   UNL     1      33.628  -9.129 -23.237  0.00  0.00    +0.153 C 
BRANCH  27  31
ATOM     28  F   UNL     1      32.186  -7.260 -22.851  0.00  0.00    -0.164 F 
ATOM     29  F   UNL     1      34.179  -7.156 -22.001  0.00  0.00    -0.164 F 
ATOM     30  F   UNL     1      33.903  -6.949 -24.149  0.00  0.00    -0.164 F 
ATOM     31  C   UNL     1      33.476  -7.655 -23.061  0.00  0.00    +0.435 C 
ENDBRANCH  27  31
ENDBRANCH  21  23
ENDBRANCH   1  21
TORSDOF 5
ENDMDL
MODEL 5
REMARK VINA RESULT:     -11.2      3.060      5.092
REMARK  Name = 25151352
REMARK  5 active torsions:
REMARK  status: ('A' for Active; 'I' for Inactive)
REMARK    1  A    between atoms: N_1  and  C_21
REMARK    2  A    between atoms: C_3  and  C_9
REMARK    3  A    between atoms: C_9  and  C_13
REMARK    4  A    between atoms: C_21  and  C_23
REMARK    5  A    between atoms: C_27  and  C_31
REMARK                            x       y       z     vdW  Elec       q    Type
REMARK                         _______ _______ _______ _____ _____    ______ ____
ROOT
ATOM      1  N   UNL     1      35.760 -18.840 -22.734  0.00  0.00    -0.314 N 
ATOM      2  N   UNL     1      34.568 -17.432 -24.243  0.00  0.00    -0.230 NA
ATOM      3  C   UNL     1      34.181 -15.119 -23.657  0.00  0.00    +0.002 C 
ATOM      4  C   UNL     1      34.854 -15.304 -22.454  0.00  0.00    +0.000 C 
ATOM      5  C   UNL     1      34.067 -16.205 -24.510  0.00  0.00    +0.096 C 
ATOM      6  C   UNL     1      35.214 -17.574 -23.064  0.00  0.00    +0.129 C 
ATOM      7  C   UNL     1      35.383 -16.551 -22.144  0.00  0.00    +0.034 C 
ATOM      8  H   UNL     1      35.653 -19.581 -23.372  0.00  0.00    +0.149 HD
ENDROOT
BRANCH   3   9
ATOM      9  C   UNL     1      33.593 -13.765 -24.025  0.00  0.00    +0.056 C 
BRANCH   9  13
ATOM     10 CL   UNL     1      33.581  -7.855 -23.435  0.00  0.00    -0.081 Cl
ATOM     11  N   UNL     1      31.619 -12.761 -21.114  0.00  0.00    -0.297 N 
ATOM     12  N   UNL     1      31.677 -10.357 -20.965  0.00  0.00    -0.228 NA
ATOM     13  C   UNL     1      32.866 -13.095 -22.926  0.00  0.00    -0.000 C 
ATOM     14  C   UNL     1      32.795 -11.698 -22.687  0.00  0.00    +0.030 C 
ATOM     15  C   UNL     1      32.010 -11.523 -21.552  0.00  0.00    +0.132 C 
ATOM     16  C   UNL     1      32.134 -13.724 -21.942  0.00  0.00    +0.059 C 
ATOM     17  C   UNL     1      33.306 -10.545 -23.304  0.00  0.00    +0.015 C 
ATOM     18  C   UNL     1      32.992  -9.311 -22.738  0.00  0.00    +0.077 C 
ATOM     19  C   UNL     1      32.197  -9.281 -21.600  0.00  0.00    +0.112 C 
ATOM     20  H   UNL     1      31.055 -12.932 -20.327  0.00  0.00    +0.154 HD
ENDBRANCH   9  13
ENDBRANCH   3   9
BRANCH   1  21
ATOM     21  C   UNL     1      36.458 -19.082 -21.515  0.00  0.00    +0.117 C 
BRANCH  21  23
ATOM     22  N   UNL     1      35.776 -21.899 -19.083  0.00  0.00    -0.240 NA
ATOM     23  C   UNL     1      35.712 -20.076 -20.669  0.00  0.00    +0.017 C 
ATOM     24  C   UNL     1      34.321 -20.115 -20.668  0.00  0.00    +0.000 C 
ATOM     25  C   UNL     1      36.386 -20.981 -19.866  0.00  0.00    +0.096 C 
ATOM     26  C   UNL     1      33.658 -21.046 -19.876  0.00  0.00    +0.023 C 
ATOM     27  C   UNL     1      34.425 -21.907 -19.108  0.00  0.00    +0.153 C 
BRANCH  27  31
ATOM     28  F   UNL     1      34.382 -23.139 -17.058  0.00  0.00    -0.164 F 
ATOM     29  F   UNL     1      32.467 -22.579 -17.908  0.00  0.00    -0.164 F 
ATOM     30  F   UNL     1      33.654 -24.142 -18.845  0.00  0.00    -0.164 F 
ATOM     31  C   UNL     1      33.746 -22.919 -18.246  0.00  0.00    +0.435 C 
ENDBRANCH  27  31
ENDBRANCH  21  23
ENDBRANCH   1  21
TORSDOF 5
ENDMDL
MODEL 6
REMARK VINA RESULT:     -11.0      7.087     11.855
REMARK  Name = 25151352
REMARK  5 active torsions:
REMARK  status: ('A' for Active; 'I' for Inactive)
REMARK    1  A    between atoms: N_1  and  C_21
REMARK    2  A    between atoms: C_3  and  C_9
REMARK    3  A    between atoms: C_9  and  C_13
REMARK    4  A    between atoms: C_21  and  C_23
REMARK    5  A    between atoms: C_27  and  C_31
REMARK                            x       y       z     vdW  Elec       q    Type
REMARK                         _______ _______ _______ _____ _____    ______ ____
ROOT
ATOM      1  N   UNL     1      33.990 -12.905 -22.525  0.00  0.00    -0.314 N 
ATOM      2  N   UNL     1      34.375 -15.038 -21.534  0.00  0.00    -0.230 NA
ATOM      3  C   UNL     1      34.767 -16.955 -22.953  0.00  0.00    +0.002 C 
ATOM      4  C   UNL     1      34.638 -16.154 -24.083  0.00  0.00    +0.000 C 
ATOM      5  C   UNL     1      34.628 -16.354 -21.713  0.00  0.00    +0.096 C 
ATOM      6  C   UNL     1      34.255 -14.292 -22.655  0.00  0.00    +0.129 C 
ATOM      7  C   UNL     1      34.377 -14.796 -23.940  0.00  0.00    +0.034 C 
ATOM      8  H   UNL     1      33.899 -12.524 -21.623  0.00  0.00    +0.149 HD
ENDROOT
BRANCH   3   9
ATOM      9  C   UNL     1      35.055 -18.444 -23.077  0.00  0.00    +0.056 C 
BRANCH   9  13
ATOM     10 CL   UNL     1      33.134 -22.313 -19.001  0.00  0.00    -0.081 Cl
ATOM     11  N   UNL     1      37.761 -19.371 -20.799  0.00  0.00    -0.297 N 
ATOM     12  N   UNL     1      36.883 -20.936 -19.192  0.00  0.00    -0.228 NA
ATOM     13  C   UNL     1      35.952 -18.982 -22.034  0.00  0.00    -0.000 C 
ATOM     14  C   UNL     1      35.604 -19.906 -21.013  0.00  0.00    +0.030 C 
ATOM     15  C   UNL     1      36.754 -20.128 -20.262  0.00  0.00    +0.132 C 
ATOM     16  C   UNL     1      37.285 -18.670 -21.877  0.00  0.00    +0.059 C 
ATOM     17  C   UNL     1      34.439 -20.590 -20.631  0.00  0.00    +0.015 C 
ATOM     18  C   UNL     1      34.517 -21.441 -19.529  0.00  0.00    +0.077 C 
ATOM     19  C   UNL     1      35.731 -21.569 -18.868  0.00  0.00    +0.112 C 
ATOM     20  H   UNL     1      38.685 -19.336 -20.464  0.00  0.00    +0.154 HD
ENDBRANCH   9  13
ENDBRANCH   3   9
BRANCH   1  21
ATOM     21  C   UNL     1      33.848 -12.041 -23.651  0.00  0.00    +0.117 C 
BRANCH  21  23
ATOM     22  N   UNL     1      31.928  -9.220 -22.016  0.00  0.00    -0.240 NA
ATOM     23  C   UNL     1      33.466 -10.656 -23.207  0.00  0.00    +0.017 C 
ATOM     24  C   UNL     1      34.243  -9.554 -23.547  0.00  0.00    +0.000 C 
ATOM     25  C   UNL     1      32.329 -10.437 -22.447  0.00  0.00    +0.096 C 
ATOM     26  C   UNL     1      33.863  -8.285 -23.122  0.00  0.00    +0.023 C 
ATOM     27  C   UNL     1      32.709  -8.173 -22.365  0.00  0.00    +0.153 C 
BRANCH  27  31
ATOM     28  F   UNL     1      32.665  -6.542 -20.616  0.00  0.00    -0.164 F 
ATOM     29  F   UNL     1      32.753  -5.798 -22.651  0.00  0.00    -0.164 F 
ATOM     30  F   UNL     1      30.915  -6.683 -21.898  0.00  0.00    -0.164 F 
ATOM     31  C   UNL     1      32.272  -6.827 -21.892  0.00  0.00    +0.435 C 
ENDBRANCH  27  31
ENDBRANCH  21  23
ENDBRANCH   1  21
TORSDOF 5
ENDMDL
MODEL 7
REMARK VINA RESULT:     -11.0      5.494      9.936
REMARK  Name = 25151352
REMARK  5 active torsions:
REMARK  status: ('A' for Active; 'I' for Inactive)
REMARK    1  A    between atoms: N_1  and  C_21
REMARK    2  A    between atoms: C_3  and  C_9
REMARK    3  A    between atoms: C_9  and  C_13
REMARK    4  A    between atoms: C_21  and  C_23
REMARK    5  A    between atoms: C_27  and  C_31
REMARK                            x       y       z     vdW  Elec       q    Type
REMARK                         _______ _______ _______ _____ _____    ______ ____
ROOT
ATOM      1  N   UNL     1      35.672 -16.920 -21.958  0.00  0.00    -0.314 N 
ATOM      2  N   UNL     1      36.864 -18.508 -20.639  0.00  0.00    -0.230 NA
ATOM      3  C   UNL     1      35.894 -20.685 -20.238  0.00  0.00    +0.002 C 
ATOM      4  C   UNL     1      34.778 -20.336 -20.990  0.00  0.00    +0.000 C 
ATOM      5  C   UNL     1      36.901 -19.744 -20.094  0.00  0.00    +0.096 C 
ATOM      6  C   UNL     1      35.763 -18.203 -21.362  0.00  0.00    +0.129 C 
ATOM      7  C   UNL     1      34.703 -19.073 -21.566  0.00  0.00    +0.034 C 
ATOM      8  H   UNL     1      36.412 -16.285 -21.826  0.00  0.00    +0.149 HD
ENDROOT
BRANCH   3   9
ATOM      9  C   UNL     1      36.007 -22.060 -19.596  0.00  0.00    +0.056 C 
BRANCH   9  13
ATOM     10 CL   UNL     1      36.672 -23.492 -13.870  0.00  0.00    -0.081 Cl
ATOM     11  N   UNL     1      32.779 -22.885 -18.086  0.00  0.00    -0.297 N 
ATOM     12  N   UNL     1      33.157 -23.449 -15.775  0.00  0.00    -0.228 NA
ATOM     13  C   UNL     1      34.855 -22.436 -18.750  0.00  0.00    -0.000 C 
ATOM     14  C   UNL     1      34.895 -22.795 -17.377  0.00  0.00    +0.030 C 
ATOM     15  C   UNL     1      33.585 -23.069 -16.994  0.00  0.00    +0.132 C 
ATOM     16  C   UNL     1      33.540 -22.500 -19.160  0.00  0.00    +0.059 C 
ATOM     17  C   UNL     1      35.895 -22.924 -16.400  0.00  0.00    +0.015 C 
ATOM     18  C   UNL     1      35.506 -23.314 -15.119  0.00  0.00    +0.077 C 
ATOM     19  C   UNL     1      34.161 -23.557 -14.874  0.00  0.00    +0.112 C 
ATOM     20  H   UNL     1      31.803 -23.010 -18.099  0.00  0.00    +0.154 HD
ENDBRANCH   9  13
ENDBRANCH   3   9
BRANCH   1  21
ATOM     21  C   UNL     1      34.550 -16.512 -22.738  0.00  0.00    +0.117 C 
BRANCH  21  23
ATOM     22  N   UNL     1      32.754 -13.239 -22.119  0.00  0.00    -0.240 NA
ATOM     23  C   UNL     1      33.787 -15.423 -22.034  0.00  0.00    +0.017 C 
ATOM     24  C   UNL     1      33.411 -15.558 -20.701  0.00  0.00    +0.000 C 
ATOM     25  C   UNL     1      33.437 -14.255 -22.691  0.00  0.00    +0.096 C 
ATOM     26  C   UNL     1      32.707 -14.534 -20.078  0.00  0.00    +0.023 C 
ATOM     27  C   UNL     1      32.405 -13.406 -20.823  0.00  0.00    +0.153 C 
BRANCH  27  31
ATOM     28  F   UNL     1      30.354 -12.195 -20.603  0.00  0.00    -0.164 F 
ATOM     29  F   UNL     1      31.580 -12.382 -18.824  0.00  0.00    -0.164 F 
ATOM     30  F   UNL     1      32.205 -11.067 -20.440  0.00  0.00    -0.164 F 
ATOM     31  C   UNL     1      31.650 -12.288 -20.185  0.00  0.00    +0.435 C 
ENDBRANCH  27  31
ENDBRANCH  21  23
ENDBRANCH   1  21
TORSDOF 5
ENDMDL
MODEL 8
REMARK VINA RESULT:     -11.0      5.793     10.498
REMARK  Name = 25151352
REMARK  5 active torsions:
REMARK  status: ('A' for Active; 'I' for Inactive)
REMARK    1  A    between atoms: N_1  and  C_21
REMARK    2  A    between atoms: C_3  and  C_9
REMARK    3  A    between atoms: C_9  and  C_13
REMARK    4  A    between atoms: C_21  and  C_23
REMARK    5  A    between atoms: C_27  and  C_31
REMARK                            x       y       z     vdW  Elec       q    Type
REMARK                         _______ _______ _______ _____ _____    ______ ____
ROOT
ATOM      1  N   UNL     1      34.109 -19.367 -21.145  0.00  0.00    -0.314 N 
ATOM      2  N   UNL     1      32.997 -21.095 -19.938  0.00  0.00    -0.230 NA
ATOM      3  C   UNL     1      34.300 -22.686 -18.667  0.00  0.00    +0.002 C 
ATOM      4  C   UNL     1      35.472 -22.049 -19.059  0.00  0.00    +0.000 C 
ATOM      5  C   UNL     1      33.098 -22.174 -19.129  0.00  0.00    +0.096 C 
ATOM      6  C   UNL     1      34.158 -20.503 -20.299  0.00  0.00    +0.129 C 
ATOM      7  C   UNL     1      35.409 -20.937 -19.891  0.00  0.00    +0.034 C 
ATOM      8  H   UNL     1      33.232 -19.041 -21.448  0.00  0.00    +0.149 HD
ENDROOT
BRANCH   3   9
ATOM      9  C   UNL     1      34.336 -23.904 -17.757  0.00  0.00    +0.056 C 
BRANCH   9  13
ATOM     10 CL   UNL     1      28.626 -23.777 -16.131  0.00  0.00    -0.081 Cl
ATOM     11  N   UNL     1      34.026 -23.190 -14.183  0.00  0.00    -0.297 N 
ATOM     12  N   UNL     1      31.682 -23.161 -13.628  0.00  0.00    -0.228 NA
ATOM     13  C   UNL     1      33.932 -23.636 -16.361  0.00  0.00    -0.000 C 
ATOM     14  C   UNL     1      32.605 -23.581 -15.861  0.00  0.00    +0.030 C 
ATOM     15  C   UNL     1      32.698 -23.302 -14.501  0.00  0.00    +0.132 C 
ATOM     16  C   UNL     1      34.785 -23.391 -15.306  0.00  0.00    +0.059 C 
ATOM     17  C   UNL     1      31.318 -23.736 -16.403  0.00  0.00    +0.015 C 
ATOM     18  C   UNL     1      30.230 -23.601 -15.542  0.00  0.00    +0.077 C 
ATOM     19  C   UNL     1      30.467 -23.320 -14.204  0.00  0.00    +0.112 C 
ATOM     20  H   UNL     1      34.380 -22.996 -13.286  0.00  0.00    +0.154 HD
ENDBRANCH   9  13
ENDBRANCH   3   9
BRANCH   1  21
ATOM     21  C   UNL     1      35.282 -18.679 -21.576  0.00  0.00    +0.117 C 
BRANCH  21  23
ATOM     22  N   UNL     1      34.250 -15.044 -21.763  0.00  0.00    -0.240 NA
ATOM     23  C   UNL     1      34.924 -17.334 -22.144  0.00  0.00    +0.017 C 
ATOM     24  C   UNL     1      34.926 -17.112 -23.518  0.00  0.00    +0.000 C 
ATOM     25  C   UNL     1      34.582 -16.276 -21.318  0.00  0.00    +0.096 C 
ATOM     26  C   UNL     1      34.589 -15.857 -24.014  0.00  0.00    +0.023 C 
ATOM     27  C   UNL     1      34.263 -14.866 -23.103  0.00  0.00    +0.153 C 
BRANCH  27  31
ATOM     28  F   UNL     1      32.699 -13.055 -23.127  0.00  0.00    -0.164 F 
ATOM     29  F   UNL     1      34.802 -12.540 -23.264  0.00  0.00    -0.164 F 
ATOM     30  F   UNL     1      33.796 -13.456 -24.961  0.00  0.00    -0.164 F 
ATOM     31  C   UNL     1      33.898 -13.507 -23.600  0.00  0.00    +0.435 C 
ENDBRANCH  27  31
ENDBRANCH  21  23
ENDBRANCH   1  21
TORSDOF 5
ENDMDL
MODEL 9
REMARK VINA RESULT:     -10.9      6.709     11.188
REMARK  Name = 25151352
REMARK  5 active torsions:
REMARK  status: ('A' for Active; 'I' for Inactive)
REMARK    1  A    between atoms: N_1  and  C_21
REMARK    2  A    between atoms: C_3  and  C_9
REMARK    3  A    between atoms: C_9  and  C_13
REMARK    4  A    between atoms: C_21  and  C_23
REMARK    5  A    between atoms: C_27  and  C_31
REMARK                            x       y       z     vdW  Elec       q    Type
REMARK                         _______ _______ _______ _____ _____    ______ ____
ROOT
ATOM      1  N   UNL     1      34.146 -18.893 -21.936  0.00  0.00    -0.314 N 
ATOM      2  N   UNL     1      33.178 -20.433 -20.395  0.00  0.00    -0.230 NA
ATOM      3  C   UNL     1      34.616 -21.887 -19.107  0.00  0.00    +0.002 C 
ATOM      4  C   UNL     1      35.736 -21.332 -19.716  0.00  0.00    +0.000 C 
ATOM      5  C   UNL     1      33.371 -21.407 -19.477  0.00  0.00    +0.096 C 
ATOM      6  C   UNL     1      34.290 -19.918 -20.967  0.00  0.00    +0.129 C 
ATOM      7  C   UNL     1      35.579 -20.329 -20.666  0.00  0.00    +0.034 C 
ATOM      8  H   UNL     1      33.240 -18.586 -22.167  0.00  0.00    +0.149 HD
ENDROOT
BRANCH   3   9
ATOM      9  C   UNL     1      34.757 -22.986 -18.063  0.00  0.00    +0.056 C 
BRANCH   9  13
ATOM     10 CL   UNL     1      34.371 -24.938 -12.468  0.00  0.00    -0.081 Cl
ATOM     11  N   UNL     1      37.769 -22.115 -16.181  0.00  0.00    -0.297 N 
ATOM     12  N   UNL     1      37.513 -22.948 -13.935  0.00  0.00    -0.228 NA
ATOM     13  C   UNL     1      35.844 -22.766 -17.087  0.00  0.00    -0.000 C 
ATOM     14  C   UNL     1      35.861 -23.185 -15.731  0.00  0.00    +0.030 C 
ATOM     15  C   UNL     1      37.074 -22.765 -15.194  0.00  0.00    +0.132 C 
ATOM     16  C   UNL     1      37.031 -22.110 -17.336  0.00  0.00    +0.059 C 
ATOM     17  C   UNL     1      34.984 -23.879 -14.882  0.00  0.00    +0.015 C 
ATOM     18  C   UNL     1      35.389 -24.097 -13.566  0.00  0.00    +0.077 C 
ATOM     19  C   UNL     1      36.629 -23.621 -13.162  0.00  0.00    +0.112 C 
ATOM     20  H   UNL     1      38.661 -21.715 -16.076  0.00  0.00    +0.154 HD
ENDBRANCH   9  13
ENDBRANCH   3   9
BRANCH   1  21
ATOM     21  C   UNL     1      35.261 -18.292 -22.590  0.00  0.00    +0.117 C 
BRANCH  21  23
ATOM     22  N   UNL     1      34.089 -16.400 -25.651  0.00  0.00    -0.240 NA
ATOM     23  C   UNL     1      34.807 -17.161 -23.471  0.00  0.00    +0.017 C 
ATOM     24  C   UNL     1      34.681 -15.868 -22.971  0.00  0.00    +0.000 C 
ATOM     25  C   UNL     1      34.501 -17.371 -24.806  0.00  0.00    +0.096 C 
ATOM     26  C   UNL     1      34.259 -14.843 -23.810  0.00  0.00    +0.023 C 
ATOM     27  C   UNL     1      33.978 -15.158 -25.129  0.00  0.00    +0.153 C 
BRANCH  27  31
ATOM     28  F   UNL     1      32.199 -14.163 -26.382  0.00  0.00    -0.164 F 
ATOM     29  F   UNL     1      33.690 -12.821 -25.557  0.00  0.00    -0.164 F 
ATOM     30  F   UNL     1      34.193 -14.095 -27.246  0.00  0.00    -0.164 F 
ATOM     31  C   UNL     1      33.523 -14.081 -26.057  0.00  0.00    +0.435 C 
ENDBRANCH  27  31
ENDBRANCH  21  23
ENDBRANCH   1  21
TORSDOF 5
ENDMDL
