MODEL 1
REMARK VINA RESULT:     -11.4      0.000      0.000
REMARK  Name = 5326866
REMARK  5 active torsions:
REMARK  status: ('A' for Active; 'I' for Inactive)
REMARK    1  A    between atoms: N_5  and  C_14
REMARK    2  A    between atoms: C_6  and  C_28
REMARK    3  A    between atoms: C_15  and  C_20
REMARK    4  A    between atoms: C_20  and  O_21
REMARK    5  A    between atoms: O_21  and  C_23
REMARK                            x       y       z     vdW  Elec       q    Type
REMARK                         _______ _______ _______ _____ _____    ______ ____
ROOT
ATOM      1  O   UNL     1      32.534 -13.934 -22.482  0.00  0.00    -0.252 OA
ATOM      2  N   UNL     1      31.585  -9.864 -21.935  0.00  0.00    -0.239 N 
ATOM      3  N   UNL     1      31.941 -11.144 -22.142  0.00  0.00    -0.166 NA
ATOM      4  N   UNL     1      33.805 -12.127 -23.266  0.00  0.00    -0.252 N 
ATOM      5  N   UNL     1      34.514 -14.284 -23.676  0.00  0.00    -0.268 N 
ATOM      6  C   UNL     1      32.464  -9.033 -22.476  0.00  0.00    +0.045 C 
ATOM      7  C   UNL     1      33.446  -9.695 -23.067  0.00  0.00    +0.048 C 
ATOM      8  C   UNL     1      33.078 -11.035 -22.834  0.00  0.00    +0.154 C 
ATOM      9  C   UNL     1      33.514 -13.499 -23.078  0.00  0.00    +0.309 C 
ATOM     10  H   UNL     1      30.778  -9.583 -21.447  0.00  0.00    +0.174 HD
ATOM     11  H   UNL     1      34.629 -11.925 -23.766  0.00  0.00    +0.158 HD
ATOM     12  H   UNL     1      35.241 -13.792 -24.120  0.00  0.00    +0.156 HD
ENDROOT
BRANCH   5  14
ATOM     13 CL   UNL     1      34.886 -20.180 -23.896  0.00  0.00    -0.082 Cl
ATOM     14  C   UNL     1      34.604 -15.695 -23.718  0.00  0.00    +0.051 C 
ATOM     15  C   UNL     1      35.011 -17.782 -22.607  0.00  0.00    +0.033 C 
ATOM     16  C   UNL     1      34.921 -16.390 -22.563  0.00  0.00    +0.015 C 
ATOM     17  C   UNL     1      34.377 -16.353 -24.917  0.00  0.00    +0.016 C 
ATOM     18  C   UNL     1      34.784 -18.459 -23.805  0.00  0.00    +0.057 C 
ATOM     19  C   UNL     1      34.467 -17.743 -24.960  0.00  0.00    +0.012 C 
BRANCH  15  20
ATOM     20  C   UNL     1      35.353 -18.511 -21.347  0.00  0.00    +0.233 C 
BRANCH  20  21
ATOM     21  O   UNL     1      34.172 -19.080 -20.798  0.00  0.00    -0.469 OA
BRANCH  21  23
ATOM     22  N   UNL     1      33.213 -22.267 -19.313  0.00  0.00    -0.239 NA
ATOM     23  C   UNL     1      34.288 -20.327 -20.242  0.00  0.00    +0.158 C 
ATOM     24  C   UNL     1      35.534 -20.894 -20.046  0.00  0.00    +0.040 C 
ATOM     25  C   UNL     1      33.167 -21.035 -19.867  0.00  0.00    +0.136 C 
ATOM     26  C   UNL     1      35.623 -22.159 -19.478  0.00  0.00    +0.024 C 
ATOM     27  C   UNL     1      34.443 -22.799 -19.132  0.00  0.00    +0.099 C 
ENDBRANCH  21  23
ENDBRANCH  20  21
ENDBRANCH  15  20
ENDBRANCH   5  14
BRANCH   6  28
ATOM     28  C   UNL     1      32.241  -7.507 -22.354  0.00  0.00    +0.033 C 
ATOM     29  C   UNL     1      32.304  -7.084 -20.870  0.00  0.00    +0.006 C 
ATOM     30  C   UNL     1      30.860  -7.130 -22.936  0.00  0.00    +0.006 C 
ATOM     31  C   UNL     1      33.296  -6.671 -23.111  0.00  0.00    +0.006 C 
ENDBRANCH   6  28
TORSDOF 5
ENDMDL
MODEL 2
REMARK VINA RESULT:     -10.9      3.146     11.209
REMARK  Name = 5326866
REMARK  5 active torsions:
REMARK  status: ('A' for Active; 'I' for Inactive)
REMARK    1  A    between atoms: N_5  and  C_14
REMARK    2  A    between atoms: C_6  and  C_28
REMARK    3  A    between atoms: C_15  and  C_20
REMARK    4  A    between atoms: C_20  and  O_21
REMARK    5  A    between atoms: O_21  and  C_23
REMARK                            x       y       z     vdW  Elec       q    Type
REMARK                         _______ _______ _______ _____ _____    ______ ____
ROOT
ATOM      1  O   UNL     1      34.387 -21.295 -19.689  0.00  0.00    -0.252 OA
ATOM      2  N   UNL     1      35.144 -23.643 -16.273  0.00  0.00    -0.239 N 
ATOM      3  N   UNL     1      34.964 -22.873 -17.360  0.00  0.00    -0.166 NA
ATOM      4  N   UNL     1      36.423 -21.390 -18.532  0.00  0.00    -0.252 N 
ATOM      5  N   UNL     1      36.227 -20.034 -20.389  0.00  0.00    -0.268 N 
ATOM      6  C   UNL     1      36.377 -23.520 -15.802  0.00  0.00    +0.045 C 
ATOM      7  C   UNL     1      37.085 -22.674 -16.534  0.00  0.00    +0.048 C 
ATOM      8  C   UNL     1      36.152 -22.283 -17.514  0.00  0.00    +0.154 C 
ATOM      9  C   UNL     1      35.554 -20.941 -19.555  0.00  0.00    +0.309 C 
ATOM     10  H   UNL     1      34.452 -24.222 -15.879  0.00  0.00    +0.174 HD
ATOM     11  H   UNL     1      37.335 -21.019 -18.548  0.00  0.00    +0.158 HD
ATOM     12  H   UNL     1      37.165 -19.847 -20.155  0.00  0.00    +0.156 HD
ENDROOT
BRANCH   5  14
ATOM     13 CL   UNL     1      34.119 -17.236 -25.150  0.00  0.00    -0.082 Cl
ATOM     14  C   UNL     1      35.724 -19.355 -21.524  0.00  0.00    +0.051 C 
ATOM     15  C   UNL     1      35.083 -17.310 -22.603  0.00  0.00    +0.033 C 
ATOM     16  C   UNL     1      35.581 -17.978 -21.483  0.00  0.00    +0.015 C 
ATOM     17  C   UNL     1      35.383 -20.083 -22.652  0.00  0.00    +0.016 C 
ATOM     18  C   UNL     1      34.736 -18.029 -23.746  0.00  0.00    +0.057 C 
ATOM     19  C   UNL     1      34.886 -19.416 -23.770  0.00  0.00    +0.012 C 
BRANCH  15  20
ATOM     20  C   UNL     1      34.939 -15.824 -22.535  0.00  0.00    +0.233 C 
BRANCH  20  21
ATOM     21  O   UNL     1      34.253 -15.473 -21.341  0.00  0.00    -0.469 OA
BRANCH  21  23
ATOM     22  N   UNL     1      32.807 -12.353 -22.549  0.00  0.00    -0.239 NA
ATOM     23  C   UNL     1      33.459 -14.357 -21.390  0.00  0.00    +0.158 C 
ATOM     24  C   UNL     1      32.548 -14.100 -20.381  0.00  0.00    +0.040 C 
ATOM     25  C   UNL     1      33.558 -13.472 -22.441  0.00  0.00    +0.136 C 
ATOM     26  C   UNL     1      31.758 -12.958 -20.456  0.00  0.00    +0.024 C 
ATOM     27  C   UNL     1      31.924 -12.125 -21.551  0.00  0.00    +0.099 C 
ENDBRANCH  21  23
ENDBRANCH  20  21
ENDBRANCH  15  20
ENDBRANCH   5  14
BRANCH   6  28
ATOM     28  C   UNL     1      36.795 -24.324 -14.548  0.00  0.00    +0.033 C 
ATOM     29  C   UNL     1      38.305 -24.641 -14.605  0.00  0.00    +0.006 C 
ATOM     30  C   UNL     1      35.996 -25.645 -14.480  0.00  0.00    +0.006 C 
ATOM     31  C   UNL     1      36.538 -23.570 -13.225  0.00  0.00    +0.006 C 
ENDBRANCH   6  28
TORSDOF 5
ENDMDL
MODEL 3
REMARK VINA RESULT:      -9.8      1.425      1.890
REMARK  Name = 5326866
REMARK  5 active torsions:
REMARK  status: ('A' for Active; 'I' for Inactive)
REMARK    1  A    between atoms: N_5  and  C_14
REMARK    2  A    between atoms: C_6  and  C_28
REMARK    3  A    between atoms: C_15  and  C_20
REMARK    4  A    between atoms: C_20  and  O_21
REMARK    5  A    between atoms: O_21  and  C_23
REMARK                            x       y       z     vdW  Elec       q    Type
REMARK                         _______ _______ _______ _____ _____    ______ ____
ROOT
ATOM      1  O   UNL     1      32.339 -12.595 -22.328  0.00  0.00    -0.252 OA
ATOM      2  N   UNL     1      31.492  -8.591 -21.321  0.00  0.00    -0.239 N 
ATOM      3  N   UNL     1      31.804  -9.846 -21.687  0.00  0.00    -0.166 NA
ATOM      4  N   UNL     1      33.305 -10.710 -23.331  0.00  0.00    -0.252 N 
ATOM      5  N   UNL     1      33.919 -12.820 -24.036  0.00  0.00    -0.268 N 
ATOM      6  C   UNL     1      32.171  -7.705 -22.036  0.00  0.00    +0.045 C 
ATOM      7  C   UNL     1      32.965  -8.304 -22.909  0.00  0.00    +0.048 C 
ATOM      8  C   UNL     1      32.703  -9.665 -22.658  0.00  0.00    +0.154 C 
ATOM      9  C   UNL     1      33.106 -12.099 -23.146  0.00  0.00    +0.309 C 
ATOM     10  H   UNL     1      30.846  -8.361 -20.615  0.00  0.00    +0.174 HD
ATOM     11  H   UNL     1      33.955 -10.457 -24.026  0.00  0.00    +0.158 HD
ATOM     12  H   UNL     1      34.485 -12.282 -24.635  0.00  0.00    +0.156 HD
ENDROOT
BRANCH   5  14
ATOM     13 CL   UNL     1      34.338 -18.682 -24.669  0.00  0.00    -0.082 Cl
ATOM     14  C   UNL     1      34.023 -14.223 -24.179  0.00  0.00    +0.051 C 
ATOM     15  C   UNL     1      34.782 -16.342 -23.346  0.00  0.00    +0.033 C 
ATOM     16  C   UNL     1      34.679 -14.957 -23.204  0.00  0.00    +0.015 C 
ATOM     17  C   UNL     1      33.470 -14.834 -25.292  0.00  0.00    +0.016 C 
ATOM     18  C   UNL     1      34.230 -16.972 -24.461  0.00  0.00    +0.057 C 
ATOM     19  C   UNL     1      33.574 -16.217 -25.434  0.00  0.00    +0.012 C 
BRANCH  15  20
ATOM     20  C   UNL     1      35.493 -17.113 -22.281  0.00  0.00    +0.233 C 
BRANCH  20  21
ATOM     21  O   UNL     1      34.546 -17.867 -21.536  0.00  0.00    -0.469 OA
BRANCH  21  23
ATOM     22  N   UNL     1      36.849 -20.224 -19.979  0.00  0.00    -0.239 NA
ATOM     23  C   UNL     1      35.005 -19.005 -20.927  0.00  0.00    +0.158 C 
ATOM     24  C   UNL     1      34.141 -20.050 -20.652  0.00  0.00    +0.040 C 
ATOM     25  C   UNL     1      36.332 -19.129 -20.581  0.00  0.00    +0.136 C 
ATOM     26  C   UNL     1      34.635 -21.194 -20.035  0.00  0.00    +0.024 C 
ATOM     27  C   UNL     1      35.984 -21.231 -19.721  0.00  0.00    +0.099 C 
ENDBRANCH  21  23
ENDBRANCH  20  21
ENDBRANCH  15  20
ENDBRANCH   5  14
BRANCH   6  28
ATOM     28  C   UNL     1      31.958  -6.195 -21.775  0.00  0.00    +0.033 C 
ATOM     29  C   UNL     1      32.691  -5.777 -20.483  0.00  0.00    +0.006 C 
ATOM     30  C   UNL     1      30.450  -5.895 -21.628  0.00  0.00    +0.006 C 
ATOM     31  C   UNL     1      32.491  -5.296 -22.912  0.00  0.00    +0.006 C 
ENDBRANCH   6  28
TORSDOF 5
ENDMDL
MODEL 4
REMARK VINA RESULT:      -9.8      3.241      5.269
REMARK  Name = 5326866
REMARK  5 active torsions:
REMARK  status: ('A' for Active; 'I' for Inactive)
REMARK    1  A    between atoms: N_5  and  C_14
REMARK    2  A    between atoms: C_6  and  C_28
REMARK    3  A    between atoms: C_15  and  C_20
REMARK    4  A    between atoms: C_20  and  O_21
REMARK    5  A    between atoms: O_21  and  C_23
REMARK                            x       y       z     vdW  Elec       q    Type
REMARK                         _______ _______ _______ _____ _____    ______ ____
ROOT
ATOM      1  O   UNL     1      31.563  -8.577 -21.025  0.00  0.00    -0.252 OA
ATOM      2  N   UNL     1      31.266  -4.556 -22.252  0.00  0.00    -0.239 N 
ATOM      3  N   UNL     1      31.381  -5.854 -21.920  0.00  0.00    -0.166 NA
ATOM      4  N   UNL     1      32.061  -7.772 -23.169  0.00  0.00    -0.252 N 
ATOM      5  N   UNL     1      32.299 -10.021 -22.710  0.00  0.00    -0.268 N 
ATOM      6  C   UNL     1      31.604  -4.357 -23.518  0.00  0.00    +0.045 C 
ATOM      7  C   UNL     1      31.960  -5.491 -24.100  0.00  0.00    +0.048 C 
ATOM      8  C   UNL     1      31.805  -6.420 -23.053  0.00  0.00    +0.154 C 
ATOM      9  C   UNL     1      31.935  -8.774 -22.177  0.00  0.00    +0.309 C 
ATOM     10  H   UNL     1      30.970  -3.848 -21.636  0.00  0.00    +0.174 HD
ATOM     11  H   UNL     1      32.372  -8.077 -24.052  0.00  0.00    +0.158 HD
ATOM     12  H   UNL     1      32.577 -10.022 -23.654  0.00  0.00    +0.156 HD
ENDROOT
BRANCH   5  14
ATOM     13 CL   UNL     1      32.342 -15.249 -19.950  0.00  0.00    -0.082 Cl
ATOM     14  C   UNL     1      32.314 -11.276 -22.057  0.00  0.00    +0.051 C 
ATOM     15  C   UNL     1      32.853 -13.614 -22.070  0.00  0.00    +0.033 C 
ATOM     16  C   UNL     1      32.839 -12.376 -22.714  0.00  0.00    +0.015 C 
ATOM     17  C   UNL     1      31.801 -11.379 -20.774  0.00  0.00    +0.016 C 
ATOM     18  C   UNL     1      32.341 -13.734 -20.778  0.00  0.00    +0.057 C 
ATOM     19  C   UNL     1      31.815 -12.616 -20.131  0.00  0.00    +0.012 C 
BRANCH  15  20
ATOM     20  C   UNL     1      33.425 -14.787 -22.799  0.00  0.00    +0.233 C 
BRANCH  20  21
ATOM     21  O   UNL     1      34.646 -15.173 -22.182  0.00  0.00    -0.469 OA
BRANCH  21  23
ATOM     22  N   UNL     1      35.360 -18.478 -20.821  0.00  0.00    -0.239 NA
ATOM     23  C   UNL     1      34.918 -16.515 -22.139  0.00  0.00    +0.158 C 
ATOM     24  C   UNL     1      35.029 -17.246 -23.309  0.00  0.00    +0.040 C 
ATOM     25  C   UNL     1      35.088 -17.159 -20.933  0.00  0.00    +0.136 C 
ATOM     26  C   UNL     1      35.309 -18.606 -23.235  0.00  0.00    +0.024 C 
ATOM     27  C   UNL     1      35.463 -19.169 -21.979  0.00  0.00    +0.099 C 
ENDBRANCH  21  23
ENDBRANCH  20  21
ENDBRANCH  15  20
ENDBRANCH   5  14
BRANCH   6  28
ATOM     28  C   UNL     1      31.540  -2.927 -24.105  0.00  0.00    +0.033 C 
ATOM     29  C   UNL     1      32.543  -2.792 -25.271  0.00  0.00    +0.006 C 
ATOM     30  C   UNL     1      31.885  -1.894 -23.010  0.00  0.00    +0.006 C 
ATOM     31  C   UNL     1      30.147  -2.555 -24.658  0.00  0.00    +0.006 C 
ENDBRANCH   6  28
TORSDOF 5
ENDMDL
MODEL 5
REMARK VINA RESULT:      -9.7      3.181     11.386
REMARK  Name = 5326866
REMARK  5 active torsions:
REMARK  status: ('A' for Active; 'I' for Inactive)
REMARK    1  A    between atoms: N_5  and  C_14
REMARK    2  A    between atoms: C_6  and  C_28
REMARK    3  A    between atoms: C_15  and  C_20
REMARK    4  A    between atoms: C_20  and  O_21
REMARK    5  A    between atoms: O_21  and  C_23
REMARK                            x       y       z     vdW  Elec       q    Type
REMARK                         _______ _______ _______ _____ _____    ______ ____
ROOT
ATOM      1  O   UNL     1      36.998 -20.473 -19.616  0.00  0.00    -0.252 OA
ATOM      2  N   UNL     1      37.614 -22.906 -16.230  0.00  0.00    -0.239 N 
ATOM      3  N   UNL     1      37.354 -22.145 -17.307  0.00  0.00    -0.166 NA
ATOM      4  N   UNL     1      35.332 -21.675 -18.487  0.00  0.00    -0.252 N 
ATOM      5  N   UNL     1      34.771 -20.396 -20.325  0.00  0.00    -0.268 N 
ATOM      6  C   UNL     1      36.509 -23.481 -15.777  0.00  0.00    +0.045 C 
ATOM      7  C   UNL     1      35.460 -23.145 -16.511  0.00  0.00    +0.048 C 
ATOM      8  C   UNL     1      36.037 -22.295 -17.475  0.00  0.00    +0.154 C 
ATOM      9  C   UNL     1      35.825 -20.810 -19.493  0.00  0.00    +0.309 C 
ATOM     10  H   UNL     1      38.506 -23.021 -15.831  0.00  0.00    +0.174 HD
ATOM     11  H   UNL     1      34.364 -21.857 -18.511  0.00  0.00    +0.158 HD
ATOM     12  H   UNL     1      33.880 -20.751 -20.101  0.00  0.00    +0.156 HD
ENDROOT
BRANCH   5  14
ATOM     13 CL   UNL     1      35.022 -16.826 -25.029  0.00  0.00    -0.082 Cl
ATOM     14  C   UNL     1      34.832 -19.534 -21.444  0.00  0.00    +0.051 C 
ATOM     15  C   UNL     1      34.890 -17.314 -22.351  0.00  0.00    +0.033 C 
ATOM     16  C   UNL     1      34.831 -18.164 -21.246  0.00  0.00    +0.015 C 
ATOM     17  C   UNL     1      34.888 -20.079 -22.717  0.00  0.00    +0.016 C 
ATOM     18  C   UNL     1      34.948 -17.847 -23.639  0.00  0.00    +0.057 C 
ATOM     19  C   UNL     1      34.947 -19.230 -23.821  0.00  0.00    +0.012 C 
BRANCH  15  20
ATOM     20  C   UNL     1      34.889 -15.838 -22.112  0.00  0.00    +0.233 C 
BRANCH  20  21
ATOM     21  O   UNL     1      33.630 -15.301 -22.495  0.00  0.00    -0.469 OA
BRANCH  21  23
ATOM     22  N   UNL     1      33.209 -13.614 -25.698  0.00  0.00    -0.239 NA
ATOM     23  C   UNL     1      33.643 -14.305 -23.436  0.00  0.00    +0.158 C 
ATOM     24  C   UNL     1      34.085 -13.037 -23.107  0.00  0.00    +0.040 C 
ATOM     25  C   UNL     1      33.219 -14.551 -24.723  0.00  0.00    +0.136 C 
ATOM     26  C   UNL     1      34.090 -12.046 -24.082  0.00  0.00    +0.024 C 
ATOM     27  C   UNL     1      33.645 -12.383 -25.351  0.00  0.00    +0.099 C 
ENDBRANCH  21  23
ENDBRANCH  20  21
ENDBRANCH  15  20
ENDBRANCH   5  14
BRANCH   6  28
ATOM     28  C   UNL     1      36.587 -24.405 -14.538  0.00  0.00    +0.033 C 
ATOM     29  C   UNL     1      35.534 -25.528 -14.653  0.00  0.00    +0.006 C 
ATOM     30  C   UNL     1      36.325 -23.586 -13.255  0.00  0.00    +0.006 C 
ATOM     31  C   UNL     1      37.963 -25.086 -14.369  0.00  0.00    +0.006 C 
ENDBRANCH   6  28
TORSDOF 5
ENDMDL
MODEL 6
REMARK VINA RESULT:      -9.6      7.146     10.895
REMARK  Name = 5326866
REMARK  5 active torsions:
REMARK  status: ('A' for Active; 'I' for Inactive)
REMARK    1  A    between atoms: N_5  and  C_14
REMARK    2  A    between atoms: C_6  and  C_28
REMARK    3  A    between atoms: C_15  and  C_20
REMARK    4  A    between atoms: C_20  and  O_21
REMARK    5  A    between atoms: O_21  and  C_23
REMARK                            x       y       z     vdW  Elec       q    Type
REMARK                         _______ _______ _______ _____ _____    ______ ____
ROOT
ATOM      1  O   UNL     1      34.124 -22.687 -17.324  0.00  0.00    -0.252 OA
ATOM      2  N   UNL     1      35.888 -20.564 -20.509  0.00  0.00    -0.239 N 
ATOM      3  N   UNL     1      35.267 -21.223 -19.515  0.00  0.00    -0.166 NA
ATOM      4  N   UNL     1      32.958 -21.493 -18.969  0.00  0.00    -0.252 N 
ATOM      5  N   UNL     1      31.788 -22.592 -17.311  0.00  0.00    -0.268 N 
ATOM      6  C   UNL     1      35.011 -19.970 -21.305  0.00  0.00    +0.045 C 
ATOM      7  C   UNL     1      33.771 -20.192 -20.900  0.00  0.00    +0.048 C 
ATOM      8  C   UNL     1      33.974 -20.992 -19.759  0.00  0.00    +0.154 C 
ATOM      9  C   UNL     1      33.068 -22.301 -17.813  0.00  0.00    +0.309 C 
ATOM     10  H   UNL     1      36.864 -20.528 -20.628  0.00  0.00    +0.174 HD
ATOM     11  H   UNL     1      32.043 -21.259 -19.247  0.00  0.00    +0.158 HD
ATOM     12  H   UNL     1      31.032 -22.210 -17.812  0.00  0.00    +0.156 HD
ENDROOT
BRANCH   5  14
ATOM     13 CL   UNL     1      30.350 -25.832 -12.581  0.00  0.00    -0.082 Cl
ATOM     14  C   UNL     1      31.453 -23.365 -16.175  0.00  0.00    +0.051 C 
ATOM     15  C   UNL     1      32.083 -24.365 -14.087  0.00  0.00    +0.033 C 
ATOM     16  C   UNL     1      32.415 -23.601 -15.207  0.00  0.00    +0.015 C 
ATOM     17  C   UNL     1      30.170 -23.874 -16.057  0.00  0.00    +0.016 C 
ATOM     18  C   UNL     1      30.795 -24.883 -13.953  0.00  0.00    +0.057 C 
ATOM     19  C   UNL     1      29.839 -24.637 -14.938  0.00  0.00    +0.012 C 
BRANCH  15  20
ATOM     20  C   UNL     1      33.137 -24.604 -13.055  0.00  0.00    +0.233 C 
BRANCH  20  21
ATOM     21  O   UNL     1      34.413 -24.316 -13.611  0.00  0.00    -0.469 OA
BRANCH  21  23
ATOM     22  N   UNL     1      36.674 -25.937 -11.257  0.00  0.00    -0.239 NA
ATOM     23  C   UNL     1      35.472 -25.047 -13.140  0.00  0.00    +0.158 C 
ATOM     24  C   UNL     1      36.379 -25.613 -14.018  0.00  0.00    +0.040 C 
ATOM     25  C   UNL     1      35.652 -25.229 -11.786  0.00  0.00    +0.136 C 
ATOM     26  C   UNL     1      37.445 -26.348 -13.512  0.00  0.00    +0.024 C 
ATOM     27  C   UNL     1      37.547 -26.480 -12.136  0.00  0.00    +0.099 C 
ENDBRANCH  21  23
ENDBRANCH  20  21
ENDBRANCH  15  20
ENDBRANCH   5  14
BRANCH   6  28
ATOM     28  C   UNL     1      35.519 -19.151 -22.517  0.00  0.00    +0.033 C 
ATOM     29  C   UNL     1      35.069 -19.825 -23.831  0.00  0.00    +0.006 C 
ATOM     30  C   UNL     1      37.061 -19.068 -22.485  0.00  0.00    +0.006 C 
ATOM     31  C   UNL     1      34.986 -17.702 -22.542  0.00  0.00    +0.006 C 
ENDBRANCH   6  28
TORSDOF 5
ENDMDL
MODEL 7
REMARK VINA RESULT:      -9.6      7.325     11.178
REMARK  Name = 5326866
REMARK  5 active torsions:
REMARK  status: ('A' for Active; 'I' for Inactive)
REMARK    1  A    between atoms: N_5  and  C_14
REMARK    2  A    between atoms: C_6  and  C_28
REMARK    3  A    between atoms: C_15  and  C_20
REMARK    4  A    between atoms: C_20  and  O_21
REMARK    5  A    between atoms: O_21  and  C_23
REMARK                            x       y       z     vdW  Elec       q    Type
REMARK                         _______ _______ _______ _____ _____    ______ ____
ROOT
ATOM      1  O   UNL     1      35.121 -23.102 -16.902  0.00  0.00    -0.252 OA
ATOM      2  N   UNL     1      34.558 -20.644 -20.278  0.00  0.00    -0.239 N 
ATOM      3  N   UNL     1      34.800 -21.412 -19.202  0.00  0.00    -0.166 NA
ATOM      4  N   UNL     1      36.802 -21.886 -17.990  0.00  0.00    -0.252 N 
ATOM      5  N   UNL     1      37.333 -23.172 -16.149  0.00  0.00    -0.268 N 
ATOM      6  C   UNL     1      35.669 -20.063 -20.708  0.00  0.00    +0.045 C 
ATOM      7  C   UNL     1      36.705 -20.403 -19.958  0.00  0.00    +0.048 C 
ATOM      8  C   UNL     1      36.114 -21.262 -19.011  0.00  0.00    +0.154 C 
ATOM      9  C   UNL     1      36.294 -22.760 -17.000  0.00  0.00    +0.309 C 
ATOM     10  H   UNL     1      33.671 -20.527 -20.691  0.00  0.00    +0.174 HD
ATOM     11  H   UNL     1      37.768 -21.700 -17.946  0.00  0.00    +0.158 HD
ATOM     12  H   UNL     1      38.226 -22.811 -16.353  0.00  0.00    +0.156 HD
ENDROOT
BRANCH   5  14
ATOM     13 CL   UNL     1      37.044 -26.810 -11.499  0.00  0.00    -0.082 Cl
ATOM     14  C   UNL     1      37.254 -24.040 -15.035  0.00  0.00    +0.051 C 
ATOM     15  C   UNL     1      35.991 -24.985 -13.227  0.00  0.00    +0.033 C 
ATOM     16  C   UNL     1      36.068 -24.128 -14.326  0.00  0.00    +0.015 C 
ATOM     17  C   UNL     1      38.367 -24.783 -14.676  0.00  0.00    +0.016 C 
ATOM     18  C   UNL     1      37.103 -25.740 -12.852  0.00  0.00    +0.057 C 
ATOM     19  C   UNL     1      38.290 -25.639 -13.577  0.00  0.00    +0.012 C 
BRANCH  15  20
ATOM     20  C   UNL     1      34.700 -25.064 -12.477  0.00  0.00    +0.233 C 
BRANCH  20  21
ATOM     21  O   UNL     1      33.874 -23.968 -12.849  0.00  0.00    -0.469 OA
BRANCH  21  23
ATOM     22  N   UNL     1      30.898 -25.757 -13.958  0.00  0.00    -0.239 NA
ATOM     23  C   UNL     1      32.741 -24.263 -13.561  0.00  0.00    +0.158 C 
ATOM     24  C   UNL     1      32.303 -23.417 -14.563  0.00  0.00    +0.040 C 
ATOM     25  C   UNL     1      32.022 -25.407 -13.293  0.00  0.00    +0.136 C 
ATOM     26  C   UNL     1      31.151 -23.742 -15.271  0.00  0.00    +0.024 C 
ATOM     27  C   UNL     1      30.491 -24.913 -14.932  0.00  0.00    +0.099 C 
ENDBRANCH  21  23
ENDBRANCH  20  21
ENDBRANCH  15  20
ENDBRANCH   5  14
BRANCH   6  28
ATOM     28  C   UNL     1      35.611 -19.133 -21.943  0.00  0.00    +0.033 C 
ATOM     29  C   UNL     1      37.041 -18.814 -22.428  0.00  0.00    +0.006 C 
ATOM     30  C   UNL     1      34.889 -17.818 -21.576  0.00  0.00    +0.006 C 
ATOM     31  C   UNL     1      34.851 -19.750 -23.138  0.00  0.00    +0.006 C 
ENDBRANCH   6  28
TORSDOF 5
ENDMDL
MODEL 8
REMARK VINA RESULT:      -9.1      3.455      9.546
REMARK  Name = 5326866
REMARK  5 active torsions:
REMARK  status: ('A' for Active; 'I' for Inactive)
REMARK    1  A    between atoms: N_5  and  C_14
REMARK    2  A    between atoms: C_6  and  C_28
REMARK    3  A    between atoms: C_15  and  C_20
REMARK    4  A    between atoms: C_20  and  O_21
REMARK    5  A    between atoms: O_21  and  C_23
REMARK                            x       y       z     vdW  Elec       q    Type
REMARK                         _______ _______ _______ _____ _____    ______ ____
ROOT
ATOM      1  O   UNL     1      34.232 -13.156 -21.528  0.00  0.00    -0.252 OA
ATOM      2  N   UNL     1      34.769 -17.258 -20.725  0.00  0.00    -0.239 N 
ATOM      3  N   UNL     1      34.608 -15.963 -21.044  0.00  0.00    -0.166 NA
ATOM      4  N   UNL     1      34.698 -14.803 -23.129  0.00  0.00    -0.252 N 
ATOM      5  N   UNL     1      34.437 -12.608 -23.792  0.00  0.00    -0.268 N 
ATOM      6  C   UNL     1      35.024 -17.985 -21.803  0.00  0.00    +0.045 C 
ATOM      7  C   UNL     1      35.048 -17.233 -22.891  0.00  0.00    +0.048 C 
ATOM      8  C   UNL     1      34.780 -15.952 -22.368  0.00  0.00    +0.154 C 
ATOM      9  C   UNL     1      34.434 -13.483 -22.693  0.00  0.00    +0.309 C 
ATOM     10  H   UNL     1      34.705 -17.619 -19.811  0.00  0.00    +0.174 HD
ATOM     11  H   UNL     1      34.841 -14.917 -24.097  0.00  0.00    +0.158 HD
ATOM     12  H   UNL     1      34.614 -13.018 -24.669  0.00  0.00    +0.156 HD
ENDROOT
BRANCH   5  14
ATOM     13 CL   UNL     1      33.552  -6.763 -23.820  0.00  0.00    -0.082 Cl
ATOM     14  C   UNL     1      34.217 -11.211 -23.793  0.00  0.00    +0.051 C 
ATOM     15  C   UNL     1      32.824  -9.330 -23.265  0.00  0.00    +0.033 C 
ATOM     16  C   UNL     1      33.040 -10.709 -23.262  0.00  0.00    +0.015 C 
ATOM     17  C   UNL     1      35.182 -10.374 -24.329  0.00  0.00    +0.016 C 
ATOM     18  C   UNL     1      33.786  -8.474 -23.800  0.00  0.00    +0.057 C 
ATOM     19  C   UNL     1      34.965  -8.996 -24.332  0.00  0.00    +0.012 C 
BRANCH  15  20
ATOM     20  C   UNL     1      31.547  -8.811 -22.685  0.00  0.00    +0.233 C 
BRANCH  20  21
ATOM     21  O   UNL     1      30.851  -9.878 -22.054  0.00  0.00    -0.469 OA
BRANCH  21  23
ATOM     22  N   UNL     1      32.241  -9.458 -18.711  0.00  0.00    -0.239 NA
ATOM     23  C   UNL     1      31.204 -10.167 -20.762  0.00  0.00    +0.158 C 
ATOM     24  C   UNL     1      30.906 -11.402 -20.213  0.00  0.00    +0.040 C 
ATOM     25  C   UNL     1      31.863  -9.236 -19.990  0.00  0.00    +0.136 C 
ATOM     26  C   UNL     1      31.278 -11.669 -18.901  0.00  0.00    +0.024 C 
ATOM     27  C   UNL     1      31.937 -10.672 -18.198  0.00  0.00    +0.099 C 
ENDBRANCH  21  23
ENDBRANCH  20  21
ENDBRANCH  15  20
ENDBRANCH   5  14
BRANCH   6  28
ATOM     28  C   UNL     1      35.246 -19.510 -21.656  0.00  0.00    +0.033 C 
ATOM     29  C   UNL     1      36.605 -19.780 -20.976  0.00  0.00    +0.006 C 
ATOM     30  C   UNL     1      35.227 -20.180 -23.048  0.00  0.00    +0.006 C 
ATOM     31  C   UNL     1      34.163 -20.206 -20.802  0.00  0.00    +0.006 C 
ENDBRANCH   6  28
TORSDOF 5
ENDMDL
MODEL 9
REMARK VINA RESULT:      -8.8      4.468      7.776
REMARK  Name = 5326866
REMARK  5 active torsions:
REMARK  status: ('A' for Active; 'I' for Inactive)
REMARK    1  A    between atoms: N_5  and  C_14
REMARK    2  A    between atoms: C_6  and  C_28
REMARK    3  A    between atoms: C_15  and  C_20
REMARK    4  A    between atoms: C_20  and  O_21
REMARK    5  A    between atoms: O_21  and  C_23
REMARK                            x       y       z     vdW  Elec       q    Type
REMARK                         _______ _______ _______ _____ _____    ______ ____
ROOT
ATOM      1  O   UNL     1      34.119  -7.539 -23.129  0.00  0.00    -0.252 OA
ATOM      2  N   UNL     1      35.177  -4.945 -26.278  0.00  0.00    -0.239 N 
ATOM      3  N   UNL     1      34.777  -5.752 -25.280  0.00  0.00    -0.166 NA
ATOM      4  N   UNL     1      32.639  -6.139 -24.290  0.00  0.00    -0.252 N 
ATOM      5  N   UNL     1      31.843  -7.488 -22.595  0.00  0.00    -0.268 N 
ATOM      6  C   UNL     1      34.156  -4.257 -26.769  0.00  0.00    +0.045 C 
ATOM      7  C   UNL     1      33.031  -4.558 -26.141  0.00  0.00    +0.048 C 
ATOM      8  C   UNL     1      33.466  -5.511 -25.200  0.00  0.00    +0.154 C 
ATOM      9  C   UNL     1      32.987  -7.105 -23.314  0.00  0.00    +0.309 C 
ATOM     10  H   UNL     1      36.104  -4.874 -26.600  0.00  0.00    +0.174 HD
ATOM     11  H   UNL     1      31.689  -5.884 -24.324  0.00  0.00    +0.158 HD
ATOM     12  H   UNL     1      31.001  -7.051 -22.858  0.00  0.00    +0.156 HD
ENDROOT
BRANCH   5  14
ATOM     13 CL   UNL     1      31.466 -11.367 -18.151  0.00  0.00    -0.082 Cl
ATOM     14  C   UNL     1      31.752  -8.424 -21.538  0.00  0.00    +0.051 C 
ATOM     15  C   UNL     1      31.431 -10.680 -20.787  0.00  0.00    +0.033 C 
ATOM     16  C   UNL     1      31.521  -9.758 -21.831  0.00  0.00    +0.015 C 
ATOM     17  C   UNL     1      31.893  -7.986 -20.231  0.00  0.00    +0.016 C 
ATOM     18  C   UNL     1      31.571 -10.255 -19.466  0.00  0.00    +0.057 C 
ATOM     19  C   UNL     1      31.802  -8.907 -19.189  0.00  0.00    +0.012 C 
BRANCH  15  20
ATOM     20  C   UNL     1      31.182 -12.114 -21.128  0.00  0.00    +0.233 C 
BRANCH  20  21
ATOM     21  O   UNL     1      32.105 -12.525 -22.128  0.00  0.00    -0.469 OA
BRANCH  21  23
ATOM     22  N   UNL     1      34.796 -14.969 -22.398  0.00  0.00    -0.239 NA
ATOM     23  C   UNL     1      32.908 -13.593 -21.824  0.00  0.00    +0.158 C 
ATOM     24  C   UNL     1      32.667 -14.354 -20.694  0.00  0.00    +0.040 C 
ATOM     25  C   UNL     1      33.967 -13.928 -22.639  0.00  0.00    +0.136 C 
ATOM     26  C   UNL     1      33.497 -15.433 -20.412  0.00  0.00    +0.024 C 
ATOM     27  C   UNL     1      34.539 -15.696 -21.288  0.00  0.00    +0.099 C 
ENDBRANCH  21  23
ENDBRANCH  20  21
ENDBRANCH  15  20
ENDBRANCH   5  14
BRANCH   6  28
ATOM     28  C   UNL     1      34.399  -3.263 -27.930  0.00  0.00    +0.033 C 
ATOM     29  C   UNL     1      35.467  -2.227 -27.519  0.00  0.00    +0.006 C 
ATOM     30  C   UNL     1      33.084  -2.532 -28.279  0.00  0.00    +0.006 C 
ATOM     31  C   UNL     1      34.899  -3.943 -29.223  0.00  0.00    +0.006 C 
ENDBRANCH   6  28
TORSDOF 5
ENDMDL
