MODEL 1
REMARK VINA RESULT:     -12.1      0.000      0.000
REMARK  Name = 46926973
REMARK  4 active torsions:
REMARK  status: ('A' for Active; 'I' for Inactive)
REMARK    1  A    between atoms: C_4  and  C_17
REMARK    2  A    between atoms: C_6  and  C_13
REMARK    3  A    between atoms: C_17  and  C_19
REMARK    4  A    between atoms: C_21  and  C_26
REMARK                            x       y       z     vdW  Elec       q    Type
REMARK                         _______ _______ _______ _____ _____    ______ ____
ROOT
ATOM      1  O   UNL     1      33.814 -20.160 -21.872  0.00  0.00    -0.274 OA
ATOM      2  N   UNL     1      35.918 -20.235 -20.824  0.00  0.00    -0.269 N 
ATOM      3  N   UNL     1      36.721 -21.267 -18.853  0.00  0.00    -0.229 NA
ATOM      4  C   UNL     1      35.002 -19.859 -21.816  0.00  0.00    +0.232 C 
ATOM      5  C   UNL     1      35.688 -21.024 -19.690  0.00  0.00    +0.134 C 
ATOM      6  C   UNL     1      35.202 -22.570 -17.495  0.00  0.00    +0.038 C 
ATOM      7  C   UNL     1      34.404 -21.510 -19.501  0.00  0.00    +0.035 C 
ATOM      8  C   UNL     1      34.165 -22.296 -18.379  0.00  0.00    +0.006 C 
ATOM      9  C   UNL     1      36.450 -22.036 -17.773  0.00  0.00    +0.102 C 
ATOM     10  H   UNL     1      36.838 -19.902 -20.938  0.00  0.00    +0.156 HD
ENDROOT
BRANCH   6  13
ATOM     11  N   UNL     1      36.096 -23.806 -15.684  0.00  0.00    -0.241 NA
ATOM     12  N   UNL     1      33.524 -24.464 -14.782  0.00  0.00    -0.239 NA
ATOM     13  C   UNL     1      34.986 -23.382 -16.321  0.00  0.00    +0.102 C 
ATOM     14  C   UNL     1      33.722 -23.705 -15.877  0.00  0.00    +0.118 C 
ATOM     15  C   UNL     1      35.896 -24.564 -14.588  0.00  0.00    +0.119 C 
ATOM     16  C   UNL     1      34.633 -24.888 -14.144  0.00  0.00    +0.120 C 
ENDBRANCH   6  13
BRANCH   4  17
ATOM     17  C   UNL     1      35.672 -18.997 -22.875  0.00  0.00    +0.113 C 
BRANCH  17  19
ATOM     18  N   UNL     1      34.633 -15.517 -21.803  0.00  0.00    -0.244 NA
ATOM     19  C   UNL     1      35.126 -17.594 -22.938  0.00  0.00    +0.006 C 
ATOM     20  C   UNL     1      34.122 -15.777 -24.152  0.00  0.00    -0.004 C 
ATOM     21  C   UNL     1      34.151 -15.046 -22.976  0.00  0.00    +0.077 C 
ATOM     22  C   UNL     1      34.621 -17.075 -24.124  0.00  0.00    -0.005 C 
ATOM     23  C   UNL     1      35.109 -16.781 -21.815  0.00  0.00    +0.095 C 
ATOM     24  C   UNL     1      33.580 -15.222 -25.425  0.00  0.00    +0.033 C 
BRANCH  21  26
ATOM     25  N   UNL     1      32.695 -11.068 -22.773  0.00  0.00    -0.248 NA
ATOM     26  C   UNL     1      33.654 -13.690 -22.906  0.00  0.00    +0.020 C 
ATOM     27  C   UNL     1      32.636 -13.364 -22.017  0.00  0.00    +0.016 C 
ATOM     28  C   UNL     1      34.194 -12.706 -23.728  0.00  0.00    +0.022 C 
ATOM     29  C   UNL     1      32.195 -12.050 -21.990  0.00  0.00    +0.059 C 
ATOM     30  C   UNL     1      33.683 -11.422 -23.624  0.00  0.00    +0.098 C 
ATOM     31  C   UNL     1      31.103 -11.664 -21.049  0.00  0.00    +0.052 C 
ENDBRANCH  21  26
ENDBRANCH  17  19
ENDBRANCH   4  17
TORSDOF 4
ENDMDL
MODEL 2
REMARK VINA RESULT:     -12.1      1.344      2.012
REMARK  Name = 46926973
REMARK  4 active torsions:
REMARK  status: ('A' for Active; 'I' for Inactive)
REMARK    1  A    between atoms: C_4  and  C_17
REMARK    2  A    between atoms: C_6  and  C_13
REMARK    3  A    between atoms: C_17  and  C_19
REMARK    4  A    between atoms: C_21  and  C_26
REMARK                            x       y       z     vdW  Elec       q    Type
REMARK                         _______ _______ _______ _____ _____    ______ ____
ROOT
ATOM      1  O   UNL     1      36.835 -19.103 -22.430  0.00  0.00    -0.274 OA
ATOM      2  N   UNL     1      34.575 -19.622 -22.034  0.00  0.00    -0.269 N 
ATOM      3  N   UNL     1      33.462 -20.890 -20.377  0.00  0.00    -0.229 NA
ATOM      4  C   UNL     1      35.644 -19.030 -22.720  0.00  0.00    +0.232 C 
ATOM      5  C   UNL     1      34.623 -20.416 -20.881  0.00  0.00    +0.134 C 
ATOM      6  C   UNL     1      34.754 -21.955 -18.632  0.00  0.00    +0.038 C 
ATOM      7  C   UNL     1      35.868 -20.663 -20.327  0.00  0.00    +0.035 C 
ATOM      8  C   UNL     1      35.927 -21.449 -19.182  0.00  0.00    +0.006 C 
ATOM      9  C   UNL     1      33.558 -21.650 -19.262  0.00  0.00    +0.102 C 
ATOM     10  H   UNL     1      33.679 -19.459 -22.408  0.00  0.00    +0.156 HD
ENDROOT
BRANCH   6  13
ATOM     11  N   UNL     1      35.942 -22.782 -16.759  0.00  0.00    -0.241 NA
ATOM     12  N   UNL     1      33.718 -24.271 -15.924  0.00  0.00    -0.239 NA
ATOM     13  C   UNL     1      34.781 -22.775 -17.444  0.00  0.00    +0.102 C 
ATOM     14  C   UNL     1      33.688 -23.506 -17.034  0.00  0.00    +0.118 C 
ATOM     15  C   UNL     1      35.971 -23.545 -15.649  0.00  0.00    +0.119 C 
ATOM     16  C   UNL     1      34.879 -24.278 -15.239  0.00  0.00    +0.120 C 
ENDBRANCH   6  13
BRANCH   4  17
ATOM     17  C   UNL     1      35.148 -18.246 -23.925  0.00  0.00    +0.113 C 
BRANCH  17  19
ATOM     18  N   UNL     1      33.703 -14.768 -24.312  0.00  0.00    -0.244 NA
ATOM     19  C   UNL     1      34.677 -16.856 -23.582  0.00  0.00    +0.006 C 
ATOM     20  C   UNL     1      34.325 -15.082 -21.997  0.00  0.00    -0.004 C 
ATOM     21  C   UNL     1      33.806 -14.329 -23.038  0.00  0.00    +0.077 C 
ATOM     22  C   UNL     1      34.767 -16.369 -22.283  0.00  0.00    -0.005 C 
ATOM     23  C   UNL     1      34.142 -16.023 -24.552  0.00  0.00    +0.095 C 
ATOM     24  C   UNL     1      34.423 -14.562 -20.604  0.00  0.00    +0.033 C 
BRANCH  21  26
ATOM     25  N   UNL     1      32.389 -10.374 -22.450  0.00  0.00    -0.248 NA
ATOM     26  C   UNL     1      33.323 -12.981 -22.837  0.00  0.00    +0.020 C 
ATOM     27  C   UNL     1      32.321 -12.729 -21.906  0.00  0.00    +0.016 C 
ATOM     28  C   UNL     1      33.858 -11.931 -23.575  0.00  0.00    +0.022 C 
ATOM     29  C   UNL     1      31.893 -11.420 -21.752  0.00  0.00    +0.059 C 
ATOM     30  C   UNL     1      33.361 -10.658 -23.346  0.00  0.00    +0.098 C 
ATOM     31  C   UNL     1      30.819 -11.113 -20.762  0.00  0.00    +0.052 C 
ENDBRANCH  21  26
ENDBRANCH  17  19
ENDBRANCH   4  17
TORSDOF 4
ENDMDL
MODEL 3
REMARK VINA RESULT:     -12.0      2.717     11.441
REMARK  Name = 46926973
REMARK  4 active torsions:
REMARK  status: ('A' for Active; 'I' for Inactive)
REMARK    1  A    between atoms: C_4  and  C_17
REMARK    2  A    between atoms: C_6  and  C_13
REMARK    3  A    between atoms: C_17  and  C_19
REMARK    4  A    between atoms: C_21  and  C_26
REMARK                            x       y       z     vdW  Elec       q    Type
REMARK                         _______ _______ _______ _____ _____    ______ ____
ROOT
ATOM      1  O   UNL     1      32.843 -14.530 -22.649  0.00  0.00    -0.274 OA
ATOM      2  N   UNL     1      34.246 -12.918 -23.630  0.00  0.00    -0.269 N 
ATOM      3  N   UNL     1      34.252 -10.552 -23.640  0.00  0.00    -0.229 NA
ATOM      4  C   UNL     1      33.816 -14.217 -23.328  0.00  0.00    +0.232 C 
ATOM      5  C   UNL     1      33.672 -11.704 -23.233  0.00  0.00    +0.134 C 
ATOM      6  C   UNL     1      32.528  -9.358 -22.437  0.00  0.00    +0.038 C 
ATOM      7  C   UNL     1      32.537 -11.763 -22.441  0.00  0.00    +0.035 C 
ATOM      8  C   UNL     1      31.959 -10.563 -22.040  0.00  0.00    +0.006 C 
ATOM      9  C   UNL     1      33.663  -9.406 -23.230  0.00  0.00    +0.102 C 
ATOM     10  H   UNL     1      35.053 -12.850 -24.191  0.00  0.00    +0.156 HD
ENDROOT
BRANCH   6  13
ATOM     11  N   UNL     1      31.033  -7.575 -22.877  0.00  0.00    -0.241 NA
ATOM     12  N   UNL     1      31.777  -6.282 -20.502  0.00  0.00    -0.239 NA
ATOM     13  C   UNL     1      31.952  -8.096 -22.038  0.00  0.00    +0.102 C 
ATOM     14  C   UNL     1      32.316  -7.461 -20.872  0.00  0.00    +0.118 C 
ATOM     15  C   UNL     1      30.493  -6.397 -22.507  0.00  0.00    +0.119 C 
ATOM     16  C   UNL     1      30.859  -5.762 -21.341  0.00  0.00    +0.120 C 
ENDBRANCH   6  13
BRANCH   4  17
ATOM     17  C   UNL     1      34.733 -15.253 -23.960  0.00  0.00    +0.113 C 
BRANCH  17  19
ATOM     18  N   UNL     1      35.108 -17.545 -20.970  0.00  0.00    -0.244 NA
ATOM     19  C   UNL     1      34.869 -16.511 -23.142  0.00  0.00    +0.006 C 
ATOM     20  C   UNL     1      35.014 -18.905 -22.967  0.00  0.00    -0.004 C 
ATOM     21  C   UNL     1      35.121 -18.744 -21.595  0.00  0.00    +0.077 C 
ATOM     22  C   UNL     1      34.886 -17.761 -23.748  0.00  0.00    -0.005 C 
ATOM     23  C   UNL     1      34.982 -16.457 -21.761  0.00  0.00    +0.095 C 
ATOM     24  C   UNL     1      35.033 -20.245 -23.619  0.00  0.00    +0.033 C 
BRANCH  21  26
ATOM     25  N   UNL     1      35.524 -22.056 -18.976  0.00  0.00    -0.248 NA
ATOM     26  C   UNL     1      35.258 -19.873 -20.702  0.00  0.00    +0.020 C 
ATOM     27  C   UNL     1      34.127 -20.526 -20.222  0.00  0.00    +0.016 C 
ATOM     28  C   UNL     1      36.521 -20.311 -20.320  0.00  0.00    +0.022 C 
ATOM     29  C   UNL     1      34.314 -21.602 -19.369  0.00  0.00    +0.059 C 
ATOM     30  C   UNL     1      36.600 -21.396 -19.462  0.00  0.00    +0.098 C 
ATOM     31  C   UNL     1      33.123 -22.326 -18.835  0.00  0.00    +0.052 C 
ENDBRANCH  21  26
ENDBRANCH  17  19
ENDBRANCH   4  17
TORSDOF 4
ENDMDL
MODEL 4
REMARK VINA RESULT:     -11.8      1.197      1.694
REMARK  Name = 46926973
REMARK  4 active torsions:
REMARK  status: ('A' for Active; 'I' for Inactive)
REMARK    1  A    between atoms: C_4  and  C_17
REMARK    2  A    between atoms: C_6  and  C_13
REMARK    3  A    between atoms: C_17  and  C_19
REMARK    4  A    between atoms: C_21  and  C_26
REMARK                            x       y       z     vdW  Elec       q    Type
REMARK                         _______ _______ _______ _____ _____    ______ ____
ROOT
ATOM      1  O   UNL     1      37.200 -18.980 -21.919  0.00  0.00    -0.274 OA
ATOM      2  N   UNL     1      35.209 -20.162 -21.509  0.00  0.00    -0.269 N 
ATOM      3  N   UNL     1      34.487 -21.582 -19.760  0.00  0.00    -0.229 NA
ATOM      4  C   UNL     1      36.063 -19.317 -22.231  0.00  0.00    +0.232 C 
ATOM      5  C   UNL     1      35.458 -20.802 -20.289  0.00  0.00    +0.134 C 
ATOM      6  C   UNL     1      35.975 -22.030 -17.908  0.00  0.00    +0.038 C 
ATOM      7  C   UNL     1      36.692 -20.591 -19.697  0.00  0.00    +0.035 C 
ATOM      8  C   UNL     1      36.949 -21.221 -18.484  0.00  0.00    +0.006 C 
ATOM      9  C   UNL     1      34.773 -22.178 -18.581  0.00  0.00    +0.102 C 
ATOM     10  H   UNL     1      34.325 -20.326 -21.910  0.00  0.00    +0.156 HD
ENDROOT
BRANCH   6  13
ATOM     11  N   UNL     1      35.158 -23.356 -16.125  0.00  0.00    -0.241 NA
ATOM     12  N   UNL     1      37.654 -23.291 -14.849  0.00  0.00    -0.239 NA
ATOM     13  C   UNL     1      36.211 -22.698 -16.650  0.00  0.00    +0.102 C 
ATOM     14  C   UNL     1      37.438 -22.667 -16.023  0.00  0.00    +0.118 C 
ATOM     15  C   UNL     1      35.376 -23.981 -14.951  0.00  0.00    +0.119 C 
ATOM     16  C   UNL     1      36.601 -23.949 -14.323  0.00  0.00    +0.120 C 
ENDBRANCH   6  13
BRANCH   4  17
ATOM     17  C   UNL     1      35.395 -18.834 -23.509  0.00  0.00    +0.113 C 
BRANCH  17  19
ATOM     18  N   UNL     1      34.492 -15.446 -22.079  0.00  0.00    -0.244 NA
ATOM     19  C   UNL     1      34.885 -17.419 -23.421  0.00  0.00    +0.006 C 
ATOM     20  C   UNL     1      33.889 -15.471 -24.421  0.00  0.00    -0.004 C 
ATOM     21  C   UNL     1      33.981 -14.856 -23.183  0.00  0.00    +0.077 C 
ATOM     22  C   UNL     1      34.352 -16.778 -24.533  0.00  0.00    -0.005 C 
ATOM     23  C   UNL     1      34.932 -16.715 -22.227  0.00  0.00    +0.095 C 
ATOM     24  C   UNL     1      33.317 -14.787 -25.614  0.00  0.00    +0.033 C 
BRANCH  21  26
ATOM     25  N   UNL     1      32.643 -10.880 -22.554  0.00  0.00    -0.248 NA
ATOM     26  C   UNL     1      33.525 -13.501 -22.969  0.00  0.00    +0.020 C 
ATOM     27  C   UNL     1      32.515 -13.241 -22.048  0.00  0.00    +0.016 C 
ATOM     28  C   UNL     1      34.094 -12.452 -23.682  0.00  0.00    +0.022 C 
ATOM     29  C   UNL     1      32.114 -11.925 -21.880  0.00  0.00    +0.059 C 
ATOM     30  C   UNL     1      33.622 -11.171 -23.440  0.00  0.00    +0.098 C 
ATOM     31  C   UNL     1      31.032 -11.609 -20.901  0.00  0.00    +0.052 C 
ENDBRANCH  21  26
ENDBRANCH  17  19
ENDBRANCH   4  17
TORSDOF 4
ENDMDL
MODEL 5
REMARK VINA RESULT:     -11.5      1.224      1.770
REMARK  Name = 46926973
REMARK  4 active torsions:
REMARK  status: ('A' for Active; 'I' for Inactive)
REMARK    1  A    between atoms: C_4  and  C_17
REMARK    2  A    between atoms: C_6  and  C_13
REMARK    3  A    between atoms: C_17  and  C_19
REMARK    4  A    between atoms: C_21  and  C_26
REMARK                            x       y       z     vdW  Elec       q    Type
REMARK                         _______ _______ _______ _____ _____    ______ ____
ROOT
ATOM      1  O   UNL     1      37.627 -19.388 -20.749  0.00  0.00    -0.274 OA
ATOM      2  N   UNL     1      35.580 -20.544 -20.806  0.00  0.00    -0.269 N 
ATOM      3  N   UNL     1      34.517 -22.051 -19.324  0.00  0.00    -0.229 NA
ATOM      4  C   UNL     1      36.566 -19.677 -21.295  0.00  0.00    +0.232 C 
ATOM      5  C   UNL     1      35.581 -21.264 -19.605  0.00  0.00    +0.134 C 
ATOM      6  C   UNL     1      35.615 -22.649 -17.254  0.00  0.00    +0.038 C 
ATOM      7  C   UNL     1      36.681 -21.120 -18.775  0.00  0.00    +0.035 C 
ATOM      8  C   UNL     1      36.691 -21.830 -17.580  0.00  0.00    +0.006 C 
ATOM      9  C   UNL     1      34.563 -22.725 -18.152  0.00  0.00    +0.102 C 
ATOM     10  H   UNL     1      34.787 -20.661 -21.378  0.00  0.00    +0.156 HD
ENDROOT
BRANCH   6  13
ATOM     11  N   UNL     1      36.799 -23.647 -15.463  0.00  0.00    -0.241 NA
ATOM     12  N   UNL     1      34.409 -24.535 -14.295  0.00  0.00    -0.239 NA
ATOM     13  C   UNL     1      35.597 -23.398 -16.021  0.00  0.00    +0.102 C 
ATOM     14  C   UNL     1      34.423 -23.835 -15.447  0.00  0.00    +0.118 C 
ATOM     15  C   UNL     1      36.784 -24.346 -14.311  0.00  0.00    +0.119 C 
ATOM     16  C   UNL     1      35.611 -24.783 -13.738  0.00  0.00    +0.120 C 
ENDBRANCH   6  13
BRANCH   4  17
ATOM     17  C   UNL     1      36.163 -19.100 -22.643  0.00  0.00    +0.113 C 
BRANCH  17  19
ATOM     18  N   UNL     1      34.532 -16.031 -21.140  0.00  0.00    -0.244 NA
ATOM     19  C   UNL     1      35.424 -17.791 -22.537  0.00  0.00    +0.006 C 
ATOM     20  C   UNL     1      34.277 -15.931 -23.542  0.00  0.00    -0.004 C 
ATOM     21  C   UNL     1      34.093 -15.425 -22.266  0.00  0.00    +0.077 C 
ATOM     22  C   UNL     1      34.957 -17.138 -23.671  0.00  0.00    -0.005 C 
ATOM     23  C   UNL     1      35.188 -17.201 -21.305  0.00  0.00    +0.095 C 
ATOM     24  C   UNL     1      33.776 -15.234 -24.760  0.00  0.00    +0.033 C 
BRANCH  21  26
ATOM     25  N   UNL     1      32.054 -11.769 -21.580  0.00  0.00    -0.248 NA
ATOM     26  C   UNL     1      33.398 -14.179 -22.032  0.00  0.00    +0.020 C 
ATOM     27  C   UNL     1      33.699 -13.057 -22.798  0.00  0.00    +0.016 C 
ATOM     28  C   UNL     1      32.427 -14.097 -21.041  0.00  0.00    +0.022 C 
ATOM     29  C   UNL     1      33.004 -11.887 -22.534  0.00  0.00    +0.059 C 
ATOM     30  C   UNL     1      31.790 -12.880 -20.855  0.00  0.00    +0.098 C 
ATOM     31  C   UNL     1      33.301 -10.664 -23.336  0.00  0.00    +0.052 C 
ENDBRANCH  21  26
ENDBRANCH  17  19
ENDBRANCH   4  17
TORSDOF 4
ENDMDL
MODEL 6
REMARK VINA RESULT:     -10.8      2.240     10.694
REMARK  Name = 46926973
REMARK  4 active torsions:
REMARK  status: ('A' for Active; 'I' for Inactive)
REMARK    1  A    between atoms: C_4  and  C_17
REMARK    2  A    between atoms: C_6  and  C_13
REMARK    3  A    between atoms: C_17  and  C_19
REMARK    4  A    between atoms: C_21  and  C_26
REMARK                            x       y       z     vdW  Elec       q    Type
REMARK                         _______ _______ _______ _____ _____    ______ ____
ROOT
ATOM      1  O   UNL     1      36.354 -19.351 -19.885  0.00  0.00    -0.274 OA
ATOM      2  N   UNL     1      35.444 -20.169 -21.894  0.00  0.00    -0.269 N 
ATOM      3  N   UNL     1      34.547 -19.127 -23.819  0.00  0.00    -0.229 NA
ATOM      4  C   UNL     1      36.027 -20.275 -20.624  0.00  0.00    +0.232 C 
ATOM      5  C   UNL     1      35.107 -19.004 -22.594  0.00  0.00    +0.134 C 
ATOM      6  C   UNL     1      34.468 -16.713 -23.932  0.00  0.00    +0.038 C 
ATOM      7  C   UNL     1      35.374 -17.790 -21.982  0.00  0.00    +0.035 C 
ATOM      8  C   UNL     1      35.044 -16.628 -22.669  0.00  0.00    +0.006 C 
ATOM      9  C   UNL     1      34.241 -17.975 -24.458  0.00  0.00    +0.102 C 
ATOM     10  H   UNL     1      35.246 -21.019 -22.350  0.00  0.00    +0.156 HD
ENDROOT
BRANCH   6  13
ATOM     11  N   UNL     1      33.903 -15.693 -25.992  0.00  0.00    -0.241 NA
ATOM     12  N   UNL     1      33.670 -13.185 -24.759  0.00  0.00    -0.239 NA
ATOM     13  C   UNL     1      34.114 -15.525 -24.671  0.00  0.00    +0.102 C 
ATOM     14  C   UNL     1      34.000 -14.293 -24.066  0.00  0.00    +0.118 C 
ATOM     15  C   UNL     1      33.572 -14.585 -26.685  0.00  0.00    +0.119 C 
ATOM     16  C   UNL     1      33.458 -13.353 -26.080  0.00  0.00    +0.120 C 
ENDBRANCH   6  13
BRANCH   4  17
ATOM     17  C   UNL     1      36.226 -21.732 -20.238  0.00  0.00    +0.113 C 
BRANCH  17  19
ATOM     18  N   UNL     1      33.107 -22.790 -18.370  0.00  0.00    -0.244 NA
ATOM     19  C   UNL     1      35.324 -22.184 -19.118  0.00  0.00    +0.006 C 
ATOM     20  C   UNL     1      34.968 -22.825 -16.827  0.00  0.00    -0.004 C 
ATOM     21  C   UNL     1      33.630 -22.999 -17.141  0.00  0.00    +0.077 C 
ATOM     22  C   UNL     1      35.825 -22.409 -17.841  0.00  0.00    -0.005 C 
ATOM     23  C   UNL     1      33.969 -22.387 -19.329  0.00  0.00    +0.095 C 
ATOM     24  C   UNL     1      35.508 -23.065 -15.459  0.00  0.00    +0.033 C 
BRANCH  21  26
ATOM     25  N   UNL     1      30.797 -24.257 -14.246  0.00  0.00    -0.248 NA
ATOM     26  C   UNL     1      32.665 -23.428 -16.154  0.00  0.00    +0.020 C 
ATOM     27  C   UNL     1      31.319 -23.110 -16.309  0.00  0.00    +0.016 C 
ATOM     28  C   UNL     1      33.077 -24.160 -15.046  0.00  0.00    +0.022 C 
ATOM     29  C   UNL     1      30.434 -23.544 -15.335  0.00  0.00    +0.059 C 
ATOM     30  C   UNL     1      32.113 -24.547 -14.129  0.00  0.00    +0.098 C 
ATOM     31  C   UNL     1      28.983 -23.221 -15.468  0.00  0.00    +0.052 C 
ENDBRANCH  21  26
ENDBRANCH  17  19
ENDBRANCH   4  17
TORSDOF 4
ENDMDL
MODEL 7
REMARK VINA RESULT:     -10.6      2.377     10.590
REMARK  Name = 46926973
REMARK  4 active torsions:
REMARK  status: ('A' for Active; 'I' for Inactive)
REMARK    1  A    between atoms: C_4  and  C_17
REMARK    2  A    between atoms: C_6  and  C_13
REMARK    3  A    between atoms: C_17  and  C_19
REMARK    4  A    between atoms: C_21  and  C_26
REMARK                            x       y       z     vdW  Elec       q    Type
REMARK                         _______ _______ _______ _____ _____    ______ ____
ROOT
ATOM      1  O   UNL     1      35.613 -22.001 -21.172  0.00  0.00    -0.274 OA
ATOM      2  N   UNL     1      35.736 -19.946 -20.035  0.00  0.00    -0.269 N 
ATOM      3  N   UNL     1      35.365 -17.701 -20.681  0.00  0.00    -0.229 NA
ATOM      4  C   UNL     1      35.825 -21.339 -20.161  0.00  0.00    +0.232 C 
ATOM      5  C   UNL     1      35.391 -19.010 -21.018  0.00  0.00    +0.134 C 
ATOM      6  C   UNL     1      34.711 -17.217 -22.958  0.00  0.00    +0.038 C 
ATOM      7  C   UNL     1      35.094 -19.493 -22.283  0.00  0.00    +0.035 C 
ATOM      8  C   UNL     1      34.749 -18.572 -23.266  0.00  0.00    +0.006 C 
ATOM      9  C   UNL     1      35.025 -16.836 -21.663  0.00  0.00    +0.102 C 
ATOM     10  H   UNL     1      35.941 -19.580 -19.144  0.00  0.00    +0.156 HD
ENDROOT
BRANCH   6  13
ATOM     11  N   UNL     1      34.051 -15.007 -23.495  0.00  0.00    -0.241 NA
ATOM     12  N   UNL     1      34.001 -15.619 -26.231  0.00  0.00    -0.239 NA
ATOM     13  C   UNL     1      34.357 -16.236 -23.957  0.00  0.00    +0.102 C 
ATOM     14  C   UNL     1      34.332 -16.536 -25.301  0.00  0.00    +0.118 C 
ATOM     15  C   UNL     1      33.721 -14.090 -24.425  0.00  0.00    +0.119 C 
ATOM     16  C   UNL     1      33.695 -14.390 -25.769  0.00  0.00    +0.120 C 
ENDBRANCH   6  13
BRANCH   4  17
ATOM     17  C   UNL     1      36.231 -21.979 -18.842  0.00  0.00    +0.113 C 
BRANCH  17  19
ATOM     18  N   UNL     1      32.682 -22.865 -17.863  0.00  0.00    -0.244 NA
ATOM     19  C   UNL     1      35.060 -22.460 -18.025  0.00  0.00    +0.006 C 
ATOM     20  C   UNL     1      34.136 -23.364 -15.996  0.00  0.00    -0.004 C 
ATOM     21  C   UNL     1      32.892 -23.313 -16.605  0.00  0.00    +0.077 C 
ATOM     22  C   UNL     1      35.235 -22.927 -16.728  0.00  0.00    -0.005 C 
ATOM     23  C   UNL     1      33.774 -22.449 -18.542  0.00  0.00    +0.095 C 
ATOM     24  C   UNL     1      34.326 -23.864 -14.606  0.00  0.00    +0.033 C 
BRANCH  21  26
ATOM     25  N   UNL     1      29.369 -24.578 -14.610  0.00  0.00    -0.248 NA
ATOM     26  C   UNL     1      31.691 -23.744 -15.925  0.00  0.00    +0.020 C 
ATOM     27  C   UNL     1      30.475 -23.127 -16.197  0.00  0.00    +0.016 C 
ATOM     28  C   UNL     1      31.748 -24.778 -14.996  0.00  0.00    +0.022 C 
ATOM     29  C   UNL     1      29.353 -23.578 -15.518  0.00  0.00    +0.059 C 
ATOM     30  C   UNL     1      30.570 -25.154 -14.372  0.00  0.00    +0.098 C 
ATOM     31  C   UNL     1      28.031 -22.938 -15.784  0.00  0.00    +0.052 C 
ENDBRANCH  21  26
ENDBRANCH  17  19
ENDBRANCH   4  17
TORSDOF 4
ENDMDL
MODEL 8
REMARK VINA RESULT:     -10.5      1.726     10.964
REMARK  Name = 46926973
REMARK  4 active torsions:
REMARK  status: ('A' for Active; 'I' for Inactive)
REMARK    1  A    between atoms: C_4  and  C_17
REMARK    2  A    between atoms: C_6  and  C_13
REMARK    3  A    between atoms: C_17  and  C_19
REMARK    4  A    between atoms: C_21  and  C_26
REMARK                            x       y       z     vdW  Elec       q    Type
REMARK                         _______ _______ _______ _____ _____    ______ ____
ROOT
ATOM      1  O   UNL     1      35.328 -17.534 -20.572  0.00  0.00    -0.274 OA
ATOM      2  N   UNL     1      34.558 -17.271 -22.779  0.00  0.00    -0.269 N 
ATOM      3  N   UNL     1      33.905 -15.395 -24.063  0.00  0.00    -0.229 NA
ATOM      4  C   UNL     1      35.015 -17.992 -21.667  0.00  0.00    +0.232 C 
ATOM      5  C   UNL     1      34.357 -15.889 -22.889  0.00  0.00    +0.134 C 
ATOM      6  C   UNL     1      33.981 -13.193 -23.068  0.00  0.00    +0.038 C 
ATOM      7  C   UNL     1      34.639 -15.112 -21.777  0.00  0.00    +0.035 C 
ATOM      8  C   UNL     1      34.444 -13.739 -21.876  0.00  0.00    +0.006 C 
ATOM      9  C   UNL     1      33.728 -14.056 -24.122  0.00  0.00    +0.102 C 
ATOM     10  H   UNL     1      34.352 -17.802 -23.582  0.00  0.00    +0.156 HD
ENDROOT
BRANCH   6  13
ATOM     11  N   UNL     1      32.677 -11.277 -22.585  0.00  0.00    -0.241 NA
ATOM     12  N   UNL     1      34.427  -9.640 -24.041  0.00  0.00    -0.239 NA
ATOM     13  C   UNL     1      33.769 -11.771 -23.202  0.00  0.00    +0.102 C 
ATOM     14  C   UNL     1      34.628 -10.966 -23.917  0.00  0.00    +0.118 C 
ATOM     15  C   UNL     1      32.476  -9.950 -22.708  0.00  0.00    +0.119 C 
ATOM     16  C   UNL     1      33.335  -9.146 -23.423  0.00  0.00    +0.120 C 
ENDBRANCH   6  13
BRANCH   4  17
ATOM     17  C   UNL     1      35.090 -19.478 -21.978  0.00  0.00    +0.113 C 
BRANCH  17  19
ATOM     18  N   UNL     1      33.174 -21.435 -19.363  0.00  0.00    -0.244 NA
ATOM     19  C   UNL     1      34.802 -20.355 -20.786  0.00  0.00    +0.006 C 
ATOM     20  C   UNL     1      35.538 -21.689 -18.925  0.00  0.00    -0.004 C 
ATOM     21  C   UNL     1      34.204 -21.932 -18.642  0.00  0.00    +0.077 C 
ATOM     22  C   UNL     1      35.834 -20.884 -20.020  0.00  0.00    -0.005 C 
ATOM     23  C   UNL     1      33.501 -20.657 -20.419  0.00  0.00    +0.095 C 
ATOM     24  C   UNL     1      36.646 -22.255 -18.105  0.00  0.00    +0.033 C 
BRANCH  21  26
ATOM     25  N   UNL     1      33.014 -24.347 -15.364  0.00  0.00    -0.248 NA
ATOM     26  C   UNL     1      33.798 -22.755 -17.525  0.00  0.00    +0.020 C 
ATOM     27  C   UNL     1      32.449 -22.903 -17.220  0.00  0.00    +0.016 C 
ATOM     28  C   UNL     1      34.755 -23.402 -16.751  0.00  0.00    +0.022 C 
ATOM     29  C   UNL     1      32.113 -23.703 -16.139  0.00  0.00    +0.059 C 
ATOM     30  C   UNL     1      34.315 -24.179 -15.691  0.00  0.00    +0.098 C 
ATOM     31  C   UNL     1      30.675 -23.884 -15.782  0.00  0.00    +0.052 C 
ENDBRANCH  21  26
ENDBRANCH  17  19
ENDBRANCH   4  17
TORSDOF 4
ENDMDL
MODEL 9
REMARK VINA RESULT:     -10.4      3.184      5.990
REMARK  Name = 46926973
REMARK  4 active torsions:
REMARK  status: ('A' for Active; 'I' for Inactive)
REMARK    1  A    between atoms: C_4  and  C_17
REMARK    2  A    between atoms: C_6  and  C_13
REMARK    3  A    between atoms: C_17  and  C_19
REMARK    4  A    between atoms: C_21  and  C_26
REMARK                            x       y       z     vdW  Elec       q    Type
REMARK                         _______ _______ _______ _____ _____    ______ ____
ROOT
ATOM      1  O   UNL     1      34.230 -13.759 -21.802  0.00  0.00    -0.274 OA
ATOM      2  N   UNL     1      34.673 -15.383 -23.444  0.00  0.00    -0.269 N 
ATOM      3  N   UNL     1      35.054 -17.716 -23.368  0.00  0.00    -0.229 NA
ATOM      4  C   UNL     1      34.408 -14.091 -22.970  0.00  0.00    +0.232 C 
ATOM      5  C   UNL     1      34.793 -16.566 -22.706  0.00  0.00    +0.134 C 
ATOM      6  C   UNL     1      35.015 -18.854 -21.235  0.00  0.00    +0.038 C 
ATOM      7  C   UNL     1      34.633 -16.481 -21.332  0.00  0.00    +0.035 C 
ATOM      8  C   UNL     1      34.749 -17.651 -20.590  0.00  0.00    +0.006 C 
ATOM      9  C   UNL     1      35.159 -18.833 -22.613  0.00  0.00    +0.102 C 
ATOM     10  H   UNL     1      34.790 -15.469 -24.418  0.00  0.00    +0.156 HD
ENDROOT
BRANCH   6  13
ATOM     11  N   UNL     1      36.391 -20.418 -20.109  0.00  0.00    -0.241 NA
ATOM     12  N   UNL     1      34.174 -22.023 -19.497  0.00  0.00    -0.239 NA
ATOM     13  C   UNL     1      35.142 -20.085 -20.492  0.00  0.00    +0.102 C 
ATOM     14  C   UNL     1      34.053 -20.873 -20.191  0.00  0.00    +0.118 C 
ATOM     15  C   UNL     1      36.512 -21.566 -19.415  0.00  0.00    +0.119 C 
ATOM     16  C   UNL     1      35.424 -22.355 -19.115  0.00  0.00    +0.120 C 
ENDBRANCH   6  13
BRANCH   4  17
ATOM     17  C   UNL     1      34.360 -13.091 -24.114  0.00  0.00    +0.113 C 
BRANCH  17  19
ATOM     18  N   UNL     1      34.304  -9.333 -23.654  0.00  0.00    -0.244 NA
ATOM     19  C   UNL     1      33.907 -11.718 -23.691  0.00  0.00    +0.006 C 
ATOM     20  C   UNL     1      32.336 -10.261 -22.598  0.00  0.00    -0.004 C 
ATOM     21  C   UNL     1      33.152  -9.201 -22.959  0.00  0.00    +0.077 C 
ATOM     22  C   UNL     1      32.729 -11.540 -22.976  0.00  0.00    -0.005 C 
ATOM     23  C   UNL     1      34.652 -10.592 -24.003  0.00  0.00    +0.095 C 
ATOM     24  C   UNL     1      31.073 -10.073 -21.829  0.00  0.00    +0.033 C 
BRANCH  21  26
ATOM     25  N   UNL     1      32.201  -5.195 -21.937  0.00  0.00    -0.248 NA
ATOM     26  C   UNL     1      32.828  -7.835 -22.611  0.00  0.00    +0.020 C 
ATOM     27  C   UNL     1      32.651  -6.883 -23.609  0.00  0.00    +0.016 C 
ATOM     28  C   UNL     1      32.691  -7.469 -21.276  0.00  0.00    +0.022 C 
ATOM     29  C   UNL     1      32.341  -5.588 -23.223  0.00  0.00    +0.059 C 
ATOM     30  C   UNL     1      32.380  -6.148 -20.995  0.00  0.00    +0.098 C 
ATOM     31  C   UNL     1      32.145  -4.540 -24.267  0.00  0.00    +0.052 C 
ENDBRANCH  21  26
ENDBRANCH  17  19
ENDBRANCH   4  17
TORSDOF 4
ENDMDL
