MODEL 1
REMARK VINA RESULT:     -10.9      0.000      0.000
REMARK  Name = 447359
REMARK  5 active torsions:
REMARK  status: ('A' for Active; 'I' for Inactive)
REMARK    1  A    between atoms: N_2  and  S_8
REMARK    2  A    between atoms: N_3  and  C_21
REMARK    3  A    between atoms: S_8  and  C_13
REMARK    4  A    between atoms: C_21  and  C_22
REMARK    5  A    between atoms: C_25  and  C_30
REMARK                            x       y       z     vdW  Elec       q    Type
REMARK                         _______ _______ _______ _____ _____    ______ ____
ROOT
ATOM      1  O   UNL     1      33.955 -24.282 -13.571  0.00  0.00    -0.273 OA
ATOM      2  N   UNL     1      34.392 -22.914 -16.893  0.00  0.00    -0.144 NA
ATOM      3  N   UNL     1      35.797 -23.215 -14.490  0.00  0.00    -0.273 N 
ATOM      4  C   UNL     1      35.870 -22.954 -16.948  0.00  0.00    +0.118 C 
ATOM      5  C   UNL     1      36.376 -22.472 -15.605  0.00  0.00    +0.113 C 
ATOM      6  C   UNL     1      33.863 -23.865 -15.897  0.00  0.00    +0.181 C 
ATOM      7  C   UNL     1      34.527 -23.785 -14.546  0.00  0.00    +0.244 C 
ENDROOT
BRANCH   2   8
ATOM      8  S   UNL     1      33.589 -22.900 -18.405  0.00  0.00    +0.069 S 
ATOM      9  O   UNL     1      32.235 -22.426 -18.203  0.00  0.00    -0.152 OA
ATOM     10  O   UNL     1      33.872 -24.135 -19.104  0.00  0.00    -0.152 OA
BRANCH   8  13
ATOM     11 CL   UNL     1      35.485 -16.743 -23.426  0.00  0.00    -0.082 Cl
ATOM     12  S   UNL     1      33.273 -20.669 -20.258  0.00  0.00    -0.067 S 
ATOM     13  C   UNL     1      34.367 -21.645 -19.416  0.00  0.00    +0.152 C 
ATOM     14  C   UNL     1      35.665 -21.331 -19.631  0.00  0.00    +0.027 C 
ATOM     15  C   UNL     1      35.805 -20.227 -20.538  0.00  0.00    +0.008 C 
ATOM     16  C   UNL     1      34.558 -19.762 -20.965  0.00  0.00    +0.032 C 
ATOM     17  C   UNL     1      36.965 -19.583 -21.030  0.00  0.00    +0.001 C 
ATOM     18  C   UNL     1      34.443 -18.681 -21.862  0.00  0.00    +0.018 C 
ATOM     19  C   UNL     1      36.855 -18.510 -21.919  0.00  0.00    +0.011 C 
ATOM     20  C   UNL     1      35.606 -18.067 -22.330  0.00  0.00    +0.058 C 
ENDBRANCH   8  13
ENDBRANCH   2   8
BRANCH   3  21
ATOM     21  C   UNL     1      36.510 -23.134 -13.223  0.00  0.00    +0.120 C 
BRANCH  21  22
ATOM     22  C   UNL     1      37.199 -24.436 -12.951  0.00  0.00    -0.002 C 
ATOM     23  C   UNL     1      38.312 -24.798 -13.703  0.00  0.00    +0.000 C 
ATOM     24  C   UNL     1      36.721 -25.275 -11.949  0.00  0.00    -0.003 C 
ATOM     25  C   UNL     1      38.954 -26.011 -13.451  0.00  0.00    +0.030 C 
ATOM     26  C   UNL     1      37.362 -26.488 -11.698  0.00  0.00    -0.000 C 
ATOM     27  C   UNL     1      38.478 -26.856 -12.448  0.00  0.00    +0.003 C 
BRANCH  25  30
ATOM     28  N   UNL     1      41.117 -27.205 -13.697  0.00  0.00    -0.343 N 
ATOM     29  N   UNL     1      40.242 -25.972 -15.480  0.00  0.00    -0.285 NA
ATOM     30  C   UNL     1      40.118 -26.396 -14.234  0.00  0.00    +0.117 C 
ATOM     31  H   UNL     1      41.897 -27.453 -14.245  0.00  0.00    +0.144 HD
ATOM     32  H   UNL     1      41.044 -27.528 -12.771  0.00  0.00    +0.144 HD
ATOM     33  H   UNL     1      41.029 -26.231 -16.011  0.00  0.00    +0.188 HD
ENDBRANCH  25  30
ENDBRANCH  21  22
ENDBRANCH   3  21
TORSDOF 5
ENDMDL
MODEL 2
REMARK VINA RESULT:     -10.6      4.550     10.278
REMARK  Name = 447359
REMARK  5 active torsions:
REMARK  status: ('A' for Active; 'I' for Inactive)
REMARK    1  A    between atoms: N_2  and  S_8
REMARK    2  A    between atoms: N_3  and  C_21
REMARK    3  A    between atoms: S_8  and  C_13
REMARK    4  A    between atoms: C_21  and  C_22
REMARK    5  A    between atoms: C_25  and  C_30
REMARK                            x       y       z     vdW  Elec       q    Type
REMARK                         _______ _______ _______ _____ _____    ______ ____
ROOT
ATOM      1  O   UNL     1      37.483 -20.452 -20.078  0.00  0.00    -0.273 OA
ATOM      2  N   UNL     1      34.226 -21.660 -19.062  0.00  0.00    -0.144 NA
ATOM      3  N   UNL     1      35.380 -19.647 -20.628  0.00  0.00    -0.273 N 
ATOM      4  C   UNL     1      33.434 -21.105 -20.181  0.00  0.00    +0.118 C 
ATOM      5  C   UNL     1      33.936 -19.698 -20.423  0.00  0.00    +0.113 C 
ATOM      6  C   UNL     1      35.650 -21.795 -19.423  0.00  0.00    +0.181 C 
ATOM      7  C   UNL     1      36.254 -20.563 -20.047  0.00  0.00    +0.244 C 
ENDROOT
BRANCH   2   8
ATOM      8  S   UNL     1      33.536 -23.001 -18.252  0.00  0.00    +0.069 S 
ATOM      9  O   UNL     1      33.823 -24.198 -19.016  0.00  0.00    -0.152 OA
ATOM     10  O   UNL     1      32.193 -22.663 -17.832  0.00  0.00    -0.152 OA
BRANCH   8  13
ATOM     11 CL   UNL     1      36.054 -24.566 -10.641  0.00  0.00    -0.082 Cl
ATOM     12  S   UNL     1      33.482 -23.832 -15.455  0.00  0.00    -0.067 S 
ATOM     13  C   UNL     1      34.427 -23.217 -16.714  0.00  0.00    +0.152 C 
ATOM     14  C   UNL     1      35.715 -22.979 -16.372  0.00  0.00    +0.027 C 
ATOM     15  C   UNL     1      35.973 -23.313 -15.000  0.00  0.00    +0.008 C 
ATOM     16  C   UNL     1      34.822 -23.798 -14.372  0.00  0.00    +0.032 C 
ATOM     17  C   UNL     1      37.164 -23.223 -14.240  0.00  0.00    +0.001 C 
ATOM     18  C   UNL     1      34.832 -24.190 -13.019  0.00  0.00    +0.018 C 
ATOM     19  C   UNL     1      37.178 -23.612 -12.898  0.00  0.00    +0.011 C 
ATOM     20  C   UNL     1      36.022 -24.090 -12.296  0.00  0.00    +0.058 C 
ENDBRANCH   8  13
ENDBRANCH   2   8
BRANCH   3  21
ATOM     21  C   UNL     1      35.897 -18.449 -21.276  0.00  0.00    +0.120 C 
BRANCH  21  22
ATOM     22  C   UNL     1      35.245 -18.283 -22.615  0.00  0.00    -0.002 C 
ATOM     23  C   UNL     1      34.994 -17.005 -23.106  0.00  0.00    +0.000 C 
ATOM     24  C   UNL     1      34.894 -19.406 -23.357  0.00  0.00    -0.003 C 
ATOM     25  C   UNL     1      34.386 -16.850 -24.352  0.00  0.00    +0.030 C 
ATOM     26  C   UNL     1      34.285 -19.250 -24.602  0.00  0.00    -0.000 C 
ATOM     27  C   UNL     1      34.031 -17.973 -25.100  0.00  0.00    +0.003 C 
BRANCH  25  30
ATOM     28  N   UNL     1      34.065 -14.409 -24.030  0.00  0.00    -0.343 N 
ATOM     29  N   UNL     1      33.925 -15.344 -26.167  0.00  0.00    -0.285 NA
ATOM     30  C   UNL     1      34.121 -15.517 -24.872  0.00  0.00    +0.117 C 
ATOM     31  H   UNL     1      33.884 -13.516 -24.403  0.00  0.00    +0.144 HD
ATOM     32  H   UNL     1      34.205 -14.518 -23.062  0.00  0.00    +0.144 HD
ATOM     33  H   UNL     1      33.746 -14.442 -26.521  0.00  0.00    +0.188 HD
ENDBRANCH  25  30
ENDBRANCH  21  22
ENDBRANCH   3  21
TORSDOF 5
ENDMDL
MODEL 3
REMARK VINA RESULT:     -10.2      3.394      5.433
REMARK  Name = 447359
REMARK  5 active torsions:
REMARK  status: ('A' for Active; 'I' for Inactive)
REMARK    1  A    between atoms: N_2  and  S_8
REMARK    2  A    between atoms: N_3  and  C_21
REMARK    3  A    between atoms: S_8  and  C_13
REMARK    4  A    between atoms: C_21  and  C_22
REMARK    5  A    between atoms: C_25  and  C_30
REMARK                            x       y       z     vdW  Elec       q    Type
REMARK                         _______ _______ _______ _____ _____    ______ ____
ROOT
ATOM      1  O   UNL     1      32.267 -21.075 -19.205  0.00  0.00    -0.273 OA
ATOM      2  N   UNL     1      35.499 -20.143 -20.543  0.00  0.00    -0.144 NA
ATOM      3  N   UNL     1      34.324 -22.106 -18.928  0.00  0.00    -0.273 N 
ATOM      4  C   UNL     1      36.150 -21.469 -20.470  0.00  0.00    +0.118 C 
ATOM      5  C   UNL     1      35.769 -22.077 -19.137  0.00  0.00    +0.113 C 
ATOM      6  C   UNL     1      34.028 -20.264 -20.560  0.00  0.00    +0.181 C 
ATOM      7  C   UNL     1      33.465 -21.164 -19.488  0.00  0.00    +0.244 C 
ENDROOT
BRANCH   2   8
ATOM      8  S   UNL     1      36.165 -19.045 -21.675  0.00  0.00    +0.069 S 
ATOM      9  O   UNL     1      35.873 -19.527 -23.010  0.00  0.00    -0.152 OA
ATOM     10  O   UNL     1      37.507 -18.694 -21.263  0.00  0.00    -0.152 OA
BRANCH   8  13
ATOM     11 CL   UNL     1      32.508 -11.814 -22.704  0.00  0.00    -0.082 Cl
ATOM     12  S   UNL     1      35.261 -16.579 -22.945  0.00  0.00    -0.067 S 
ATOM     13  C   UNL     1      35.255 -17.510 -21.534  0.00  0.00    +0.152 C 
ATOM     14  C   UNL     1      34.565 -16.957 -20.511  0.00  0.00    +0.027 C 
ATOM     15  C   UNL     1      33.993 -15.691 -20.874  0.00  0.00    +0.008 C 
ATOM     16  C   UNL     1      34.300 -15.358 -22.197  0.00  0.00    +0.032 C 
ATOM     17  C   UNL     1      33.207 -14.787 -20.122  0.00  0.00    +0.001 C 
ATOM     18  C   UNL     1      33.847 -14.158 -22.778  0.00  0.00    +0.018 C 
ATOM     19  C   UNL     1      32.754 -13.595 -20.695  0.00  0.00    +0.011 C 
ATOM     20  C   UNL     1      33.073 -13.286 -22.010  0.00  0.00    +0.058 C 
ENDBRANCH   8  13
ENDBRANCH   2   8
BRANCH   3  21
ATOM     21  C   UNL     1      33.839 -23.028 -17.910  0.00  0.00    +0.120 C 
BRANCH  21  22
ATOM     22  C   UNL     1      34.799 -23.057 -16.761  0.00  0.00    -0.002 C 
ATOM     23  C   UNL     1      34.452 -23.720 -15.588  0.00  0.00    +0.000 C 
ATOM     24  C   UNL     1      36.032 -22.421 -16.874  0.00  0.00    -0.003 C 
ATOM     25  C   UNL     1      35.346 -23.747 -14.517  0.00  0.00    +0.030 C 
ATOM     26  C   UNL     1      36.925 -22.447 -15.803  0.00  0.00    -0.000 C 
ATOM     27  C   UNL     1      36.582 -23.110 -14.624  0.00  0.00    +0.003 C 
BRANCH  25  30
ATOM     28  N   UNL     1      35.630 -25.615 -12.906  0.00  0.00    -0.343 N 
ATOM     29  N   UNL     1      34.036 -23.952 -12.513  0.00  0.00    -0.285 NA
ATOM     30  C   UNL     1      34.989 -24.439 -13.288  0.00  0.00    +0.117 C 
ATOM     31  H   UNL     1      35.373 -26.066 -12.070  0.00  0.00    +0.144 HD
ATOM     32  H   UNL     1      36.340 -25.994 -13.471  0.00  0.00    +0.144 HD
ATOM     33  H   UNL     1      33.793 -24.418 -11.680  0.00  0.00    +0.188 HD
ENDBRANCH  25  30
ENDBRANCH  21  22
ENDBRANCH   3  21
TORSDOF 5
ENDMDL
MODEL 4
REMARK VINA RESULT:     -10.1      5.631      8.806
REMARK  Name = 447359
REMARK  5 active torsions:
REMARK  status: ('A' for Active; 'I' for Inactive)
REMARK    1  A    between atoms: N_2  and  S_8
REMARK    2  A    between atoms: N_3  and  C_21
REMARK    3  A    between atoms: S_8  and  C_13
REMARK    4  A    between atoms: C_21  and  C_22
REMARK    5  A    between atoms: C_25  and  C_30
REMARK                            x       y       z     vdW  Elec       q    Type
REMARK                         _______ _______ _______ _____ _____    ______ ____
ROOT
ATOM      1  O   UNL     1      35.546 -17.361 -20.411  0.00  0.00    -0.273 OA
ATOM      2  N   UNL     1      34.794 -17.136 -23.944  0.00  0.00    -0.144 NA
ATOM      3  N   UNL     1      35.546 -19.028 -22.022  0.00  0.00    -0.273 N 
ATOM      4  C   UNL     1      34.427 -18.551 -24.175  0.00  0.00    +0.118 C 
ATOM      5  C   UNL     1      35.437 -19.397 -23.430  0.00  0.00    +0.113 C 
ATOM      6  C   UNL     1      34.659 -16.768 -22.522  0.00  0.00    +0.181 C 
ATOM      7  C   UNL     1      35.312 -17.733 -21.565  0.00  0.00    +0.244 C 
ENDROOT
BRANCH   2   8
ATOM      8  S   UNL     1      34.161 -16.008 -25.065  0.00  0.00    +0.069 S 
ATOM      9  O   UNL     1      32.960 -16.567 -25.652  0.00  0.00    -0.152 OA
ATOM     10  O   UNL     1      35.240 -15.487 -25.877  0.00  0.00    -0.152 OA
BRANCH   8  13
ATOM     11 CL   UNL     1      32.388  -8.610 -22.092  0.00  0.00    -0.082 Cl
ATOM     12  S   UNL     1      34.040 -13.104 -24.814  0.00  0.00    -0.067 S 
ATOM     13  C   UNL     1      33.596 -14.587 -24.136  0.00  0.00    +0.152 C 
ATOM     14  C   UNL     1      32.880 -14.478 -22.993  0.00  0.00    +0.027 C 
ATOM     15  C   UNL     1      32.666 -13.107 -22.625  0.00  0.00    +0.008 C 
ATOM     16  C   UNL     1      33.256 -12.237 -23.547  0.00  0.00    +0.032 C 
ATOM     17  C   UNL     1      31.980 -12.547 -21.521  0.00  0.00    +0.001 C 
ATOM     18  C   UNL     1      33.178 -10.839 -23.394  0.00  0.00    +0.018 C 
ATOM     19  C   UNL     1      31.900 -11.160 -21.366  0.00  0.00    +0.011 C 
ATOM     20  C   UNL     1      32.494 -10.317 -22.295  0.00  0.00    +0.058 C 
ENDBRANCH   8  13
ENDBRANCH   2   8
BRANCH   3  21
ATOM     21  C   UNL     1      36.145 -20.020 -21.140  0.00  0.00    +0.120 C 
BRANCH  21  22
ATOM     22  C   UNL     1      35.073 -20.686 -20.333  0.00  0.00    -0.002 C 
ATOM     23  C   UNL     1      35.422 -21.557 -19.306  0.00  0.00    +0.000 C 
ATOM     24  C   UNL     1      33.734 -20.430 -20.616  0.00  0.00    -0.003 C 
ATOM     25  C   UNL     1      34.424 -22.178 -18.554  0.00  0.00    +0.030 C 
ATOM     26  C   UNL     1      32.737 -21.051 -19.865  0.00  0.00    -0.000 C 
ATOM     27  C   UNL     1      33.081 -21.925 -18.834  0.00  0.00    +0.003 C 
BRANCH  25  30
ATOM     28  N   UNL     1      36.006 -22.986 -16.819  0.00  0.00    -0.343 N 
ATOM     29  N   UNL     1      33.940 -24.039 -17.114  0.00  0.00    -0.285 NA
ATOM     30  C   UNL     1      34.783 -23.089 -17.479  0.00  0.00    +0.117 C 
ATOM     31  H   UNL     1      36.228 -23.614 -16.094  0.00  0.00    +0.144 HD
ATOM     32  H   UNL     1      36.648 -22.287 -17.079  0.00  0.00    +0.144 HD
ATOM     33  H   UNL     1      34.181 -24.657 -16.386  0.00  0.00    +0.188 HD
ENDBRANCH  25  30
ENDBRANCH  21  22
ENDBRANCH   3  21
TORSDOF 5
ENDMDL
MODEL 5
REMARK VINA RESULT:     -10.1      4.677     10.275
REMARK  Name = 447359
REMARK  5 active torsions:
REMARK  status: ('A' for Active; 'I' for Inactive)
REMARK    1  A    between atoms: N_2  and  S_8
REMARK    2  A    between atoms: N_3  and  C_21
REMARK    3  A    between atoms: S_8  and  C_13
REMARK    4  A    between atoms: C_21  and  C_22
REMARK    5  A    between atoms: C_25  and  C_30
REMARK                            x       y       z     vdW  Elec       q    Type
REMARK                         _______ _______ _______ _____ _____    ______ ____
ROOT
ATOM      1  O   UNL     1      37.638 -19.957 -20.393  0.00  0.00    -0.273 OA
ATOM      2  N   UNL     1      34.328 -21.164 -19.563  0.00  0.00    -0.144 NA
ATOM      3  N   UNL     1      35.573 -19.209 -21.133  0.00  0.00    -0.273 N 
ATOM      4  C   UNL     1      33.615 -20.673 -20.763  0.00  0.00    +0.118 C 
ATOM      5  C   UNL     1      34.118 -19.271 -21.034  0.00  0.00    +0.113 C 
ATOM      6  C   UNL     1      35.776 -21.295 -19.812  0.00  0.00    +0.181 C 
ATOM      7  C   UNL     1      36.411 -20.084 -20.448  0.00  0.00    +0.244 C 
ENDROOT
BRANCH   2   8
ATOM      8  S   UNL     1      33.595 -22.476 -18.743  0.00  0.00    +0.069 S 
ATOM      9  O   UNL     1      33.731 -23.664 -19.561  0.00  0.00    -0.152 OA
ATOM     10  O   UNL     1      32.317 -22.051 -18.214  0.00  0.00    -0.152 OA
BRANCH   8  13
ATOM     11 CL   UNL     1      36.553 -24.638 -11.443  0.00  0.00    -0.082 Cl
ATOM     12  S   UNL     1      33.703 -23.525 -16.023  0.00  0.00    -0.067 S 
ATOM     13  C   UNL     1      34.575 -22.812 -17.284  0.00  0.00    +0.152 C 
ATOM     14  C   UNL     1      35.882 -22.603 -17.001  0.00  0.00    +0.027 C 
ATOM     15  C   UNL     1      36.220 -23.044 -15.678  0.00  0.00    +0.008 C 
ATOM     16  C   UNL     1      35.106 -23.576 -15.022  0.00  0.00    +0.032 C 
ATOM     17  C   UNL     1      37.454 -23.016 -14.986  0.00  0.00    +0.001 C 
ATOM     18  C   UNL     1      35.194 -24.075 -13.707  0.00  0.00    +0.018 C 
ATOM     19  C   UNL     1      37.546 -23.510 -13.682  0.00  0.00    +0.011 C 
ATOM     20  C   UNL     1      36.426 -24.032 -13.051  0.00  0.00    +0.058 C 
ENDBRANCH   8  13
ENDBRANCH   2   8
BRANCH   3  21
ATOM     21  C   UNL     1      36.123 -18.035 -21.798  0.00  0.00    +0.120 C 
BRANCH  21  22
ATOM     22  C   UNL     1      35.138 -16.909 -21.724  0.00  0.00    -0.002 C 
ATOM     23  C   UNL     1      34.819 -16.195 -22.875  0.00  0.00    +0.000 C 
ATOM     24  C   UNL     1      34.550 -16.584 -20.506  0.00  0.00    -0.003 C 
ATOM     25  C   UNL     1      33.902 -15.145 -22.807  0.00  0.00    +0.030 C 
ATOM     26  C   UNL     1      33.634 -15.534 -20.438  0.00  0.00    -0.000 C 
ATOM     27  C   UNL     1      33.310 -14.814 -21.587  0.00  0.00    +0.003 C 
BRANCH  25  30
ATOM     28  N   UNL     1      33.793 -13.022 -24.090  0.00  0.00    -0.343 N 
ATOM     29  N   UNL     1      33.026 -15.015 -25.040  0.00  0.00    -0.285 NA
ATOM     30  C   UNL     1      33.564 -14.394 -24.006  0.00  0.00    +0.117 C 
ATOM     31  H   UNL     1      33.556 -12.534 -24.911  0.00  0.00    +0.144 HD
ATOM     32  H   UNL     1      34.190 -12.542 -23.329  0.00  0.00    +0.144 HD
ATOM     33  H   UNL     1      32.796 -14.509 -25.853  0.00  0.00    +0.188 HD
ENDBRANCH  25  30
ENDBRANCH  21  22
ENDBRANCH   3  21
TORSDOF 5
ENDMDL
MODEL 6
REMARK VINA RESULT:     -10.0     11.156     16.785
REMARK  Name = 447359
REMARK  5 active torsions:
REMARK  status: ('A' for Active; 'I' for Inactive)
REMARK    1  A    between atoms: N_2  and  S_8
REMARK    2  A    between atoms: N_3  and  C_21
REMARK    3  A    between atoms: S_8  and  C_13
REMARK    4  A    between atoms: C_21  and  C_22
REMARK    5  A    between atoms: C_25  and  C_30
REMARK                            x       y       z     vdW  Elec       q    Type
REMARK                         _______ _______ _______ _____ _____    ______ ____
ROOT
ATOM      1  O   UNL     1      34.567  -9.309 -24.019  0.00  0.00    -0.273 OA
ATOM      2  N   UNL     1      32.432 -10.581 -21.387  0.00  0.00    -0.144 NA
ATOM      3  N   UNL     1      33.581  -8.178 -22.252  0.00  0.00    -0.273 N 
ATOM      4  C   UNL     1      31.755  -9.314 -21.032  0.00  0.00    +0.118 C 
ATOM      5  C   UNL     1      32.816  -8.236 -21.010  0.00  0.00    +0.113 C 
ATOM      6  C   UNL     1      32.986 -10.531 -22.754  0.00  0.00    +0.181 C 
ATOM      7  C   UNL     1      33.800  -9.297 -23.051  0.00  0.00    +0.244 C 
ENDROOT
BRANCH   2   8
ATOM      8  S   UNL     1      31.594 -12.016 -20.979  0.00  0.00    +0.069 S 
ATOM      9  O   UNL     1      30.361 -12.061 -21.739  0.00  0.00    -0.152 OA
ATOM     10  O   UNL     1      31.616 -12.187 -19.542  0.00  0.00    -0.152 OA
BRANCH   8  13
ATOM     11 CL   UNL     1      36.183 -18.685 -22.070  0.00  0.00    -0.082 Cl
ATOM     12  S   UNL     1      33.186 -14.386 -20.375  0.00  0.00    -0.067 S 
ATOM     13  C   UNL     1      32.558 -13.394 -21.592  0.00  0.00    +0.152 C 
ATOM     14  C   UNL     1      32.878 -13.790 -22.846  0.00  0.00    +0.027 C 
ATOM     15  C   UNL     1      33.686 -14.976 -22.842  0.00  0.00    +0.008 C 
ATOM     16  C   UNL     1      33.934 -15.415 -21.538  0.00  0.00    +0.032 C 
ATOM     17  C   UNL     1      34.234 -15.719 -23.914  0.00  0.00    +0.001 C 
ATOM     18  C   UNL     1      34.708 -16.565 -21.283  0.00  0.00    +0.018 C 
ATOM     19  C   UNL     1      35.002 -16.860 -23.665  0.00  0.00    +0.011 C 
ATOM     20  C   UNL     1      35.235 -17.276 -22.362  0.00  0.00    +0.058 C 
ENDBRANCH   8  13
ENDBRANCH   2   8
BRANCH   3  21
ATOM     21  C   UNL     1      34.310  -6.943 -22.503  0.00  0.00    +0.120 C 
BRANCH  21  22
ATOM     22  C   UNL     1      33.515  -6.069 -23.423  0.00  0.00    -0.002 C 
ATOM     23  C   UNL     1      32.450  -5.326 -22.922  0.00  0.00    +0.000 C 
ATOM     24  C   UNL     1      33.844  -6.006 -24.774  0.00  0.00    -0.003 C 
ATOM     25  C   UNL     1      31.709  -4.512 -23.779  0.00  0.00    +0.030 C 
ATOM     26  C   UNL     1      33.102  -5.194 -25.631  0.00  0.00    -0.000 C 
ATOM     27  C   UNL     1      32.034  -4.447 -25.134  0.00  0.00    +0.003 C 
BRANCH  25  30
ATOM     28  N   UNL     1      30.127  -3.913 -21.961  0.00  0.00    -0.343 N 
ATOM     29  N   UNL     1      30.006  -2.836 -24.032  0.00  0.00    -0.285 NA
ATOM     30  C   UNL     1      30.595  -3.733 -23.261  0.00  0.00    +0.117 C 
ATOM     31  H   UNL     1      29.371  -3.375 -21.631  0.00  0.00    +0.144 HD
ATOM     32  H   UNL     1      30.550  -4.579 -21.373  0.00  0.00    +0.144 HD
ATOM     33  H   UNL     1      29.252  -2.307 -23.683  0.00  0.00    +0.188 HD
ENDBRANCH  25  30
ENDBRANCH  21  22
ENDBRANCH   3  21
TORSDOF 5
ENDMDL
MODEL 7
REMARK VINA RESULT:      -9.9     11.213     15.092
REMARK  Name = 447359
REMARK  5 active torsions:
REMARK  status: ('A' for Active; 'I' for Inactive)
REMARK    1  A    between atoms: N_2  and  S_8
REMARK    2  A    between atoms: N_3  and  C_21
REMARK    3  A    between atoms: S_8  and  C_13
REMARK    4  A    between atoms: C_21  and  C_22
REMARK    5  A    between atoms: C_25  and  C_30
REMARK                            x       y       z     vdW  Elec       q    Type
REMARK                         _______ _______ _______ _____ _____    ______ ____
ROOT
ATOM      1  O   UNL     1      33.741 -11.432 -24.002  0.00  0.00    -0.273 OA
ATOM      2  N   UNL     1      32.261  -9.031 -21.733  0.00  0.00    -0.144 NA
ATOM      3  N   UNL     1      32.131 -11.755 -22.366  0.00  0.00    -0.273 N 
ATOM      4  C   UNL     1      31.828  -9.973 -20.678  0.00  0.00    +0.118 C 
ATOM      5  C   UNL     1      31.228 -11.174 -21.377  0.00  0.00    +0.113 C 
ATOM      6  C   UNL     1      33.344  -9.602 -22.556  0.00  0.00    +0.181 C 
ATOM      7  C   UNL     1      33.075 -10.999 -23.056  0.00  0.00    +0.244 C 
ENDROOT
BRANCH   2   8
ATOM      8  S   UNL     1      32.485  -7.407 -21.238  0.00  0.00    +0.069 S 
ATOM      9  O   UNL     1      33.715  -7.323 -20.478  0.00  0.00    -0.152 OA
ATOM     10  O   UNL     1      31.233  -6.889 -20.731  0.00  0.00    -0.152 OA
BRANCH   8  13
ATOM     11 CL   UNL     1      32.443  -2.090 -27.438  0.00  0.00    -0.082 Cl
ATOM     12  S   UNL     1      31.666  -5.196 -22.957  0.00  0.00    -0.067 S 
ATOM     13  C   UNL     1      32.790  -6.434 -22.709  0.00  0.00    +0.152 C 
ATOM     14  C   UNL     1      33.751  -6.504 -23.659  0.00  0.00    +0.027 C 
ATOM     15  C   UNL     1      33.584  -5.494 -24.665  0.00  0.00    +0.008 C 
ATOM     16  C   UNL     1      32.465  -4.698 -24.401  0.00  0.00    +0.032 C 
ATOM     17  C   UNL     1      34.350  -5.210 -25.820  0.00  0.00    +0.001 C 
ATOM     18  C   UNL     1      32.099  -3.637 -25.253  0.00  0.00    +0.018 C 
ATOM     19  C   UNL     1      33.990  -4.159 -26.667  0.00  0.00    +0.011 C 
ATOM     20  C   UNL     1      32.875  -3.383 -26.385  0.00  0.00    +0.058 C 
ENDBRANCH   8  13
ENDBRANCH   2   8
BRANCH   3  21
ATOM     21  C   UNL     1      31.843 -13.123 -22.776  0.00  0.00    +0.120 C 
BRANCH  21  22
ATOM     22  C   UNL     1      32.808 -14.058 -22.114  0.00  0.00    -0.002 C 
ATOM     23  C   UNL     1      33.579 -14.918 -22.891  0.00  0.00    +0.000 C 
ATOM     24  C   UNL     1      32.927 -14.062 -20.727  0.00  0.00    -0.003 C 
ATOM     25  C   UNL     1      34.477 -15.790 -22.275  0.00  0.00    +0.030 C 
ATOM     26  C   UNL     1      33.824 -14.935 -20.112  0.00  0.00    -0.000 C 
ATOM     27  C   UNL     1      34.599 -15.799 -20.885  0.00  0.00    +0.003 C 
BRANCH  25  30
ATOM     28  N   UNL     1      36.060 -17.690 -22.495  0.00  0.00    -0.343 N 
ATOM     29  N   UNL     1      35.296 -16.566 -24.397  0.00  0.00    -0.285 NA
ATOM     30  C   UNL     1      35.286 -16.691 -23.081  0.00  0.00    +0.117 C 
ATOM     31  H   UNL     1      36.600 -18.289 -23.060  0.00  0.00    +0.144 HD
ATOM     32  H   UNL     1      36.068 -17.797 -21.517  0.00  0.00    +0.144 HD
ATOM     33  H   UNL     1      35.843 -17.175 -24.945  0.00  0.00    +0.188 HD
ENDBRANCH  25  30
ENDBRANCH  21  22
ENDBRANCH   3  21
TORSDOF 5
ENDMDL
MODEL 8
REMARK VINA RESULT:      -9.8      6.915     12.592
REMARK  Name = 447359
REMARK  5 active torsions:
REMARK  status: ('A' for Active; 'I' for Inactive)
REMARK    1  A    between atoms: N_2  and  S_8
REMARK    2  A    between atoms: N_3  and  C_21
REMARK    3  A    between atoms: S_8  and  C_13
REMARK    4  A    between atoms: C_21  and  C_22
REMARK    5  A    between atoms: C_25  and  C_30
REMARK                            x       y       z     vdW  Elec       q    Type
REMARK                         _______ _______ _______ _____ _____    ______ ____
ROOT
ATOM      1  O   UNL     1      33.200 -15.051 -19.865  0.00  0.00    -0.273 OA
ATOM      2  N   UNL     1      34.758 -17.188 -22.337  0.00  0.00    -0.144 NA
ATOM      3  N   UNL     1      33.311 -14.797 -22.167  0.00  0.00    -0.273 N 
ATOM      4  C   UNL     1      34.948 -16.179 -23.402  0.00  0.00    +0.118 C 
ATOM      5  C   UNL     1      33.679 -15.356 -23.464  0.00  0.00    +0.113 C 
ATOM      6  C   UNL     1      34.621 -16.555 -21.011  0.00  0.00    +0.181 C 
ATOM      7  C   UNL     1      33.630 -15.420 -20.963  0.00  0.00    +0.244 C 
ENDROOT
BRANCH   2   8
ATOM      8  S   UNL     1      35.793 -18.550 -22.405  0.00  0.00    +0.069 S 
ATOM      9  O   UNL     1      37.112 -18.148 -21.961  0.00  0.00    -0.152 OA
ATOM     10  O   UNL     1      35.584 -19.243 -23.658  0.00  0.00    -0.152 OA
BRANCH   8  13
ATOM     11 CL   UNL     1      34.934 -23.985 -16.368  0.00  0.00    -0.082 Cl
ATOM     12  S   UNL     1      36.474 -20.375 -20.233  0.00  0.00    -0.067 S 
ATOM     13  C   UNL     1      35.230 -19.715 -21.168  0.00  0.00    +0.152 C 
ATOM     14  C   UNL     1      33.996 -20.165 -20.842  0.00  0.00    +0.027 C 
ATOM     15  C   UNL     1      34.040 -21.110 -19.763  0.00  0.00    +0.008 C 
ATOM     16  C   UNL     1      35.352 -21.321 -19.328  0.00  0.00    +0.032 C 
ATOM     17  C   UNL     1      32.999 -21.817 -19.116  0.00  0.00    +0.001 C 
ATOM     18  C   UNL     1      35.645 -22.211 -18.275  0.00  0.00    +0.018 C 
ATOM     19  C   UNL     1      33.285 -22.700 -18.072  0.00  0.00    +0.011 C 
ATOM     20  C   UNL     1      34.595 -22.893 -17.658  0.00  0.00    +0.058 C 
ENDBRANCH   8  13
ENDBRANCH   2   8
BRANCH   3  21
ATOM     21  C   UNL     1      32.384 -13.673 -22.189  0.00  0.00    +0.120 C 
BRANCH  21  22
ATOM     22  C   UNL     1      33.044 -12.492 -22.832  0.00  0.00    -0.002 C 
ATOM     23  C   UNL     1      32.666 -11.205 -22.462  0.00  0.00    +0.000 C 
ATOM     24  C   UNL     1      34.029 -12.689 -23.795  0.00  0.00    -0.003 C 
ATOM     25  C   UNL     1      33.279 -10.104 -23.061  0.00  0.00    +0.030 C 
ATOM     26  C   UNL     1      34.641 -11.588 -24.394  0.00  0.00    -0.000 C 
ATOM     27  C   UNL     1      34.267 -10.296 -24.028  0.00  0.00    +0.003 C 
BRANCH  25  30
ATOM     28  N   UNL     1      33.830  -7.828 -22.235  0.00  0.00    -0.343 N 
ATOM     29  N   UNL     1      31.620  -8.394 -22.746  0.00  0.00    -0.285 NA
ATOM     30  C   UNL     1      32.889  -8.756 -22.678  0.00  0.00    +0.117 C 
ATOM     31  H   UNL     1      33.543  -6.921 -21.981  0.00  0.00    +0.144 HD
ATOM     32  H   UNL     1      34.779  -8.079 -22.175  0.00  0.00    +0.144 HD
ATOM     33  H   UNL     1      31.354  -7.482 -22.488  0.00  0.00    +0.188 HD
ENDBRANCH  25  30
ENDBRANCH  21  22
ENDBRANCH   3  21
TORSDOF 5
ENDMDL
MODEL 9
REMARK VINA RESULT:      -9.8      6.518     11.844
REMARK  Name = 447359
REMARK  5 active torsions:
REMARK  status: ('A' for Active; 'I' for Inactive)
REMARK    1  A    between atoms: N_2  and  S_8
REMARK    2  A    between atoms: N_3  and  C_21
REMARK    3  A    between atoms: S_8  and  C_13
REMARK    4  A    between atoms: C_21  and  C_22
REMARK    5  A    between atoms: C_25  and  C_30
REMARK                            x       y       z     vdW  Elec       q    Type
REMARK                         _______ _______ _______ _____ _____    ______ ____
ROOT
ATOM      1  O   UNL     1      33.814 -16.206 -25.366  0.00  0.00    -0.273 OA
ATOM      2  N   UNL     1      35.740 -17.513 -22.594  0.00  0.00    -0.144 NA
ATOM      3  N   UNL     1      34.004 -15.402 -23.200  0.00  0.00    -0.273 N 
ATOM      4  C   UNL     1      34.961 -16.910 -21.490  0.00  0.00    +0.118 C 
ATOM      5  C   UNL     1      34.651 -15.484 -21.895  0.00  0.00    +0.113 C 
ATOM      6  C   UNL     1      34.939 -17.608 -23.830  0.00  0.00    +0.181 C 
ATOM      7  C   UNL     1      34.226 -16.335 -24.209  0.00  0.00    +0.244 C 
ENDROOT
BRANCH   2   8
ATOM      8  S   UNL     1      36.650 -18.905 -22.192  0.00  0.00    +0.069 S 
ATOM      9  O   UNL     1      37.796 -18.495 -21.406  0.00  0.00    -0.152 OA
ATOM     10  O   UNL     1      36.786 -19.740 -23.366  0.00  0.00    -0.152 OA
BRANCH   8  13
ATOM     11 CL   UNL     1      33.686 -23.994 -16.532  0.00  0.00    -0.082 Cl
ATOM     12  S   UNL     1      36.566 -20.884 -20.049  0.00  0.00    -0.067 S 
ATOM     13  C   UNL     1      35.660 -19.891 -21.074  0.00  0.00    +0.152 C 
ATOM     14  C   UNL     1      34.322 -19.989 -20.896  0.00  0.00    +0.027 C 
ATOM     15  C   UNL     1      33.988 -20.928 -19.863  0.00  0.00    +0.008 C 
ATOM     16  C   UNL     1      35.136 -21.500 -19.307  0.00  0.00    +0.032 C 
ATOM     17  C   UNL     1      32.728 -21.332 -19.358  0.00  0.00    +0.001 C 
ATOM     18  C   UNL     1      35.058 -22.453 -18.273  0.00  0.00    +0.018 C 
ATOM     19  C   UNL     1      32.647 -22.277 -18.332  0.00  0.00    +0.011 C 
ATOM     20  C   UNL     1      33.801 -22.830 -17.797  0.00  0.00    +0.058 C 
ENDBRANCH   8  13
ENDBRANCH   2   8
BRANCH   3  21
ATOM     21  C   UNL     1      33.293 -14.164 -23.489  0.00  0.00    +0.120 C 
BRANCH  21  22
ATOM     22  C   UNL     1      32.748 -13.590 -22.217  0.00  0.00    -0.002 C 
ATOM     23  C   UNL     1      32.513 -12.221 -22.123  0.00  0.00    +0.000 C 
ATOM     24  C   UNL     1      32.481 -14.428 -21.139  0.00  0.00    -0.003 C 
ATOM     25  C   UNL     1      32.006 -11.686 -20.938  0.00  0.00    +0.030 C 
ATOM     26  C   UNL     1      31.975 -13.892 -19.955  0.00  0.00    -0.000 C 
ATOM     27  C   UNL     1      31.738 -12.522 -19.853  0.00  0.00    +0.003 C 
BRANCH  25  30
ATOM     28  N   UNL     1      31.476  -9.485 -21.958  0.00  0.00    -0.343 N 
ATOM     29  N   UNL     1      31.803  -9.667 -19.651  0.00  0.00    -0.285 NA
ATOM     30  C   UNL     1      31.758 -10.257 -20.833  0.00  0.00    +0.117 C 
ATOM     31  H   UNL     1      31.311  -8.519 -21.863  0.00  0.00    +0.144 HD
ATOM     32  H   UNL     1      31.441  -9.905 -22.847  0.00  0.00    +0.144 HD
ATOM     33  H   UNL     1      31.635  -8.700 -19.577  0.00  0.00    +0.188 HD
ENDBRANCH  25  30
ENDBRANCH  21  22
ENDBRANCH   3  21
TORSDOF 5
ENDMDL
