MODEL 1
REMARK VINA RESULT:     -11.6      0.000      0.000
REMARK  Name = 54726191
REMARK  4 active torsions:
REMARK  status: ('A' for Active; 'I' for Inactive)
REMARK    1  A    between atoms: C_15  and  O_31
REMARK    2  A    between atoms: C_16  and  C_20
REMARK    3  A    between atoms: N_19  and  C_22
REMARK    4  A    between atoms: C_22  and  C_25
REMARK                            x       y       z     vdW  Elec       q    Type
REMARK                         _______ _______ _______ _____ _____    ______ ____
ROOT
ATOM      1  O   UNL     1      37.433 -23.294 -15.081  0.00  0.00    -0.336 OA
ATOM      2  O   UNL     1      33.469 -24.113 -17.464  0.00  0.00    -0.268 OA
ATOM      3  O   UNL     1      33.653 -20.501 -21.046  0.00  0.00    -0.283 OA
ATOM      4  N   UNL     1      35.286 -23.557 -16.142  0.00  0.00    -0.253 N 
ATOM      5  N   UNL     1      36.200 -21.873 -18.207  0.00  0.00    -0.275 N 
ATOM      6  C   UNL     1      36.448 -22.687 -15.926  0.00  0.00    +0.215 C 
ATOM      7  C   UNL     1      34.769 -24.321 -14.993  0.00  0.00    +0.080 C 
ATOM      8  C   UNL     1      35.902 -24.841 -14.108  0.00  0.00    +0.052 C 
ATOM      9  C   UNL     1      37.151 -22.406 -17.243  0.00  0.00    +0.147 C 
ATOM     10  C   UNL     1      36.916 -23.747 -13.837  0.00  0.00    +0.146 C 
ATOM     11  C   UNL     1      34.477 -23.432 -17.280  0.00  0.00    +0.267 C 
ATOM     12  C   UNL     1      34.902 -22.384 -18.283  0.00  0.00    +0.143 C 
ATOM     13  C   UNL     1      33.770 -23.475 -14.192  0.00  0.00    +0.022 C 
ATOM     14  C   UNL     1      36.601 -20.918 -19.131  0.00  0.00    +0.074 C 
ATOM     15  C   UNL     1      34.008 -21.965 -19.206  0.00  0.00    +0.191 C 
ATOM     16  C   UNL     1      35.824 -20.414 -20.098  0.00  0.00    +0.110 C 
ATOM     17  C   UNL     1      34.430 -20.919 -20.193  0.00  0.00    +0.236 C 
ENDROOT
BRANCH  16  20
ATOM     18  O   UNL     1      37.606 -19.266 -21.112  0.00  0.00    -0.270 OA
ATOM     19  N   UNL     1      35.418 -18.675 -21.665  0.00  0.00    -0.297 N 
ATOM     20  C   UNL     1      36.387 -19.407 -20.997  0.00  0.00    +0.251 C 
ATOM     21  H   UNL     1      34.473 -18.882 -21.488  0.00  0.00    +0.150 HD
BRANCH  19  22
ATOM     22  C   UNL     1      35.725 -17.622 -22.607  0.00  0.00    +0.119 C 
BRANCH  22  25
ATOM     23  F   UNL     1      34.822 -15.917 -24.677  0.00  0.00    -0.204 F 
ATOM     24  F   UNL     1      32.682 -12.984 -21.643  0.00  0.00    -0.204 F 
ATOM     25  C   UNL     1      34.914 -16.385 -22.351  0.00  0.00    +0.025 C 
ATOM     26  C   UNL     1      34.500 -15.587 -23.419  0.00  0.00    +0.140 C 
ATOM     27  C   UNL     1      34.573 -16.034 -21.045  0.00  0.00    +0.002 C 
ATOM     28  C   UNL     1      33.746 -14.438 -23.179  0.00  0.00    +0.059 C 
ATOM     29  C   UNL     1      33.819 -14.885 -20.806  0.00  0.00    +0.030 C 
ATOM     30  C   UNL     1      33.406 -14.086 -21.873  0.00  0.00    +0.142 C 
ENDBRANCH  22  25
ENDBRANCH  19  22
ENDBRANCH  16  20
BRANCH  15  31
ATOM     31  O   UNL     1      32.713 -22.426 -19.294  0.00  0.00    -0.502 OA
ATOM     32  H   UNL     1      32.325 -22.575 -20.134  0.00  0.00    +0.292 HD
ENDBRANCH  15  31
TORSDOF 4
ENDMDL
MODEL 2
REMARK VINA RESULT:     -10.7      6.275     11.933
REMARK  Name = 54726191
REMARK  4 active torsions:
REMARK  status: ('A' for Active; 'I' for Inactive)
REMARK    1  A    between atoms: C_15  and  O_31
REMARK    2  A    between atoms: C_16  and  C_20
REMARK    3  A    between atoms: N_19  and  C_22
REMARK    4  A    between atoms: C_22  and  C_25
REMARK                            x       y       z     vdW  Elec       q    Type
REMARK                         _______ _______ _______ _____ _____    ______ ____
ROOT
ATOM      1  O   UNL     1      33.729  -7.026 -23.764  0.00  0.00    -0.336 OA
ATOM      2  O   UNL     1      31.787  -9.412 -20.213  0.00  0.00    -0.268 OA
ATOM      3  O   UNL     1      32.006 -14.195 -21.942  0.00  0.00    -0.283 OA
ATOM      4  N   UNL     1      32.511  -8.212 -22.057  0.00  0.00    -0.253 N 
ATOM      5  N   UNL     1      33.456 -10.618 -23.179  0.00  0.00    -0.275 N 
ATOM      6  C   UNL     1      33.033  -8.233 -23.428  0.00  0.00    +0.215 C 
ATOM      7  C   UNL     1      31.910  -6.961 -21.563  0.00  0.00    +0.080 C 
ATOM      8  C   UNL     1      32.677  -5.735 -22.058  0.00  0.00    +0.052 C 
ATOM      9  C   UNL     1      34.047  -9.353 -23.592  0.00  0.00    +0.147 C 
ATOM     10  C   UNL     1      32.967  -5.847 -23.542  0.00  0.00    +0.146 C 
ATOM     11  C   UNL     1      32.271  -9.396 -21.345  0.00  0.00    +0.267 C 
ATOM     12  C   UNL     1      32.623 -10.681 -22.058  0.00  0.00    +0.143 C 
ATOM     13  C   UNL     1      30.426  -6.891 -21.945  0.00  0.00    +0.022 C 
ATOM     14  C   UNL     1      33.794 -11.795 -23.832  0.00  0.00    +0.074 C 
ATOM     15  C   UNL     1      32.108 -11.844 -21.600  0.00  0.00    +0.191 C 
ATOM     16  C   UNL     1      33.359 -13.013 -23.489  0.00  0.00    +0.110 C 
ATOM     17  C   UNL     1      32.453 -13.115 -22.315  0.00  0.00    +0.236 C 
ENDROOT
BRANCH  16  20
ATOM     18  O   UNL     1      33.533 -14.250 -25.478  0.00  0.00    -0.270 OA
ATOM     19  N   UNL     1      34.514 -15.090 -23.536  0.00  0.00    -0.297 N 
ATOM     20  C   UNL     1      33.798 -14.163 -24.278  0.00  0.00    +0.251 C 
ATOM     21  H   UNL     1      34.661 -14.907 -22.580  0.00  0.00    +0.150 HD
BRANCH  19  22
ATOM     22  C   UNL     1      35.052 -16.310 -24.091  0.00  0.00    +0.119 C 
BRANCH  22  25
ATOM     23  F   UNL     1      34.364 -18.977 -24.741  0.00  0.00    -0.204 F 
ATOM     24  F   UNL     1      35.116 -20.492 -20.322  0.00  0.00    -0.204 F 
ATOM     25  C   UNL     1      35.069 -17.426 -23.087  0.00  0.00    +0.025 C 
ATOM     26  C   UNL     1      34.717 -18.720 -23.474  0.00  0.00    +0.140 C 
ATOM     27  C   UNL     1      35.437 -17.168 -21.767  0.00  0.00    +0.002 C 
ATOM     28  C   UNL     1      34.733 -19.755 -22.540  0.00  0.00    +0.059 C 
ATOM     29  C   UNL     1      35.452 -18.204 -20.832  0.00  0.00    +0.030 C 
ATOM     30  C   UNL     1      35.100 -19.498 -21.218  0.00  0.00    +0.142 C 
ENDBRANCH  22  25
ENDBRANCH  19  22
ENDBRANCH  16  20
BRANCH  15  31
ATOM     31  O   UNL     1      31.263 -11.942 -20.517  0.00  0.00    -0.502 OA
ATOM     32  H   UNL     1      30.337 -11.874 -20.637  0.00  0.00    +0.292 HD
ENDBRANCH  15  31
TORSDOF 4
ENDMDL
MODEL 3
REMARK VINA RESULT:     -10.7      3.486      5.619
REMARK  Name = 54726191
REMARK  4 active torsions:
REMARK  status: ('A' for Active; 'I' for Inactive)
REMARK    1  A    between atoms: C_15  and  O_31
REMARK    2  A    between atoms: C_16  and  C_20
REMARK    3  A    between atoms: N_19  and  C_22
REMARK    4  A    between atoms: C_22  and  C_25
REMARK                            x       y       z     vdW  Elec       q    Type
REMARK                         _______ _______ _______ _____ _____    ______ ____
ROOT
ATOM      1  O   UNL     1      38.373 -25.663 -14.229  0.00  0.00    -0.336 OA
ATOM      2  O   UNL     1      34.561 -25.210 -11.521  0.00  0.00    -0.268 OA
ATOM      3  O   UNL     1      31.386 -22.711 -14.618  0.00  0.00    -0.283 OA
ATOM      4  N   UNL     1      36.518 -25.215 -12.759  0.00  0.00    -0.253 N 
ATOM      5  N   UNL     1      35.020 -24.459 -15.023  0.00  0.00    -0.275 N 
ATOM      6  C   UNL     1      37.197 -24.872 -14.013  0.00  0.00    +0.215 C 
ATOM      7  C   UNL     1      37.348 -25.476 -11.569  0.00  0.00    +0.080 C 
ATOM      8  C   UNL     1      38.620 -26.243 -11.930  0.00  0.00    +0.052 C 
ATOM      9  C   UNL     1      36.290 -25.149 -15.200  0.00  0.00    +0.147 C 
ATOM     10  C   UNL     1      39.290 -25.630 -13.144  0.00  0.00    +0.146 C 
ATOM     11  C   UNL     1      35.147 -24.980 -12.579  0.00  0.00    +0.267 C 
ATOM     12  C   UNL     1      34.413 -24.400 -13.766  0.00  0.00    +0.143 C 
ATOM     13  C   UNL     1      37.666 -24.165 -10.839  0.00  0.00    +0.022 C 
ATOM     14  C   UNL     1      34.348 -23.939 -16.119  0.00  0.00    +0.074 C 
ATOM     15  C   UNL     1      33.204 -23.828 -13.568  0.00  0.00    +0.191 C 
ATOM     16  C   UNL     1      33.148 -23.347 -16.072  0.00  0.00    +0.110 C 
ATOM     17  C   UNL     1      32.483 -23.246 -14.747  0.00  0.00    +0.236 C 
ENDROOT
BRANCH  16  20
ATOM     18  O   UNL     1      31.345 -22.825 -17.484  0.00  0.00    -0.270 OA
ATOM     19  N   UNL     1      33.517 -22.406 -18.222  0.00  0.00    -0.297 N 
ATOM     20  C   UNL     1      32.565 -22.841 -17.314  0.00  0.00    +0.251 C 
ATOM     21  H   UNL     1      34.466 -22.471 -17.969  0.00  0.00    +0.150 HD
BRANCH  19  22
ATOM     22  C   UNL     1      33.189 -21.865 -19.522  0.00  0.00    +0.119 C 
BRANCH  22  25
ATOM     23  F   UNL     1      35.931 -22.393 -19.068  0.00  0.00    -0.204 F 
ATOM     24  F   UNL     1      37.310 -18.615 -21.560  0.00  0.00    -0.204 F 
ATOM     25  C   UNL     1      34.289 -20.999 -20.064  0.00  0.00    +0.025 C 
ATOM     26  C   UNL     1      35.622 -21.317 -19.803  0.00  0.00    +0.140 C 
ATOM     27  C   UNL     1      33.976 -19.877 -20.831  0.00  0.00    +0.002 C 
ATOM     28  C   UNL     1      36.642 -20.511 -20.308  0.00  0.00    +0.059 C 
ATOM     29  C   UNL     1      34.997 -19.071 -21.337  0.00  0.00    +0.030 C 
ATOM     30  C   UNL     1      36.330 -19.388 -21.075  0.00  0.00    +0.142 C 
ENDBRANCH  22  25
ENDBRANCH  19  22
ENDBRANCH  16  20
BRANCH  15  31
ATOM     31  O   UNL     1      32.587 -23.727 -12.342  0.00  0.00    -0.502 OA
ATOM     32  H   UNL     1      32.795 -23.015 -11.770  0.00  0.00    +0.292 HD
ENDBRANCH  15  31
TORSDOF 4
ENDMDL
MODEL 4
REMARK VINA RESULT:     -10.6      4.243      9.411
REMARK  Name = 54726191
REMARK  4 active torsions:
REMARK  status: ('A' for Active; 'I' for Inactive)
REMARK    1  A    between atoms: C_15  and  O_31
REMARK    2  A    between atoms: C_16  and  C_20
REMARK    3  A    between atoms: N_19  and  C_22
REMARK    4  A    between atoms: C_22  and  C_25
REMARK                            x       y       z     vdW  Elec       q    Type
REMARK                         _______ _______ _______ _____ _____    ______ ____
ROOT
ATOM      1  O   UNL     1      31.905 -12.978 -19.123  0.00  0.00    -0.336 OA
ATOM      2  O   UNL     1      32.069 -13.539 -23.784  0.00  0.00    -0.268 OA
ATOM      3  O   UNL     1      35.561 -17.212 -24.259  0.00  0.00    -0.283 OA
ATOM      4  N   UNL     1      32.167 -13.088 -21.516  0.00  0.00    -0.253 N 
ATOM      5  N   UNL     1      33.602 -15.486 -21.159  0.00  0.00    -0.275 N 
ATOM      6  C   UNL     1      32.734 -13.421 -20.204  0.00  0.00    +0.215 C 
ATOM      7  C   UNL     1      31.540 -11.765 -21.683  0.00  0.00    +0.080 C 
ATOM      8  C   UNL     1      30.758 -11.352 -20.436  0.00  0.00    +0.052 C 
ATOM      9  C   UNL     1      32.850 -14.928 -20.045  0.00  0.00    +0.147 C 
ATOM     10  C   UNL     1      31.577 -11.597 -19.184  0.00  0.00    +0.146 C 
ATOM     11  C   UNL     1      32.489 -13.825 -22.664  0.00  0.00    +0.267 C 
ATOM     12  C   UNL     1      33.414 -15.002 -22.457  0.00  0.00    +0.143 C 
ATOM     13  C   UNL     1      32.592 -10.716 -22.064  0.00  0.00    +0.022 C 
ATOM     14  C   UNL     1      34.441 -16.574 -20.963  0.00  0.00    +0.074 C 
ATOM     15  C   UNL     1      34.041 -15.535 -23.530  0.00  0.00    +0.191 C 
ATOM     16  C   UNL     1      35.123 -17.200 -21.930  0.00  0.00    +0.110 C 
ATOM     17  C   UNL     1      34.964 -16.697 -23.319  0.00  0.00    +0.236 C 
ENDROOT
BRANCH  16  20
ATOM     18  O   UNL     1      37.168 -18.353 -21.870  0.00  0.00    -0.270 OA
ATOM     19  N   UNL     1      35.294 -19.324 -20.878  0.00  0.00    -0.297 N 
ATOM     20  C   UNL     1      35.974 -18.333 -21.568  0.00  0.00    +0.251 C 
ATOM     21  H   UNL     1      34.336 -19.191 -20.695  0.00  0.00    +0.150 HD
BRANCH  19  22
ATOM     22  C   UNL     1      35.918 -20.542 -20.413  0.00  0.00    +0.119 C 
BRANCH  22  25
ATOM     23  F   UNL     1      36.871 -22.309 -18.419  0.00  0.00    -0.204 F 
ATOM     24  F   UNL     1      32.498 -23.517 -17.072  0.00  0.00    -0.204 F 
ATOM     25  C   UNL     1      35.007 -21.336 -19.522  0.00  0.00    +0.025 C 
ATOM     26  C   UNL     1      35.544 -22.190 -18.558  0.00  0.00    +0.140 C 
ATOM     27  C   UNL     1      33.624 -21.218 -19.658  0.00  0.00    +0.002 C 
ATOM     28  C   UNL     1      34.695 -22.927 -17.730  0.00  0.00    +0.059 C 
ATOM     29  C   UNL     1      32.777 -21.955 -18.831  0.00  0.00    +0.030 C 
ATOM     30  C   UNL     1      33.312 -22.810 -17.867  0.00  0.00    +0.142 C 
ENDBRANCH  22  25
ENDBRANCH  19  22
ENDBRANCH  16  20
BRANCH  15  31
ATOM     31  O   UNL     1      33.902 -15.069 -24.818  0.00  0.00    -0.502 OA
ATOM     32  H   UNL     1      33.384 -14.307 -24.987  0.00  0.00    +0.292 HD
ENDBRANCH  15  31
TORSDOF 4
ENDMDL
MODEL 5
REMARK VINA RESULT:     -10.3      5.213      8.868
REMARK  Name = 54726191
REMARK  4 active torsions:
REMARK  status: ('A' for Active; 'I' for Inactive)
REMARK    1  A    between atoms: C_15  and  O_31
REMARK    2  A    between atoms: C_16  and  C_20
REMARK    3  A    between atoms: N_19  and  C_22
REMARK    4  A    between atoms: C_22  and  C_25
REMARK                            x       y       z     vdW  Elec       q    Type
REMARK                         _______ _______ _______ _____ _____    ______ ____
ROOT
ATOM      1  O   UNL     1      35.141 -18.581 -20.568  0.00  0.00    -0.336 OA
ATOM      2  O   UNL     1      35.263 -16.138 -24.578  0.00  0.00    -0.268 OA
ATOM      3  O   UNL     1      32.464 -12.057 -23.386  0.00  0.00    -0.283 OA
ATOM      4  N   UNL     1      34.998 -17.456 -22.694  0.00  0.00    -0.253 N 
ATOM      5  N   UNL     1      33.975 -15.210 -21.336  0.00  0.00    -0.275 N 
ATOM      6  C   UNL     1      34.443 -17.600 -21.344  0.00  0.00    +0.215 C 
ATOM      7  C   UNL     1      35.400 -18.680 -23.411  0.00  0.00    +0.080 C 
ATOM      8  C   UNL     1      36.049 -19.695 -22.470  0.00  0.00    +0.052 C 
ATOM      9  C   UNL     1      34.576 -16.296 -20.575  0.00  0.00    +0.147 C 
ATOM     10  C   UNL     1      35.232 -19.850 -21.202  0.00  0.00    +0.146 C 
ATOM     11  C   UNL     1      34.852 -16.270 -23.426  0.00  0.00    +0.267 C 
ATOM     12  C   UNL     1      34.131 -15.142 -22.723  0.00  0.00    +0.143 C 
ATOM     13  C   UNL     1      34.202 -19.284 -24.154  0.00  0.00    +0.022 C 
ATOM     14  C   UNL     1      33.324 -14.173 -20.682  0.00  0.00    +0.074 C 
ATOM     15  C   UNL     1      33.648 -14.118 -23.461  0.00  0.00    +0.191 C 
ATOM     16  C   UNL     1      32.798 -13.099 -21.283  0.00  0.00    +0.110 C 
ATOM     17  C   UNL     1      32.927 -13.006 -22.760  0.00  0.00    +0.236 C 
ENDROOT
BRANCH  16  20
ATOM     18  O   UNL     1      31.507 -12.403 -19.448  0.00  0.00    -0.270 OA
ATOM     19  N   UNL     1      32.304 -10.800 -20.943  0.00  0.00    -0.297 N 
ATOM     20  C   UNL     1      32.136 -12.088 -20.460  0.00  0.00    +0.251 C 
ATOM     21  H   UNL     1      32.831 -10.676 -21.765  0.00  0.00    +0.150 HD
BRANCH  19  22
ATOM     22  C   UNL     1      31.744  -9.630 -20.305  0.00  0.00    +0.119 C 
BRANCH  22  25
ATOM     23  F   UNL     1      32.796  -7.144 -19.458  0.00  0.00    -0.204 F 
ATOM     24  F   UNL     1      31.958  -5.102 -23.643  0.00  0.00    -0.204 F 
ATOM     25  C   UNL     1      31.802  -8.422 -21.194  0.00  0.00    +0.025 C 
ATOM     26  C   UNL     1      32.334  -7.225 -20.713  0.00  0.00    +0.140 C 
ATOM     27  C   UNL     1      31.323  -8.498 -22.502  0.00  0.00    +0.002 C 
ATOM     28  C   UNL     1      32.386  -6.104 -21.541  0.00  0.00    +0.059 C 
ATOM     29  C   UNL     1      31.376  -7.376 -23.329  0.00  0.00    +0.030 C 
ATOM     30  C   UNL     1      31.907  -6.178 -22.849  0.00  0.00    +0.142 C 
ENDBRANCH  22  25
ENDBRANCH  19  22
ENDBRANCH  16  20
BRANCH  15  31
ATOM     31  O   UNL     1      33.759 -14.031 -24.830  0.00  0.00    -0.502 OA
ATOM     32  H   UNL     1      33.294 -13.365 -25.297  0.00  0.00    +0.292 HD
ENDBRANCH  15  31
TORSDOF 4
ENDMDL
MODEL 6
REMARK VINA RESULT:     -10.1      4.019      9.703
REMARK  Name = 54726191
REMARK  4 active torsions:
REMARK  status: ('A' for Active; 'I' for Inactive)
REMARK    1  A    between atoms: C_15  and  O_31
REMARK    2  A    between atoms: C_16  and  C_20
REMARK    3  A    between atoms: N_19  and  C_22
REMARK    4  A    between atoms: C_22  and  C_25
REMARK                            x       y       z     vdW  Elec       q    Type
REMARK                         _______ _______ _______ _____ _____    ______ ____
ROOT
ATOM      1  O   UNL     1      34.206 -12.797 -23.269  0.00  0.00    -0.336 OA
ATOM      2  O   UNL     1      32.915 -16.548 -25.786  0.00  0.00    -0.268 OA
ATOM      3  O   UNL     1      35.457 -20.285 -23.444  0.00  0.00    -0.283 OA
ATOM      4  N   UNL     1      33.741 -14.672 -24.708  0.00  0.00    -0.253 N 
ATOM      5  N   UNL     1      34.797 -16.354 -22.711  0.00  0.00    -0.275 N 
ATOM      6  C   UNL     1      34.600 -14.119 -23.656  0.00  0.00    +0.215 C 
ATOM      7  C   UNL     1      33.321 -13.777 -25.802  0.00  0.00    +0.080 C 
ATOM      8  C   UNL     1      33.015 -12.369 -25.289  0.00  0.00    +0.052 C 
ATOM      9  C   UNL     1      34.505 -14.963 -22.396  0.00  0.00    +0.147 C 
ATOM     10  C   UNL     1      34.109 -11.888 -24.357  0.00  0.00    +0.146 C 
ATOM     11  C   UNL     1      33.589 -16.055 -24.881  0.00  0.00    +0.267 C 
ATOM     12  C   UNL     1      34.325 -16.931 -23.893  0.00  0.00    +0.143 C 
ATOM     13  C   UNL     1      34.377 -13.756 -26.914  0.00  0.00    +0.022 C 
ATOM     14  C   UNL     1      35.464 -17.154 -21.793  0.00  0.00    +0.074 C 
ATOM     15  C   UNL     1      34.516 -18.234 -24.193  0.00  0.00    +0.191 C 
ATOM     16  C   UNL     1      35.722 -18.457 -21.958  0.00  0.00    +0.110 C 
ATOM     17  C   UNL     1      35.253 -19.097 -23.214  0.00  0.00    +0.236 C 
ENDROOT
BRANCH  16  20
ATOM     18  O   UNL     1      37.461 -18.699 -20.398  0.00  0.00    -0.270 OA
ATOM     19  N   UNL     1      35.850 -20.377 -20.564  0.00  0.00    -0.297 N 
ATOM     20  C   UNL     1      36.440 -19.169 -20.902  0.00  0.00    +0.251 C 
ATOM     21  H   UNL     1      35.032 -20.645 -21.041  0.00  0.00    +0.150 HD
BRANCH  19  22
ATOM     22  C   UNL     1      36.374 -21.263 -19.549  0.00  0.00    +0.119 C 
BRANCH  22  25
ATOM     23  F   UNL     1      36.851 -22.654 -17.132  0.00  0.00    -0.204 F 
ATOM     24  F   UNL     1      32.272 -23.698 -16.559  0.00  0.00    -0.204 F 
ATOM     25  C   UNL     1      35.282 -21.913 -18.751  0.00  0.00    +0.025 C 
ATOM     26  C   UNL     1      35.586 -22.584 -17.566  0.00  0.00    +0.140 C 
ATOM     27  C   UNL     1      33.961 -21.844 -19.195  0.00  0.00    +0.002 C 
ATOM     28  C   UNL     1      34.569 -23.187 -16.826  0.00  0.00    +0.059 C 
ATOM     29  C   UNL     1      32.944 -22.447 -18.454  0.00  0.00    +0.030 C 
ATOM     30  C   UNL     1      33.248 -23.119 -17.270  0.00  0.00    +0.142 C 
ENDBRANCH  22  25
ENDBRANCH  19  22
ENDBRANCH  16  20
BRANCH  15  31
ATOM     31  O   UNL     1      34.088 -18.830 -25.359  0.00  0.00    -0.502 OA
ATOM     32  H   UNL     1      33.240 -18.631 -25.703  0.00  0.00    +0.292 HD
ENDBRANCH  15  31
TORSDOF 4
ENDMDL
MODEL 7
REMARK VINA RESULT:      -9.4      3.292      5.883
REMARK  Name = 54726191
REMARK  4 active torsions:
REMARK  status: ('A' for Active; 'I' for Inactive)
REMARK    1  A    between atoms: C_15  and  O_31
REMARK    2  A    between atoms: C_16  and  C_20
REMARK    3  A    between atoms: N_19  and  C_22
REMARK    4  A    between atoms: C_22  and  C_25
REMARK                            x       y       z     vdW  Elec       q    Type
REMARK                         _______ _______ _______ _____ _____    ______ ____
ROOT
ATOM      1  O   UNL     1      29.338 -23.317 -16.737  0.00  0.00    -0.336 OA
ATOM      2  O   UNL     1      31.666 -24.726 -12.908  0.00  0.00    -0.268 OA
ATOM      3  O   UNL     1      36.506 -24.250 -14.411  0.00  0.00    -0.283 OA
ATOM      4  N   UNL     1      30.519 -24.272 -14.867  0.00  0.00    -0.253 N 
ATOM      5  N   UNL     1      32.900 -23.227 -15.952  0.00  0.00    -0.275 N 
ATOM      6  C   UNL     1      30.575 -23.874 -16.278  0.00  0.00    +0.215 C 
ATOM      7  C   UNL     1      29.295 -24.933 -14.382  0.00  0.00    +0.080 C 
ATOM      8  C   UNL     1      28.041 -24.321 -15.007  0.00  0.00    +0.052 C 
ATOM      9  C   UNL     1      31.617 -22.787 -16.481  0.00  0.00    +0.147 C 
ATOM     10  C   UNL     1      28.214 -24.155 -16.504  0.00  0.00    +0.146 C 
ATOM     11  C   UNL     1      31.676 -24.346 -14.079  0.00  0.00    +0.267 C 
ATOM     12  C   UNL     1      32.967 -23.950 -14.757  0.00  0.00    +0.143 C 
ATOM     13  C   UNL     1      29.367 -26.446 -14.628  0.00  0.00    +0.022 C 
ATOM     14  C   UNL     1      34.081 -22.849 -16.575  0.00  0.00    +0.074 C 
ATOM     15  C   UNL     1      34.139 -24.321 -14.196  0.00  0.00    +0.191 C 
ATOM     16  C   UNL     1      35.309 -23.145 -16.133  0.00  0.00    +0.110 C 
ATOM     17  C   UNL     1      35.417 -23.932 -14.877  0.00  0.00    +0.236 C 
ENDROOT
BRANCH  16  20
ATOM     18  O   UNL     1      37.607 -22.777 -16.454  0.00  0.00    -0.270 OA
ATOM     19  N   UNL     1      36.115 -22.148 -18.133  0.00  0.00    -0.297 N 
ATOM     20  C   UNL     1      36.463 -22.680 -16.902  0.00  0.00    +0.251 C 
ATOM     21  H   UNL     1      35.163 -22.126 -18.379  0.00  0.00    +0.150 HD
BRANCH  19  22
ATOM     22  C   UNL     1      37.079 -21.621 -19.074  0.00  0.00    +0.119 C 
BRANCH  22  25
ATOM     23  F   UNL     1      34.344 -21.696 -19.797  0.00  0.00    -0.204 F 
ATOM     24  F   UNL     1      34.754 -17.939 -22.644  0.00  0.00    -0.204 F 
ATOM     25  C   UNL     1      36.458 -20.640 -20.025  0.00  0.00    +0.025 C 
ATOM     26  C   UNL     1      35.101 -20.734 -20.340  0.00  0.00    +0.140 C 
ATOM     27  C   UNL     1      37.238 -19.634 -20.595  0.00  0.00    +0.002 C 
ATOM     28  C   UNL     1      34.526 -19.821 -21.224  0.00  0.00    +0.059 C 
ATOM     29  C   UNL     1      36.662 -18.722 -21.480  0.00  0.00    +0.030 C 
ATOM     30  C   UNL     1      35.307 -18.815 -21.795  0.00  0.00    +0.142 C 
ENDBRANCH  22  25
ENDBRANCH  19  22
ENDBRANCH  16  20
BRANCH  15  31
ATOM     31  O   UNL     1      34.244 -25.055 -13.036  0.00  0.00    -0.502 OA
ATOM     32  H   UNL     1      34.569 -24.653 -12.255  0.00  0.00    +0.292 HD
ENDBRANCH  15  31
TORSDOF 4
ENDMDL
MODEL 8
REMARK VINA RESULT:      -9.3      5.817     11.482
REMARK  Name = 54726191
REMARK  4 active torsions:
REMARK  status: ('A' for Active; 'I' for Inactive)
REMARK    1  A    between atoms: C_15  and  O_31
REMARK    2  A    between atoms: C_16  and  C_20
REMARK    3  A    between atoms: N_19  and  C_22
REMARK    4  A    between atoms: C_22  and  C_25
REMARK                            x       y       z     vdW  Elec       q    Type
REMARK                         _______ _______ _______ _____ _____    ______ ____
ROOT
ATOM      1  O   UNL     1      31.586  -8.276 -19.450  0.00  0.00    -0.336 OA
ATOM      2  O   UNL     1      32.391  -9.397 -23.941  0.00  0.00    -0.268 OA
ATOM      3  O   UNL     1      33.851 -14.258 -23.544  0.00  0.00    -0.283 OA
ATOM      4  N   UNL     1      32.234  -8.771 -21.717  0.00  0.00    -0.253 N 
ATOM      5  N   UNL     1      32.322 -11.495 -21.003  0.00  0.00    -0.275 N 
ATOM      6  C   UNL     1      32.318  -9.162 -20.306  0.00  0.00    +0.215 C 
ATOM      7  C   UNL     1      32.323  -7.337 -22.045  0.00  0.00    +0.080 C 
ATOM      8  C   UNL     1      31.586  -6.479 -21.017  0.00  0.00    +0.052 C 
ATOM      9  C   UNL     1      31.703 -10.536 -20.099  0.00  0.00    +0.147 C 
ATOM     10  C   UNL     1      31.940  -6.909 -19.607  0.00  0.00    +0.146 C 
ATOM     11  C   UNL     1      32.405  -9.705 -22.749  0.00  0.00    +0.267 C 
ATOM     12  C   UNL     1      32.634 -11.135 -22.317  0.00  0.00    +0.143 C 
ATOM     13  C   UNL     1      33.788  -6.909 -22.192  0.00  0.00    +0.022 C 
ATOM     14  C   UNL     1      32.519 -12.809 -20.602  0.00  0.00    +0.074 C 
ATOM     15  C   UNL     1      33.148 -12.011 -23.209  0.00  0.00    +0.191 C 
ATOM     16  C   UNL     1      33.017 -13.780 -21.377  0.00  0.00    +0.110 C 
ATOM     17  C   UNL     1      33.381 -13.426 -22.774  0.00  0.00    +0.236 C 
ENDROOT
BRANCH  16  20
ATOM     18  O   UNL     1      32.237 -15.677 -20.232  0.00  0.00    -0.270 OA
ATOM     19  N   UNL     1      34.438 -15.648 -21.006  0.00  0.00    -0.297 N 
ATOM     20  C   UNL     1      33.171 -15.120 -20.812  0.00  0.00    +0.251 C 
ATOM     21  H   UNL     1      35.101 -15.103 -21.486  0.00  0.00    +0.150 HD
BRANCH  19  22
ATOM     22  C   UNL     1      34.835 -16.957 -20.538  0.00  0.00    +0.119 C 
BRANCH  22  25
ATOM     23  F   UNL     1      34.786 -19.749 -20.082  0.00  0.00    -0.204 F 
ATOM     24  F   UNL     1      34.946 -20.739 -24.706  0.00  0.00    -0.204 F 
ATOM     25  C   UNL     1      34.865 -17.966 -21.648  0.00  0.00    +0.025 C 
ATOM     26  C   UNL     1      34.838 -19.330 -21.354  0.00  0.00    +0.140 C 
ATOM     27  C   UNL     1      34.918 -17.539 -22.975  0.00  0.00    +0.002 C 
ATOM     28  C   UNL     1      34.866 -20.267 -22.387  0.00  0.00    +0.059 C 
ATOM     29  C   UNL     1      34.945 -18.477 -24.008  0.00  0.00    +0.030 C 
ATOM     30  C   UNL     1      34.920 -19.840 -23.715  0.00  0.00    +0.142 C 
ENDBRANCH  22  25
ENDBRANCH  19  22
ENDBRANCH  16  20
BRANCH  15  31
ATOM     31  O   UNL     1      33.492 -11.687 -24.502  0.00  0.00    -0.502 OA
ATOM     32  H   UNL     1      34.130 -11.020 -24.664  0.00  0.00    +0.292 HD
ENDBRANCH  15  31
TORSDOF 4
ENDMDL
MODEL 9
REMARK VINA RESULT:      -9.3      8.233     12.233
REMARK  Name = 54726191
REMARK  4 active torsions:
REMARK  status: ('A' for Active; 'I' for Inactive)
REMARK    1  A    between atoms: C_15  and  O_31
REMARK    2  A    between atoms: C_16  and  C_20
REMARK    3  A    between atoms: N_19  and  C_22
REMARK    4  A    between atoms: C_22  and  C_25
REMARK                            x       y       z     vdW  Elec       q    Type
REMARK                         _______ _______ _______ _____ _____    ______ ____
ROOT
ATOM      1  O   UNL     1      33.900 -13.336 -24.150  0.00  0.00    -0.336 OA
ATOM      2  O   UNL     1      31.674 -13.379 -20.013  0.00  0.00    -0.268 OA
ATOM      3  O   UNL     1      31.452  -8.414 -18.910  0.00  0.00    -0.283 OA
ATOM      4  N   UNL     1      32.985 -13.378 -21.921  0.00  0.00    -0.253 N 
ATOM      5  N   UNL     1      32.572 -10.599 -22.135  0.00  0.00    -0.275 N 
ATOM      6  C   UNL     1      33.704 -12.600 -22.936  0.00  0.00    +0.215 C 
ATOM      7  C   UNL     1      33.333 -14.801 -21.764  0.00  0.00    +0.080 C 
ATOM      8  C   UNL     1      33.611 -15.464 -23.113  0.00  0.00    +0.052 C 
ATOM      9  C   UNL     1      32.904 -11.368 -23.325  0.00  0.00    +0.147 C 
ATOM     10  C   UNL     1      34.526 -14.597 -23.957  0.00  0.00    +0.146 C 
ATOM     11  C   UNL     1      32.245 -12.754 -20.907  0.00  0.00    +0.267 C 
ATOM     12  C   UNL     1      32.200 -11.244 -20.952  0.00  0.00    +0.143 C 
ATOM     13  C   UNL     1      34.515 -14.962 -20.801  0.00  0.00    +0.022 C 
ATOM     14  C   UNL     1      32.522  -9.213 -22.188  0.00  0.00    +0.074 C 
ATOM     15  C   UNL     1      31.820 -10.570 -19.844  0.00  0.00    +0.191 C 
ATOM     16  C   UNL     1      32.164  -8.420 -21.171  0.00  0.00    +0.110 C 
ATOM     17  C   UNL     1      31.784  -9.072 -19.891  0.00  0.00    +0.236 C 
ENDROOT
BRANCH  16  20
ATOM     18  O   UNL     1      32.591  -6.206 -20.511  0.00  0.00    -0.270 OA
ATOM     19  N   UNL     1      31.648  -6.598 -22.608  0.00  0.00    -0.297 N 
ATOM     20  C   UNL     1      32.164  -6.972 -21.377  0.00  0.00    +0.251 C 
ATOM     21  H   UNL     1      31.337  -7.307 -23.217  0.00  0.00    +0.150 HD
BRANCH  19  22
ATOM     22  C   UNL     1      31.542  -5.224 -23.043  0.00  0.00    +0.119 C 
BRANCH  22  25
ATOM     23  F   UNL     1      31.240  -2.961 -24.713  0.00  0.00    -0.204 F 
ATOM     24  F   UNL     1      35.013  -4.100 -27.331  0.00  0.00    -0.204 F 
ATOM     25  C   UNL     1      32.466  -4.923 -24.187  0.00  0.00    +0.025 C 
ATOM     26  C   UNL     1      32.261  -3.788 -24.972  0.00  0.00    +0.140 C 
ATOM     27  C   UNL     1      33.533  -5.780 -24.463  0.00  0.00    +0.002 C 
ATOM     28  C   UNL     1      33.121  -3.511 -26.034  0.00  0.00    +0.059 C 
ATOM     29  C   UNL     1      34.393  -5.501 -25.526  0.00  0.00    +0.030 C 
ATOM     30  C   UNL     1      34.187  -4.367 -26.312  0.00  0.00    +0.142 C 
ENDBRANCH  22  25
ENDBRANCH  19  22
ENDBRANCH  16  20
BRANCH  15  31
ATOM     31  O   UNL     1      31.473 -11.169 -18.654  0.00  0.00    -0.502 OA
ATOM     32  H   UNL     1      31.221 -10.644 -17.920  0.00  0.00    +0.292 HD
ENDBRANCH  15  31
TORSDOF 4
ENDMDL
