MODEL 1
REMARK VINA RESULT:     -11.1      0.000      0.000
REMARK  Name = 447653
REMARK  8 active torsions:
REMARK  status: ('A' for Active; 'I' for Inactive)
REMARK    1  A    between atoms: N_2  and  C_20
REMARK    2  A    between atoms: C_4  and  C_11
REMARK    3  A    between atoms: C_19  and  O_25
REMARK    4  A    between atoms: O_25  and  C_26
REMARK    5  A    between atoms: C_26  and  C_27
REMARK    6  A    between atoms: C_27  and  O_28
REMARK    7  A    between atoms: C_27  and  C_30
REMARK    8  A    between atoms: C_30  and  N_31
REMARK                            x       y       z     vdW  Elec       q    Type
REMARK                         _______ _______ _______ _____ _____    ______ ____
ROOT
ATOM      1  N   UNL     1      34.492 -23.140 -16.741  0.00  0.00    -0.340 NA
ATOM      2  N   UNL     1      32.772 -22.359 -18.132  0.00  0.00    -0.247 N 
ATOM      3  N   UNL     1      32.183 -23.618 -16.241  0.00  0.00    -0.170 NA
ATOM      4  C   UNL     1      34.829 -23.830 -15.634  0.00  0.00    +0.148 C 
ATOM      5  C   UNL     1      33.923 -24.434 -14.793  0.00  0.00    +0.052 C 
ATOM      6  C   UNL     1      33.168 -23.074 -16.982  0.00  0.00    +0.148 C 
ATOM      7  C   UNL     1      32.598 -24.294 -15.151  0.00  0.00    +0.114 C 
ATOM      8  H   UNL     1      31.797 -22.337 -18.268  0.00  0.00    +0.165 HD
ENDROOT
BRANCH   4  11
ATOM      9  N   UNL     1      36.894 -24.979 -14.835  0.00  0.00    -0.251 N 
ATOM     10  N   UNL     1      38.464 -23.434 -15.216  0.00  0.00    -0.393 NA
ATOM     11  C   UNL     1      36.250 -23.898 -15.379  0.00  0.00    +0.181 C 
ATOM     12  C   UNL     1      38.244 -24.647 -14.754  0.00  0.00    +0.187 C 
ATOM     13  C   UNL     1      37.235 -22.965 -15.604  0.00  0.00    +0.114 C 
ATOM     14  C   UNL     1      36.375 -26.202 -14.418  0.00  0.00    +0.068 C 
ATOM     15  C   UNL     1      39.121 -25.632 -14.211  0.00  0.00    +0.048 C 
ATOM     16  C   UNL     1      37.108 -21.614 -16.176  0.00  0.00    +0.064 C 
ATOM     17  C   UNL     1      37.207 -27.124 -13.908  0.00  0.00    +0.016 C 
ATOM     18  C   UNL     1      38.625 -26.817 -13.807  0.00  0.00    +0.005 C 
ENDBRANCH   4  11
BRANCH   2  20
ATOM     19  C   UNL     1      34.933 -20.303 -21.089  0.00  0.00    +0.139 C 
ATOM     20  C   UNL     1      33.497 -21.671 -19.123  0.00  0.00    +0.058 C 
ATOM     21  C   UNL     1      35.594 -21.169 -20.217  0.00  0.00    +0.038 C 
ATOM     22  C   UNL     1      33.555 -20.120 -20.979  0.00  0.00    +0.038 C 
ATOM     23  C   UNL     1      34.876 -21.852 -19.236  0.00  0.00    +0.018 C 
ATOM     24  C   UNL     1      32.837 -20.803 -19.997  0.00  0.00    +0.018 C 
BRANCH  19  25
ATOM     25  O   UNL     1      35.634 -19.637 -22.047  0.00  0.00    -0.473 OA
BRANCH  25  26
ATOM     26  C   UNL     1      34.887 -19.073 -23.124  0.00  0.00    +0.232 C 
BRANCH  26  27
ATOM     27  C   UNL     1      35.007 -17.552 -23.064  0.00  0.00    +0.133 C 
BRANCH  27  28
ATOM     28  O   UNL     1      36.297 -17.214 -22.546  0.00  0.00    -0.383 OA
ATOM     29  H   UNL     1      36.458 -17.709 -21.728  0.00  0.00    +0.210 HD
ENDBRANCH  27  28
BRANCH  27  30
ATOM     30  C   UNL     1      34.849 -16.878 -24.428  0.00  0.00    -0.044 C 
BRANCH  30  31
ATOM     31  N   UNL     1      33.818 -15.849 -24.415  0.00  0.00    +0.386 N 
ATOM     32  C   UNL     1      34.269 -14.677 -23.661  0.00  0.00    -0.101 C 
ATOM     33  C   UNL     1      33.454 -15.464 -25.780  0.00  0.00    -0.101 C 
ATOM     34  H   UNL     1      32.994 -16.233 -23.954  0.00  0.00    -0.080 HD
ENDBRANCH  30  31
ENDBRANCH  27  30
ENDBRANCH  26  27
ENDBRANCH  25  26
ENDBRANCH  19  25
ENDBRANCH   2  20
TORSDOF 8
ENDMDL
MODEL 2
REMARK VINA RESULT:     -10.7      1.040      1.587
REMARK  Name = 447653
REMARK  8 active torsions:
REMARK  status: ('A' for Active; 'I' for Inactive)
REMARK    1  A    between atoms: N_2  and  C_20
REMARK    2  A    between atoms: C_4  and  C_11
REMARK    3  A    between atoms: C_19  and  O_25
REMARK    4  A    between atoms: O_25  and  C_26
REMARK    5  A    between atoms: C_26  and  C_27
REMARK    6  A    between atoms: C_27  and  O_28
REMARK    7  A    between atoms: C_27  and  C_30
REMARK    8  A    between atoms: C_30  and  N_31
REMARK                            x       y       z     vdW  Elec       q    Type
REMARK                         _______ _______ _______ _____ _____    ______ ____
ROOT
ATOM      1  N   UNL     1      34.433 -23.226 -16.483  0.00  0.00    -0.340 NA
ATOM      2  N   UNL     1      32.682 -22.513 -17.872  0.00  0.00    -0.247 N 
ATOM      3  N   UNL     1      32.142 -23.762 -15.960  0.00  0.00    -0.170 NA
ATOM      4  C   UNL     1      34.798 -23.892 -15.370  0.00  0.00    +0.148 C 
ATOM      5  C   UNL     1      33.915 -24.509 -14.514  0.00  0.00    +0.052 C 
ATOM      6  C   UNL     1      33.106 -23.201 -16.715  0.00  0.00    +0.148 C 
ATOM      7  C   UNL     1      32.584 -24.411 -14.864  0.00  0.00    +0.114 C 
ATOM      8  H   UNL     1      31.705 -22.519 -18.001  0.00  0.00    +0.165 HD
ENDROOT
BRANCH   4  11
ATOM      9  N   UNL     1      36.870 -24.876 -14.390  0.00  0.00    -0.251 N 
ATOM     10  N   UNL     1      38.439 -23.442 -15.083  0.00  0.00    -0.393 NA
ATOM     11  C   UNL     1      36.222 -23.917 -15.125  0.00  0.00    +0.181 C 
ATOM     12  C   UNL     1      38.221 -24.542 -14.393  0.00  0.00    +0.187 C 
ATOM     13  C   UNL     1      37.205 -23.050 -15.539  0.00  0.00    +0.114 C 
ATOM     14  C   UNL     1      36.353 -25.992 -13.738  0.00  0.00    +0.068 C 
ATOM     15  C   UNL     1      39.103 -25.407 -13.681  0.00  0.00    +0.048 C 
ATOM     16  C   UNL     1      37.075 -21.836 -16.360  0.00  0.00    +0.064 C 
ATOM     17  C   UNL     1      37.190 -26.802 -13.069  0.00  0.00    +0.016 C 
ATOM     18  C   UNL     1      38.610 -26.489 -13.048  0.00  0.00    +0.005 C 
ENDBRANCH   4  11
BRANCH   2  20
ATOM     19  C   UNL     1      34.766 -20.443 -20.874  0.00  0.00    +0.139 C 
ATOM     20  C   UNL     1      33.380 -21.818 -18.878  0.00  0.00    +0.058 C 
ATOM     21  C   UNL     1      33.410 -20.192 -20.666  0.00  0.00    +0.038 C 
ATOM     22  C   UNL     1      35.430 -21.382 -20.085  0.00  0.00    +0.038 C 
ATOM     23  C   UNL     1      32.717 -20.879 -19.669  0.00  0.00    +0.018 C 
ATOM     24  C   UNL     1      34.738 -22.069 -19.088  0.00  0.00    +0.018 C 
BRANCH  19  25
ATOM     25  O   UNL     1      35.441 -19.771 -21.847  0.00  0.00    -0.473 OA
BRANCH  25  26
ATOM     26  C   UNL     1      36.068 -18.545 -21.474  0.00  0.00    +0.232 C 
BRANCH  26  27
ATOM     27  C   UNL     1      35.522 -17.425 -22.356  0.00  0.00    +0.133 C 
BRANCH  27  28
ATOM     28  O   UNL     1      34.942 -18.004 -23.528  0.00  0.00    -0.383 OA
ATOM     29  H   UNL     1      35.617 -18.513 -24.005  0.00  0.00    +0.210 HD
ENDBRANCH  27  28
BRANCH  27  30
ATOM     30  C   UNL     1      34.452 -16.577 -21.664  0.00  0.00    -0.044 C 
BRANCH  30  31
ATOM     31  N   UNL     1      34.698 -15.149 -21.821  0.00  0.00    +0.386 N 
ATOM     32  C   UNL     1      34.356 -14.712 -23.176  0.00  0.00    -0.101 C 
ATOM     33  C   UNL     1      33.936 -14.382 -20.834  0.00  0.00    -0.101 C 
ATOM     34  H   UNL     1      35.692 -14.981 -21.667  0.00  0.00    -0.080 HD
ENDBRANCH  30  31
ENDBRANCH  27  30
ENDBRANCH  26  27
ENDBRANCH  25  26
ENDBRANCH  19  25
ENDBRANCH   2  20
TORSDOF 8
ENDMDL
MODEL 3
REMARK VINA RESULT:     -10.3      2.890     11.604
REMARK  Name = 447653
REMARK  8 active torsions:
REMARK  status: ('A' for Active; 'I' for Inactive)
REMARK    1  A    between atoms: N_2  and  C_20
REMARK    2  A    between atoms: C_4  and  C_11
REMARK    3  A    between atoms: C_19  and  O_25
REMARK    4  A    between atoms: O_25  and  C_26
REMARK    5  A    between atoms: C_26  and  C_27
REMARK    6  A    between atoms: C_27  and  O_28
REMARK    7  A    between atoms: C_27  and  C_30
REMARK    8  A    between atoms: C_30  and  N_31
REMARK                            x       y       z     vdW  Elec       q    Type
REMARK                         _______ _______ _______ _____ _____    ______ ____
ROOT
ATOM      1  N   UNL     1      33.786 -15.336 -23.403  0.00  0.00    -0.340 NA
ATOM      2  N   UNL     1      34.772 -17.231 -24.372  0.00  0.00    -0.247 N 
ATOM      3  N   UNL     1      34.116 -15.477 -25.786  0.00  0.00    -0.170 NA
ATOM      4  C   UNL     1      33.242 -14.119 -23.593  0.00  0.00    +0.148 C 
ATOM      5  C   UNL     1      33.100 -13.519 -24.823  0.00  0.00    +0.052 C 
ATOM      6  C   UNL     1      34.196 -15.952 -24.529  0.00  0.00    +0.148 C 
ATOM      7  C   UNL     1      33.560 -14.253 -25.897  0.00  0.00    +0.114 C 
ATOM      8  H   UNL     1      35.058 -17.643 -25.220  0.00  0.00    +0.165 HD
ENDROOT
BRANCH   4  11
ATOM      9  N   UNL     1      32.580 -12.114 -22.265  0.00  0.00    -0.251 N 
ATOM     10  N   UNL     1      32.130 -13.008 -20.265  0.00  0.00    -0.393 NA
ATOM     11  C   UNL     1      32.803 -13.462 -22.383  0.00  0.00    +0.181 C 
ATOM     12  C   UNL     1      32.172 -11.886 -20.954  0.00  0.00    +0.187 C 
ATOM     13  C   UNL     1      32.520 -13.987 -21.145  0.00  0.00    +0.114 C 
ATOM     14  C   UNL     1      32.712 -11.107 -23.217  0.00  0.00    +0.068 C 
ATOM     15  C   UNL     1      31.880 -10.537 -20.592  0.00  0.00    +0.048 C 
ATOM     16  C   UNL     1      32.589 -15.389 -20.703  0.00  0.00    +0.064 C 
ATOM     17  C   UNL     1      32.436  -9.840 -22.869  0.00  0.00    +0.016 C 
ATOM     18  C   UNL     1      32.006  -9.558 -21.508  0.00  0.00    +0.005 C 
ENDBRANCH   4  11
BRANCH   2  20
ATOM     19  C   UNL     1      35.509 -19.625 -21.001  0.00  0.00    +0.139 C 
ATOM     20  C   UNL     1      35.019 -18.034 -23.243  0.00  0.00    +0.058 C 
ATOM     21  C   UNL     1      34.879 -20.170 -22.119  0.00  0.00    +0.038 C 
ATOM     22  C   UNL     1      35.893 -18.284 -21.002  0.00  0.00    +0.038 C 
ATOM     23  C   UNL     1      34.635 -19.376 -23.240  0.00  0.00    +0.018 C 
ATOM     24  C   UNL     1      35.649 -17.489 -22.122  0.00  0.00    +0.018 C 
BRANCH  19  25
ATOM     25  O   UNL     1      35.747 -20.401 -19.908  0.00  0.00    -0.473 OA
BRANCH  25  26
ATOM     26  C   UNL     1      35.298 -21.754 -19.963  0.00  0.00    +0.232 C 
BRANCH  26  27
ATOM     27  C   UNL     1      34.241 -21.968 -18.883  0.00  0.00    +0.133 C 
BRANCH  27  28
ATOM     28  O   UNL     1      33.043 -21.292 -19.274  0.00  0.00    -0.383 OA
ATOM     29  H   UNL     1      33.257 -20.390 -19.556  0.00  0.00    +0.210 HD
ENDBRANCH  27  28
BRANCH  27  30
ATOM     30  C   UNL     1      33.904 -23.442 -18.649  0.00  0.00    -0.044 C 
BRANCH  30  31
ATOM     31  N   UNL     1      33.924 -23.791 -17.235  0.00  0.00    +0.386 N 
ATOM     32  C   UNL     1      34.989 -23.066 -16.539  0.00  0.00    -0.101 C 
ATOM     33  C   UNL     1      32.628 -23.507 -16.614  0.00  0.00    -0.101 C 
ATOM     34  H   UNL     1      34.109 -24.791 -17.159  0.00  0.00    -0.080 HD
ENDBRANCH  30  31
ENDBRANCH  27  30
ENDBRANCH  26  27
ENDBRANCH  25  26
ENDBRANCH  19  25
ENDBRANCH   2  20
TORSDOF 8
ENDMDL
MODEL 4
REMARK VINA RESULT:      -9.4      1.818      4.062
REMARK  Name = 447653
REMARK  8 active torsions:
REMARK  status: ('A' for Active; 'I' for Inactive)
REMARK    1  A    between atoms: N_2  and  C_20
REMARK    2  A    between atoms: C_4  and  C_11
REMARK    3  A    between atoms: C_19  and  O_25
REMARK    4  A    between atoms: O_25  and  C_26
REMARK    5  A    between atoms: C_26  and  C_27
REMARK    6  A    between atoms: C_27  and  O_28
REMARK    7  A    between atoms: C_27  and  C_30
REMARK    8  A    between atoms: C_30  and  N_31
REMARK                            x       y       z     vdW  Elec       q    Type
REMARK                         _______ _______ _______ _____ _____    ______ ____
ROOT
ATOM      1  N   UNL     1      35.341 -22.420 -17.277  0.00  0.00    -0.340 NA
ATOM      2  N   UNL     1      37.187 -21.466 -18.366  0.00  0.00    -0.247 N 
ATOM      3  N   UNL     1      37.578 -22.752 -16.442  0.00  0.00    -0.170 NA
ATOM      4  C   UNL     1      34.894 -23.174 -16.255  0.00  0.00    +0.148 C 
ATOM      5  C   UNL     1      35.705 -23.744 -15.300  0.00  0.00    +0.052 C 
ATOM      6  C   UNL     1      36.677 -22.251 -17.310  0.00  0.00    +0.148 C 
ATOM      7  C   UNL     1      37.055 -23.496 -15.446  0.00  0.00    +0.114 C 
ATOM      8  H   UNL     1      38.167 -21.371 -18.351  0.00  0.00    +0.165 HD
ENDROOT
BRANCH   4  11
ATOM      9  N   UNL     1      32.777 -24.003 -15.227  0.00  0.00    -0.251 N 
ATOM     10  N   UNL     1      31.244 -23.321 -16.705  0.00  0.00    -0.393 NA
ATOM     11  C   UNL     1      33.460 -23.353 -16.223  0.00  0.00    +0.181 C 
ATOM     12  C   UNL     1      31.428 -23.958 -15.567  0.00  0.00    +0.187 C 
ATOM     13  C   UNL     1      32.498 -22.943 -17.115  0.00  0.00    +0.114 C 
ATOM     14  C   UNL     1      33.261 -24.615 -14.074  0.00  0.00    +0.068 C 
ATOM     15  C   UNL     1      30.512 -24.580 -14.667  0.00  0.00    +0.048 C 
ATOM     16  C   UNL     1      32.668 -22.199 -18.374  0.00  0.00    +0.064 C 
ATOM     17  C   UNL     1      32.393 -25.198 -13.232  0.00  0.00    +0.016 C 
ATOM     18  C   UNL     1      30.974 -25.173 -13.550  0.00  0.00    +0.005 C 
ENDBRANCH   4  11
BRANCH   2  20
ATOM     19  C   UNL     1      35.349 -19.460 -21.565  0.00  0.00    +0.139 C 
ATOM     20  C   UNL     1      36.570 -20.794 -19.438  0.00  0.00    +0.058 C 
ATOM     21  C   UNL     1      34.688 -20.510 -20.928  0.00  0.00    +0.038 C 
ATOM     22  C   UNL     1      36.620 -19.076 -21.140  0.00  0.00    +0.038 C 
ATOM     23  C   UNL     1      35.298 -21.176 -19.865  0.00  0.00    +0.018 C 
ATOM     24  C   UNL     1      37.231 -19.743 -20.078  0.00  0.00    +0.018 C 
BRANCH  19  25
ATOM     25  O   UNL     1      34.753 -18.810 -22.603  0.00  0.00    -0.473 OA
BRANCH  25  26
ATOM     26  C   UNL     1      35.377 -17.612 -23.062  0.00  0.00    +0.232 C 
BRANCH  26  27
ATOM     27  C   UNL     1      34.516 -16.420 -22.652  0.00  0.00    +0.133 C 
BRANCH  27  28
ATOM     28  O   UNL     1      34.798 -16.097 -21.288  0.00  0.00    -0.383 OA
ATOM     29  H   UNL     1      34.098 -16.453 -20.719  0.00  0.00    +0.210 HD
ENDBRANCH  27  28
BRANCH  27  30
ATOM     30  C   UNL     1      34.769 -15.171 -23.500  0.00  0.00    -0.044 C 
BRANCH  30  31
ATOM     31  N   UNL     1      33.537 -14.452 -23.798  0.00  0.00    +0.386 N 
ATOM     32  C   UNL     1      33.694 -13.022 -23.526  0.00  0.00    -0.101 C 
ATOM     33  C   UNL     1      33.141 -14.662 -25.192  0.00  0.00    -0.101 C 
ATOM     34  H   UNL     1      32.803 -14.818 -23.193  0.00  0.00    -0.080 HD
ENDBRANCH  30  31
ENDBRANCH  27  30
ENDBRANCH  26  27
ENDBRANCH  25  26
ENDBRANCH  19  25
ENDBRANCH   2  20
TORSDOF 8
ENDMDL
MODEL 5
REMARK VINA RESULT:      -9.2      2.726     11.170
REMARK  Name = 447653
REMARK  8 active torsions:
REMARK  status: ('A' for Active; 'I' for Inactive)
REMARK    1  A    between atoms: N_2  and  C_20
REMARK    2  A    between atoms: C_4  and  C_11
REMARK    3  A    between atoms: C_19  and  O_25
REMARK    4  A    between atoms: O_25  and  C_26
REMARK    5  A    between atoms: C_26  and  C_27
REMARK    6  A    between atoms: C_27  and  O_28
REMARK    7  A    between atoms: C_27  and  C_30
REMARK    8  A    between atoms: C_30  and  N_31
REMARK                            x       y       z     vdW  Elec       q    Type
REMARK                         _______ _______ _______ _____ _____    ______ ____
ROOT
ATOM      1  N   UNL     1      33.844 -15.106 -23.981  0.00  0.00    -0.340 NA
ATOM      2  N   UNL     1      34.638 -17.142 -24.836  0.00  0.00    -0.247 N 
ATOM      3  N   UNL     1      34.081 -15.442 -26.356  0.00  0.00    -0.170 NA
ATOM      4  C   UNL     1      33.397 -13.863 -24.245  0.00  0.00    +0.148 C 
ATOM      5  C   UNL     1      33.264 -13.342 -25.511  0.00  0.00    +0.052 C 
ATOM      6  C   UNL     1      34.165 -15.832 -25.069  0.00  0.00    +0.148 C 
ATOM      7  C   UNL     1      33.625 -14.187 -26.541  0.00  0.00    +0.114 C 
ATOM      8  H   UNL     1      34.860 -17.635 -25.659  0.00  0.00    +0.165 HD
ENDROOT
BRANCH   4  11
ATOM      9  N   UNL     1      32.747 -13.619 -21.849  0.00  0.00    -0.251 N 
ATOM     10  N   UNL     1      32.606 -11.398 -21.629  0.00  0.00    -0.393 NA
ATOM     11  C   UNL     1      33.055 -13.087 -23.075  0.00  0.00    +0.181 C 
ATOM     12  C   UNL     1      32.480 -12.548 -21.000  0.00  0.00    +0.187 C 
ATOM     13  C   UNL     1      32.962 -11.725 -22.913  0.00  0.00    +0.114 C 
ATOM     14  C   UNL     1      32.691 -14.952 -21.450  0.00  0.00    +0.068 C 
ATOM     15  C   UNL     1      32.131 -12.862 -19.653  0.00  0.00    +0.048 C 
ATOM     16  C   UNL     1      33.188 -10.664 -23.908  0.00  0.00    +0.064 C 
ATOM     17  C   UNL     1      32.361 -15.239 -20.180  0.00  0.00    +0.016 C 
ATOM     18  C   UNL     1      32.074 -14.149 -19.261  0.00  0.00    +0.005 C 
ENDBRANCH   4  11
BRANCH   2  20
ATOM     19  C   UNL     1      35.288 -19.349 -21.323  0.00  0.00    +0.139 C 
ATOM     20  C   UNL     1      34.855 -17.881 -23.658  0.00  0.00    +0.058 C 
ATOM     21  C   UNL     1      35.587 -17.987 -21.356  0.00  0.00    +0.038 C 
ATOM     22  C   UNL     1      34.774 -19.978 -22.456  0.00  0.00    +0.038 C 
ATOM     23  C   UNL     1      35.371 -17.254 -22.523  0.00  0.00    +0.018 C 
ATOM     24  C   UNL     1      34.558 -19.245 -23.623  0.00  0.00    +0.018 C 
BRANCH  19  25
ATOM     25  O   UNL     1      35.500 -20.064 -20.184  0.00  0.00    -0.473 OA
BRANCH  25  26
ATOM     26  C   UNL     1      34.546 -21.077 -19.867  0.00  0.00    +0.232 C 
BRANCH  26  27
ATOM     27  C   UNL     1      35.264 -22.231 -19.173  0.00  0.00    +0.133 C 
BRANCH  27  28
ATOM     28  O   UNL     1      36.067 -21.702 -18.115  0.00  0.00    -0.383 OA
ATOM     29  H   UNL     1      36.686 -21.046 -18.474  0.00  0.00    +0.210 HD
ENDBRANCH  27  28
BRANCH  27  30
ATOM     30  C   UNL     1      34.309 -23.266 -18.574  0.00  0.00    -0.044 C 
BRANCH  30  31
ATOM     31  N   UNL     1      33.906 -22.920 -17.218  0.00  0.00    +0.386 N 
ATOM     32  C   UNL     1      32.453 -23.025 -17.068  0.00  0.00    -0.101 C 
ATOM     33  C   UNL     1      34.579 -23.782 -16.243  0.00  0.00    -0.101 C 
ATOM     34  H   UNL     1      34.181 -21.954 -17.043  0.00  0.00    -0.080 HD
ENDBRANCH  30  31
ENDBRANCH  27  30
ENDBRANCH  26  27
ENDBRANCH  25  26
ENDBRANCH  19  25
ENDBRANCH   2  20
TORSDOF 8
ENDMDL
MODEL 6
REMARK VINA RESULT:      -9.0      6.054     13.373
REMARK  Name = 447653
REMARK  8 active torsions:
REMARK  status: ('A' for Active; 'I' for Inactive)
REMARK    1  A    between atoms: N_2  and  C_20
REMARK    2  A    between atoms: C_4  and  C_11
REMARK    3  A    between atoms: C_19  and  O_25
REMARK    4  A    between atoms: O_25  and  C_26
REMARK    5  A    between atoms: C_26  and  C_27
REMARK    6  A    between atoms: C_27  and  O_28
REMARK    7  A    between atoms: C_27  and  C_30
REMARK    8  A    between atoms: C_30  and  N_31
REMARK                            x       y       z     vdW  Elec       q    Type
REMARK                         _______ _______ _______ _____ _____    ______ ____
ROOT
ATOM      1  N   UNL     1      32.346 -11.263 -20.914  0.00  0.00    -0.340 NA
ATOM      2  N   UNL     1      32.260 -13.446 -20.057  0.00  0.00    -0.247 N 
ATOM      3  N   UNL     1      31.136 -11.750 -18.886  0.00  0.00    -0.170 NA
ATOM      4  C   UNL     1      31.977  -9.976 -20.773  0.00  0.00    +0.148 C 
ATOM      5  C   UNL     1      31.204  -9.500 -19.738  0.00  0.00    +0.052 C 
ATOM      6  C   UNL     1      31.896 -12.087 -19.946  0.00  0.00    +0.148 C 
ATOM      7  C   UNL     1      30.808 -10.444 -18.813  0.00  0.00    +0.114 C 
ATOM      8  H   UNL     1      31.909 -14.010 -19.330  0.00  0.00    +0.165 HD
ENDROOT
BRANCH   4  11
ATOM      9  N   UNL     1      32.158  -7.762 -21.909  0.00  0.00    -0.251 N 
ATOM     10  N   UNL     1      33.501  -8.232 -23.634  0.00  0.00    -0.393 NA
ATOM     11  C   UNL     1      32.461  -9.096 -21.812  0.00  0.00    +0.181 C 
ATOM     12  C   UNL     1      32.815  -7.279 -23.037  0.00  0.00    +0.187 C 
ATOM     13  C   UNL     1      33.286  -9.359 -22.880  0.00  0.00    +0.114 C 
ATOM     14  C   UNL     1      31.359  -6.973 -21.085  0.00  0.00    +0.068 C 
ATOM     15  C   UNL     1      32.644  -5.897 -23.344  0.00  0.00    +0.048 C 
ATOM     16  C   UNL     1      33.912 -10.634 -23.266  0.00  0.00    +0.064 C 
ATOM     17  C   UNL     1      31.203  -5.672 -21.381  0.00  0.00    +0.016 C 
ATOM     18  C   UNL     1      31.873  -5.128 -22.551  0.00  0.00    +0.005 C 
ENDBRANCH   4  11
BRANCH   2  20
ATOM     19  C   UNL     1      34.544 -15.561 -22.877  0.00  0.00    +0.139 C 
ATOM     20  C   UNL     1      33.025 -14.154 -21.002  0.00  0.00    +0.058 C 
ATOM     21  C   UNL     1      33.500 -14.737 -23.300  0.00  0.00    +0.038 C 
ATOM     22  C   UNL     1      34.827 -15.683 -21.517  0.00  0.00    +0.038 C 
ATOM     23  C   UNL     1      32.742 -14.034 -22.364  0.00  0.00    +0.018 C 
ATOM     24  C   UNL     1      34.069 -14.980 -20.580  0.00  0.00    +0.018 C 
BRANCH  19  25
ATOM     25  O   UNL     1      35.283 -16.247 -23.791  0.00  0.00    -0.473 OA
BRANCH  25  26
ATOM     26  C   UNL     1      34.634 -17.314 -24.481  0.00  0.00    +0.232 C 
BRANCH  26  27
ATOM     27  C   UNL     1      34.597 -18.538 -23.571  0.00  0.00    +0.133 C 
BRANCH  27  28
ATOM     28  O   UNL     1      34.198 -19.673 -24.345  0.00  0.00    -0.383 OA
ATOM     29  H   UNL     1      34.421 -19.524 -25.277  0.00  0.00    +0.210 HD
ENDBRANCH  27  28
BRANCH  27  30
ATOM     30  C   UNL     1      35.947 -18.853 -22.923  0.00  0.00    -0.044 C 
BRANCH  30  31
ATOM     31  N   UNL     1      35.865 -18.874 -21.469  0.00  0.00    +0.386 N 
ATOM     32  C   UNL     1      34.896 -19.876 -21.020  0.00  0.00    -0.101 C 
ATOM     33  C   UNL     1      37.180 -19.141 -20.881  0.00  0.00    -0.101 C 
ATOM     34  H   UNL     1      35.550 -17.955 -21.157  0.00  0.00    -0.080 HD
ENDBRANCH  30  31
ENDBRANCH  27  30
ENDBRANCH  26  27
ENDBRANCH  25  26
ENDBRANCH  19  25
ENDBRANCH   2  20
TORSDOF 8
ENDMDL
MODEL 7
REMARK VINA RESULT:      -9.0      4.682      8.045
REMARK  Name = 447653
REMARK  8 active torsions:
REMARK  status: ('A' for Active; 'I' for Inactive)
REMARK    1  A    between atoms: N_2  and  C_20
REMARK    2  A    between atoms: C_4  and  C_11
REMARK    3  A    between atoms: C_19  and  O_25
REMARK    4  A    between atoms: O_25  and  C_26
REMARK    5  A    between atoms: C_26  and  C_27
REMARK    6  A    between atoms: C_27  and  O_28
REMARK    7  A    between atoms: C_27  and  C_30
REMARK    8  A    between atoms: C_30  and  N_31
REMARK                            x       y       z     vdW  Elec       q    Type
REMARK                         _______ _______ _______ _____ _____    ______ ____
ROOT
ATOM      1  N   UNL     1      35.424 -23.805 -14.760  0.00  0.00    -0.340 NA
ATOM      2  N   UNL     1      34.311 -24.959 -13.047  0.00  0.00    -0.247 N 
ATOM      3  N   UNL     1      36.658 -24.994 -13.065  0.00  0.00    -0.170 NA
ATOM      4  C   UNL     1      36.603 -23.452 -15.309  0.00  0.00    +0.148 C 
ATOM      5  C   UNL     1      37.831 -23.821 -14.809  0.00  0.00    +0.052 C 
ATOM      6  C   UNL     1      35.524 -24.567 -13.653  0.00  0.00    +0.148 C 
ATOM      7  C   UNL     1      37.796 -24.602 -13.671  0.00  0.00    +0.114 C 
ATOM      8  H   UNL     1      34.432 -25.513 -12.242  0.00  0.00    +0.165 HD
ENDROOT
BRANCH   4  11
ATOM      9  N   UNL     1      35.443 -22.680 -17.378  0.00  0.00    -0.251 N 
ATOM     10  N   UNL     1      36.859 -21.134 -18.156  0.00  0.00    -0.393 NA
ATOM     11  C   UNL     1      36.491 -22.634 -16.495  0.00  0.00    +0.181 C 
ATOM     12  C   UNL     1      35.714 -21.747 -18.375  0.00  0.00    +0.187 C 
ATOM     13  C   UNL     1      37.345 -21.679 -16.994  0.00  0.00    +0.114 C 
ATOM     14  C   UNL     1      34.299 -23.473 -17.356  0.00  0.00    +0.068 C 
ATOM     15  C   UNL     1      34.750 -21.616 -19.418  0.00  0.00    +0.048 C 
ATOM     16  C   UNL     1      38.632 -21.219 -16.446  0.00  0.00    +0.064 C 
ATOM     17  C   UNL     1      33.397 -23.344 -18.341  0.00  0.00    +0.016 C 
ATOM     18  C   UNL     1      33.642 -22.380 -19.402  0.00  0.00    +0.005 C 
ENDBRANCH   4  11
BRANCH   2  20
ATOM     19  C   UNL     1      30.288 -24.221 -14.001  0.00  0.00    +0.139 C 
ATOM     20  C   UNL     1      32.963 -24.712 -13.366  0.00  0.00    +0.058 C 
ATOM     21  C   UNL     1      30.660 -25.444 -13.441  0.00  0.00    +0.038 C 
ATOM     22  C   UNL     1      31.253 -23.244 -14.245  0.00  0.00    +0.038 C 
ATOM     23  C   UNL     1      31.996 -25.688 -13.124  0.00  0.00    +0.018 C 
ATOM     24  C   UNL     1      32.589 -23.489 -13.929  0.00  0.00    +0.018 C 
BRANCH  19  25
ATOM     25  O   UNL     1      28.984 -23.983 -14.311  0.00  0.00    -0.473 OA
BRANCH  25  26
ATOM     26  C   UNL     1      28.384 -24.830 -15.290  0.00  0.00    +0.232 C 
BRANCH  26  27
ATOM     27  C   UNL     1      28.336 -24.087 -16.622  0.00  0.00    +0.133 C 
BRANCH  27  28
ATOM     28  O   UNL     1      27.429 -24.767 -17.494  0.00  0.00    -0.383 OA
ATOM     29  H   UNL     1      27.002 -25.493 -17.014  0.00  0.00    +0.210 HD
ENDBRANCH  27  28
BRANCH  27  30
ATOM     30  C   UNL     1      27.871 -22.634 -16.488  0.00  0.00    -0.044 C 
BRANCH  30  31
ATOM     31  N   UNL     1      26.424 -22.510 -16.600  0.00  0.00    +0.386 N 
ATOM     32  C   UNL     1      25.836 -22.144 -15.310  0.00  0.00    -0.101 C 
ATOM     33  C   UNL     1      26.068 -21.519 -17.618  0.00  0.00    -0.101 C 
ATOM     34  H   UNL     1      26.049 -23.415 -16.882  0.00  0.00    -0.080 HD
ENDBRANCH  30  31
ENDBRANCH  27  30
ENDBRANCH  26  27
ENDBRANCH  25  26
ENDBRANCH  19  25
ENDBRANCH   2  20
TORSDOF 8
ENDMDL
MODEL 8
REMARK VINA RESULT:      -8.7      1.778      4.598
REMARK  Name = 447653
REMARK  8 active torsions:
REMARK  status: ('A' for Active; 'I' for Inactive)
REMARK    1  A    between atoms: N_2  and  C_20
REMARK    2  A    between atoms: C_4  and  C_11
REMARK    3  A    between atoms: C_19  and  O_25
REMARK    4  A    between atoms: O_25  and  C_26
REMARK    5  A    between atoms: C_26  and  C_27
REMARK    6  A    between atoms: C_27  and  O_28
REMARK    7  A    between atoms: C_27  and  C_30
REMARK    8  A    between atoms: C_30  and  N_31
REMARK                            x       y       z     vdW  Elec       q    Type
REMARK                         _______ _______ _______ _____ _____    ______ ____
ROOT
ATOM      1  N   UNL     1      35.135 -23.249 -15.873  0.00  0.00    -0.340 NA
ATOM      2  N   UNL     1      37.379 -22.638 -16.183  0.00  0.00    -0.247 N 
ATOM      3  N   UNL     1      36.869 -24.151 -14.462  0.00  0.00    -0.170 NA
ATOM      4  C   UNL     1      34.245 -23.974 -15.170  0.00  0.00    +0.148 C 
ATOM      5  C   UNL     1      34.576 -24.798 -14.118  0.00  0.00    +0.052 C 
ATOM      6  C   UNL     1      36.414 -23.383 -15.471  0.00  0.00    +0.148 C 
ATOM      7  C   UNL     1      35.919 -24.847 -13.804  0.00  0.00    +0.114 C 
ATOM      8  H   UNL     1      38.299 -22.767 -15.855  0.00  0.00    +0.165 HD
ENDROOT
BRANCH   4  11
ATOM      9  N   UNL     1      31.782 -24.262 -14.898  0.00  0.00    -0.251 N 
ATOM     10  N   UNL     1      30.995 -23.329 -16.772  0.00  0.00    -0.393 NA
ATOM     11  C   UNL     1      32.874 -23.828 -15.605  0.00  0.00    +0.181 C 
ATOM     12  C   UNL     1      30.658 -23.935 -15.652  0.00  0.00    +0.187 C 
ATOM     13  C   UNL     1      32.365 -23.260 -16.748  0.00  0.00    +0.114 C 
ATOM     14  C   UNL     1      31.722 -24.908 -13.667  0.00  0.00    +0.068 C 
ATOM     15  C   UNL     1      29.388 -24.293 -15.110  0.00  0.00    +0.048 C 
ATOM     16  C   UNL     1      33.091 -22.634 -17.865  0.00  0.00    +0.064 C 
ATOM     17  C   UNL     1      30.523 -25.243 -13.163  0.00  0.00    +0.016 C 
ATOM     18  C   UNL     1      29.324 -24.919 -13.919  0.00  0.00    +0.005 C 
ENDBRANCH   4  11
BRANCH   2  20
ATOM     19  C   UNL     1      37.103 -19.983 -19.425  0.00  0.00    +0.139 C 
ATOM     20  C   UNL     1      37.286 -21.749 -17.269  0.00  0.00    +0.058 C 
ATOM     21  C   UNL     1      36.462 -21.221 -19.480  0.00  0.00    +0.038 C 
ATOM     22  C   UNL     1      37.836 -19.628 -18.293  0.00  0.00    +0.038 C 
ATOM     23  C   UNL     1      36.553 -22.102 -18.403  0.00  0.00    +0.018 C 
ATOM     24  C   UNL     1      37.928 -20.509 -17.216  0.00  0.00    +0.018 C 
BRANCH  19  25
ATOM     25  O   UNL     1      37.014 -19.123 -20.476  0.00  0.00    -0.473 OA
BRANCH  25  26
ATOM     26  C   UNL     1      36.021 -19.404 -21.462  0.00  0.00    +0.232 C 
BRANCH  26  27
ATOM     27  C   UNL     1      35.174 -18.153 -21.680  0.00  0.00    +0.133 C 
BRANCH  27  28
ATOM     28  O   UNL     1      35.227 -17.352 -20.496  0.00  0.00    -0.383 OA
ATOM     29  H   UNL     1      35.739 -16.548 -20.672  0.00  0.00    +0.210 HD
ENDBRANCH  27  28
BRANCH  27  30
ATOM     30  C   UNL     1      35.649 -17.298 -22.857  0.00  0.00    -0.044 C 
BRANCH  30  31
ATOM     31  N   UNL     1      34.555 -16.559 -23.473  0.00  0.00    +0.386 N 
ATOM     32  C   UNL     1      34.626 -15.140 -23.117  0.00  0.00    -0.101 C 
ATOM     33  C   UNL     1      34.580 -16.718 -24.928  0.00  0.00    -0.101 C 
ATOM     34  H   UNL     1      33.678 -16.938 -23.119  0.00  0.00    -0.080 HD
ENDBRANCH  30  31
ENDBRANCH  27  30
ENDBRANCH  26  27
ENDBRANCH  25  26
ENDBRANCH  19  25
ENDBRANCH   2  20
TORSDOF 8
ENDMDL
MODEL 9
REMARK VINA RESULT:      -8.7      8.928     13.615
REMARK  Name = 447653
REMARK  8 active torsions:
REMARK  status: ('A' for Active; 'I' for Inactive)
REMARK    1  A    between atoms: N_2  and  C_20
REMARK    2  A    between atoms: C_4  and  C_11
REMARK    3  A    between atoms: C_19  and  O_25
REMARK    4  A    between atoms: O_25  and  C_26
REMARK    5  A    between atoms: C_26  and  C_27
REMARK    6  A    between atoms: C_27  and  O_28
REMARK    7  A    between atoms: C_27  and  C_30
REMARK    8  A    between atoms: C_30  and  N_31
REMARK                            x       y       z     vdW  Elec       q    Type
REMARK                         _______ _______ _______ _____ _____    ______ ____
ROOT
ATOM      1  N   UNL     1      32.442 -11.023 -21.517  0.00  0.00    -0.340 NA
ATOM      2  N   UNL     1      31.613  -8.916 -20.905  0.00  0.00    -0.247 N 
ATOM      3  N   UNL     1      31.121 -10.746 -19.521  0.00  0.00    -0.170 NA
ATOM      4  C   UNL     1      32.531 -12.335 -21.224  0.00  0.00    +0.148 C 
ATOM      5  C   UNL     1      31.956 -12.922 -20.120  0.00  0.00    +0.052 C 
ATOM      6  C   UNL     1      31.731 -10.296 -20.634  0.00  0.00    +0.148 C 
ATOM      7  C   UNL     1      31.253 -12.068 -19.294  0.00  0.00    +0.114 C 
ATOM      8  H   UNL     1      31.086  -8.424 -20.234  0.00  0.00    +0.165 HD
ENDROOT
BRANCH   4  11
ATOM      9  N   UNL     1      33.802 -14.362 -21.929  0.00  0.00    -0.251 N 
ATOM     10  N   UNL     1      34.396 -13.835 -24.020  0.00  0.00    -0.393 NA
ATOM     11  C   UNL     1      33.295 -13.112 -22.173  0.00  0.00    +0.181 C 
ATOM     12  C   UNL     1      34.466 -14.761 -23.086  0.00  0.00    +0.187 C 
ATOM     13  C   UNL     1      33.672 -12.812 -23.461  0.00  0.00    +0.114 C 
ATOM     14  C   UNL     1      33.715 -15.145 -20.781  0.00  0.00    +0.068 C 
ATOM     15  C   UNL     1      35.084 -16.047 -23.067  0.00  0.00    +0.048 C 
ATOM     16  C   UNL     1      33.397 -11.594 -24.240  0.00  0.00    +0.064 C 
ATOM     17  C   UNL     1      34.299 -16.354 -20.771  0.00  0.00    +0.016 C 
ATOM     18  C   UNL     1      35.003 -16.809 -21.959  0.00  0.00    +0.005 C 
ENDBRANCH   4  11
BRANCH   2  20
ATOM     19  C   UNL     1      33.068  -6.491 -24.011  0.00  0.00    +0.139 C 
ATOM     20  C   UNL     1      32.101  -8.104 -21.946  0.00  0.00    +0.058 C 
ATOM     21  C   UNL     1      33.840  -6.699 -22.868  0.00  0.00    +0.038 C 
ATOM     22  C   UNL     1      31.813  -7.089 -24.122  0.00  0.00    +0.038 C 
ATOM     23  C   UNL     1      33.357  -7.505 -21.836  0.00  0.00    +0.018 C 
ATOM     24  C   UNL     1      31.329  -7.893 -23.090  0.00  0.00    +0.018 C 
BRANCH  19  25
ATOM     25  O   UNL     1      33.540  -5.705 -25.017  0.00  0.00    -0.473 OA
BRANCH  25  26
ATOM     26  C   UNL     1      32.617  -4.799 -25.619  0.00  0.00    +0.232 C 
BRANCH  26  27
ATOM     27  C   UNL     1      32.465  -3.577 -24.717  0.00  0.00    +0.133 C 
BRANCH  27  28
ATOM     28  O   UNL     1      32.813  -2.409 -25.464  0.00  0.00    -0.383 OA
ATOM     29  H   UNL     1      33.541  -1.946 -25.021  0.00  0.00    +0.210 HD
ENDBRANCH  27  28
BRANCH  27  30
ATOM     30  C   UNL     1      31.044  -3.395 -24.179  0.00  0.00    -0.044 C 
BRANCH  30  31
ATOM     31  N   UNL     1      31.023  -3.222 -22.732  0.00  0.00    +0.386 N 
ATOM     32  C   UNL     1      30.283  -2.013 -22.367  0.00  0.00    -0.101 C 
ATOM     33  C   UNL     1      30.433  -4.393 -22.081  0.00  0.00    -0.101 C 
ATOM     34  H   UNL     1      31.986  -3.122 -22.412  0.00  0.00    -0.080 HD
ENDBRANCH  30  31
ENDBRANCH  27  30
ENDBRANCH  26  27
ENDBRANCH  25  26
ENDBRANCH  19  25
ENDBRANCH   2  20
TORSDOF 8
ENDMDL
