MODEL 1
REMARK VINA RESULT:     -11.1      0.000      0.000
REMARK  Name = 16720766
REMARK  7 active torsions:
REMARK  status: ('A' for Active; 'I' for Inactive)
REMARK    1  A    between atoms: N_1  and  C_10
REMARK    2  A    between atoms: C_11  and  C_17
REMARK    3  A    between atoms: C_13  and  O_15
REMARK    4  A    between atoms: C_17  and  O_18
REMARK    5  A    between atoms: O_18  and  S_19
REMARK    6  A    between atoms: S_19  and  N_22
REMARK    7  A    between atoms: N_25  and  C_27
REMARK                            x       y       z     vdW  Elec       q    Type
REMARK                         _______ _______ _______ _____ _____    ______ ____
ROOT
ATOM      1  N   UNL     1      34.188 -21.783 -19.183  0.00  0.00    -0.276 N 
ATOM      2  N   UNL     1      36.429 -20.957 -19.512  0.00  0.00    -0.233 NA
ATOM      3  N   UNL     1      36.534 -19.089 -21.070  0.00  0.00    -0.233 NA
ATOM      4  C   UNL     1      35.105 -20.937 -19.746  0.00  0.00    +0.120 C 
ATOM      5  C   UNL     1      32.935 -21.475 -19.649  0.00  0.00    +0.062 C 
ATOM      6  C   UNL     1      34.425 -20.068 -20.591  0.00  0.00    +0.131 C 
ATOM      7  C   UNL     1      33.052 -20.415 -20.523  0.00  0.00    +0.004 C 
ATOM      8  C   UNL     1      35.186 -19.107 -21.276  0.00  0.00    +0.113 C 
ATOM      9  C   UNL     1      37.061 -19.998 -20.217  0.00  0.00    +0.252 C 
ATOM     10  N   UNL     1      34.595 -18.197 -22.139  0.00  0.00    -0.319 N 
ATOM     11  H   UNL     1      33.618 -18.241 -22.261  0.00  0.00    +0.148 HD
ENDROOT
BRANCH  10  12
ATOM     12  C   UNL     1      35.327 -17.190 -22.868  0.00  0.00    +0.093 C 
ATOM     13  C   UNL     1      35.247 -17.441 -24.385  0.00  0.00    +0.029 C 
ATOM     14  C   UNL     1      34.648 -15.858 -22.758  0.00  0.00    -0.008 C 
ATOM     15  C   UNL     1      34.003 -16.696 -24.898  0.00  0.00    +0.028 C 
ATOM     16  C   UNL     1      33.905 -15.576 -23.911  0.00  0.00    -0.025 C 
ATOM     17  C   UNL     1      34.673 -14.974 -21.691  0.00  0.00    -0.003 C 
ATOM     18  C   UNL     1      33.167 -14.409 -24.017  0.00  0.00    -0.005 C 
ATOM     19  C   UNL     1      33.941 -13.789 -21.795  0.00  0.00    -0.000 C 
ATOM     20  C   UNL     1      33.192 -13.509 -22.950  0.00  0.00    -0.000 C 
ENDBRANCH  10  12
BRANCH   1  21
ATOM     21  C   UNL     1      34.484 -22.853 -18.234  0.00  0.00    +0.081 C 
ATOM     22  C   UNL     1      33.457 -23.172 -16.037  0.00  0.00    +0.061 C 
ATOM     23  C   UNL     1      33.244 -23.447 -17.531  0.00  0.00    +0.025 C 
ATOM     24  C   UNL     1      34.979 -23.192 -15.883  0.00  0.00    +0.115 C 
ATOM     25  C   UNL     1      35.453 -22.424 -17.113  0.00  0.00    +0.049 C 
BRANCH  24  26
ATOM     26  O   UNL     1      35.477 -24.524 -15.924  0.00  0.00    -0.384 OA
ATOM     27  H   UNL     1      35.503 -24.887 -15.024  0.00  0.00    +0.210 HD
ENDBRANCH  24  26
BRANCH  22  28
ATOM     28  C   UNL     1      32.718 -24.161 -15.149  0.00  0.00    +0.176 C 
BRANCH  28  29
ATOM     29  O   UNL     1      31.482 -24.488 -15.762  0.00  0.00    -0.230 OA
BRANCH  29  30
ATOM     30  S   UNL     1      30.102 -23.773 -15.247  0.00  0.00    +0.045 S 
ATOM     31  O   UNL     1      29.119 -24.807 -14.978  0.00  0.00    -0.056 OA
ATOM     32  O   UNL     1      30.465 -22.829 -14.206  0.00  0.00    -0.056 OA
BRANCH  30  33
ATOM     33  N   UNL     1      29.569 -22.871 -16.603  0.00  0.00    -0.204 NA
ATOM     34  H   UNL     1      28.884 -23.416 -17.126  0.00  0.00    +0.144 HD
ATOM     35  H   UNL     1      30.365 -22.658 -17.205  0.00  0.00    +0.144 HD
ENDBRANCH  30  33
ENDBRANCH  29  30
ENDBRANCH  28  29
ENDBRANCH  22  28
ENDBRANCH   1  21
TORSDOF 7
ENDMDL
MODEL 2
REMARK VINA RESULT:     -11.0      1.556      1.652
REMARK  Name = 16720766
REMARK  7 active torsions:
REMARK  status: ('A' for Active; 'I' for Inactive)
REMARK    1  A    between atoms: N_1  and  C_10
REMARK    2  A    between atoms: C_11  and  C_17
REMARK    3  A    between atoms: C_13  and  O_15
REMARK    4  A    between atoms: C_17  and  O_18
REMARK    5  A    between atoms: O_18  and  S_19
REMARK    6  A    between atoms: S_19  and  N_22
REMARK    7  A    between atoms: N_25  and  C_27
REMARK                            x       y       z     vdW  Elec       q    Type
REMARK                         _______ _______ _______ _____ _____    ______ ____
ROOT
ATOM      1  N   UNL     1      34.325 -21.671 -19.315  0.00  0.00    -0.276 N 
ATOM      2  N   UNL     1      36.534 -20.764 -19.644  0.00  0.00    -0.233 NA
ATOM      3  N   UNL     1      36.566 -18.873 -21.177  0.00  0.00    -0.233 NA
ATOM      4  C   UNL     1      35.209 -20.786 -19.871  0.00  0.00    +0.120 C 
ATOM      5  C   UNL     1      33.059 -21.401 -19.770  0.00  0.00    +0.062 C 
ATOM      6  C   UNL     1      34.495 -19.930 -20.701  0.00  0.00    +0.131 C 
ATOM      7  C   UNL     1      33.135 -20.326 -20.631  0.00  0.00    +0.004 C 
ATOM      8  C   UNL     1      35.219 -18.934 -21.377  0.00  0.00    +0.113 C 
ATOM      9  C   UNL     1      37.129 -19.774 -20.339  0.00  0.00    +0.252 C 
ATOM     10  N   UNL     1      34.592 -18.035 -22.224  0.00  0.00    -0.319 N 
ATOM     11  H   UNL     1      33.617 -18.111 -22.342  0.00  0.00    +0.148 HD
ENDROOT
BRANCH  10  12
ATOM     12  C   UNL     1      35.284 -16.993 -22.943  0.00  0.00    +0.093 C 
ATOM     13  C   UNL     1      35.164 -17.200 -24.465  0.00  0.00    +0.029 C 
ATOM     14  C   UNL     1      34.587 -15.678 -22.773  0.00  0.00    -0.008 C 
ATOM     15  C   UNL     1      33.892 -16.462 -24.918  0.00  0.00    +0.028 C 
ATOM     16  C   UNL     1      33.805 -15.374 -23.895  0.00  0.00    -0.025 C 
ATOM     17  C   UNL     1      34.629 -14.825 -21.681  0.00  0.00    -0.003 C 
ATOM     18  C   UNL     1      33.045 -14.218 -23.944  0.00  0.00    -0.005 C 
ATOM     19  C   UNL     1      33.874 -13.651 -21.728  0.00  0.00    -0.000 C 
ATOM     20  C   UNL     1      33.087 -13.351 -22.851  0.00  0.00    -0.000 C 
ENDBRANCH  10  12
BRANCH   1  21
ATOM     21  C   UNL     1      34.663 -22.743 -18.381  0.00  0.00    +0.081 C 
ATOM     22  C   UNL     1      33.568 -23.208 -16.244  0.00  0.00    +0.061 C 
ATOM     23  C   UNL     1      33.444 -23.453 -17.753  0.00  0.00    +0.025 C 
ATOM     24  C   UNL     1      35.079 -23.113 -16.020  0.00  0.00    +0.115 C 
ATOM     25  C   UNL     1      35.544 -22.273 -17.206  0.00  0.00    +0.049 C 
BRANCH  24  26
ATOM     26  O   UNL     1      35.682 -24.399 -16.073  0.00  0.00    -0.384 OA
ATOM     27  H   UNL     1      35.375 -24.931 -15.322  0.00  0.00    +0.210 HD
ENDBRANCH  24  26
BRANCH  22  28
ATOM     28  C   UNL     1      32.871 -24.278 -15.418  0.00  0.00    +0.176 C 
BRANCH  28  29
ATOM     29  O   UNL     1      33.699 -24.617 -14.319  0.00  0.00    -0.230 OA
BRANCH  29  30
ATOM     30  S   UNL     1      33.059 -24.717 -12.816  0.00  0.00    +0.045 S 
ATOM     31  O   UNL     1      32.035 -25.746 -12.818  0.00  0.00    -0.056 OA
ATOM     32  O   UNL     1      34.164 -24.795 -11.878  0.00  0.00    -0.056 OA
BRANCH  30  33
ATOM     33  N   UNL     1      32.291 -23.201 -12.588  0.00  0.00    -0.204 NA
ATOM     34  H   UNL     1      31.887 -23.162 -11.652  0.00  0.00    +0.144 HD
ATOM     35  H   UNL     1      31.552 -23.087 -13.282  0.00  0.00    +0.144 HD
ENDBRANCH  30  33
ENDBRANCH  29  30
ENDBRANCH  28  29
ENDBRANCH  22  28
ENDBRANCH   1  21
TORSDOF 7
ENDMDL
MODEL 3
REMARK VINA RESULT:     -10.7      8.069     11.616
REMARK  Name = 16720766
REMARK  7 active torsions:
REMARK  status: ('A' for Active; 'I' for Inactive)
REMARK    1  A    between atoms: N_1  and  C_10
REMARK    2  A    between atoms: C_11  and  C_17
REMARK    3  A    between atoms: C_13  and  O_15
REMARK    4  A    between atoms: C_17  and  O_18
REMARK    5  A    between atoms: O_18  and  S_19
REMARK    6  A    between atoms: S_19  and  N_22
REMARK    7  A    between atoms: N_25  and  C_27
REMARK                            x       y       z     vdW  Elec       q    Type
REMARK                         _______ _______ _______ _____ _____    ______ ____
ROOT
ATOM      1  N   UNL     1      32.981 -13.271 -21.908  0.00  0.00    -0.276 N 
ATOM      2  N   UNL     1      33.394 -14.427 -23.983  0.00  0.00    -0.233 NA
ATOM      3  N   UNL     1      34.422 -16.611 -23.666  0.00  0.00    -0.233 NA
ATOM      4  C   UNL     1      33.430 -14.336 -22.642  0.00  0.00    +0.120 C 
ATOM      5  C   UNL     1      33.175 -13.522 -20.573  0.00  0.00    +0.062 C 
ATOM      6  C   UNL     1      33.923 -15.289 -21.759  0.00  0.00    +0.131 C 
ATOM      7  C   UNL     1      33.757 -14.766 -20.451  0.00  0.00    +0.004 C 
ATOM      8  C   UNL     1      34.438 -16.474 -22.310  0.00  0.00    +0.113 C 
ATOM      9  C   UNL     1      33.911 -15.599 -24.404  0.00  0.00    +0.252 C 
ATOM     10  N   UNL     1      34.949 -17.482 -21.507  0.00  0.00    -0.319 N 
ATOM     11  H   UNL     1      34.942 -17.346 -20.531  0.00  0.00    +0.148 HD
ENDROOT
BRANCH  10  12
ATOM     12  C   UNL     1      35.490 -18.717 -22.018  0.00  0.00    +0.093 C 
ATOM     13  C   UNL     1      37.029 -18.669 -22.060  0.00  0.00    +0.029 C 
ATOM     14  C   UNL     1      35.262 -19.837 -21.047  0.00  0.00    -0.008 C 
ATOM     15  C   UNL     1      37.531 -19.184 -20.700  0.00  0.00    +0.028 C 
ATOM     16  C   UNL     1      36.420 -20.106 -20.308  0.00  0.00    -0.025 C 
ATOM     17  C   UNL     1      34.093 -20.547 -20.825  0.00  0.00    -0.003 C 
ATOM     18  C   UNL     1      36.431 -21.082 -19.327  0.00  0.00    -0.005 C 
ATOM     19  C   UNL     1      34.099 -21.543 -19.846  0.00  0.00    -0.000 C 
ATOM     20  C   UNL     1      35.259 -21.808 -19.101  0.00  0.00    -0.000 C 
ENDBRANCH  10  12
BRANCH   1  21
ATOM     21  C   UNL     1      32.387 -12.051 -22.449  0.00  0.00    +0.081 C 
ATOM     22  C   UNL     1      33.313  -9.793 -22.297  0.00  0.00    +0.061 C 
ATOM     23  C   UNL     1      33.394 -11.089 -23.114  0.00  0.00    +0.025 C 
ATOM     24  C   UNL     1      31.866  -9.772 -21.803  0.00  0.00    +0.115 C 
ATOM     25  C   UNL     1      31.627 -11.222 -21.394  0.00  0.00    +0.049 C 
BRANCH  24  26
ATOM     26  O   UNL     1      30.975  -9.414 -22.853  0.00  0.00    -0.384 OA
ATOM     27  H   UNL     1      30.272  -8.846 -22.500  0.00  0.00    +0.210 HD
ENDBRANCH  24  26
BRANCH  22  28
ATOM     28  C   UNL     1      33.727  -8.569 -23.100  0.00  0.00    +0.176 C 
BRANCH  28  29
ATOM     29  O   UNL     1      33.327  -7.405 -22.396  0.00  0.00    -0.230 OA
BRANCH  29  30
ATOM     30  S   UNL     1      32.490  -6.231 -23.169  0.00  0.00    +0.045 S 
ATOM     31  O   UNL     1      33.389  -5.550 -24.084  0.00  0.00    -0.056 OA
ATOM     32  O   UNL     1      31.264  -6.828 -23.666  0.00  0.00    -0.056 OA
BRANCH  30  33
ATOM     33  N   UNL     1      32.065  -5.132 -21.923  0.00  0.00    -0.204 NA
ATOM     34  H   UNL     1      32.129  -4.178 -22.276  0.00  0.00    +0.144 HD
ATOM     35  H   UNL     1      32.703  -5.248 -21.137  0.00  0.00    +0.144 HD
ENDBRANCH  30  33
ENDBRANCH  29  30
ENDBRANCH  28  29
ENDBRANCH  22  28
ENDBRANCH   1  21
TORSDOF 7
ENDMDL
MODEL 4
REMARK VINA RESULT:     -10.3      2.546      2.945
REMARK  Name = 16720766
REMARK  7 active torsions:
REMARK  status: ('A' for Active; 'I' for Inactive)
REMARK    1  A    between atoms: N_1  and  C_10
REMARK    2  A    between atoms: C_11  and  C_17
REMARK    3  A    between atoms: C_13  and  O_15
REMARK    4  A    between atoms: C_17  and  O_18
REMARK    5  A    between atoms: O_18  and  S_19
REMARK    6  A    between atoms: S_19  and  N_22
REMARK    7  A    between atoms: N_25  and  C_27
REMARK                            x       y       z     vdW  Elec       q    Type
REMARK                         _______ _______ _______ _____ _____    ______ ____
ROOT
ATOM      1  N   UNL     1      35.208 -21.335 -19.490  0.00  0.00    -0.276 N 
ATOM      2  N   UNL     1      37.252 -20.189 -20.057  0.00  0.00    -0.233 NA
ATOM      3  N   UNL     1      36.919 -18.392 -21.665  0.00  0.00    -0.233 NA
ATOM      4  C   UNL     1      35.925 -20.382 -20.161  0.00  0.00    +0.120 C 
ATOM      5  C   UNL     1      33.884 -21.242 -19.839  0.00  0.00    +0.062 C 
ATOM      6  C   UNL     1      35.042 -19.663 -20.958  0.00  0.00    +0.131 C 
ATOM      7  C   UNL     1      33.753 -20.213 -20.747  0.00  0.00    +0.004 C 
ATOM      8  C   UNL     1      35.577 -18.624 -21.739  0.00  0.00    +0.113 C 
ATOM      9  C   UNL     1      37.658 -19.174 -20.846  0.00  0.00    +0.252 C 
ATOM     10  N   UNL     1      34.773 -17.852 -22.562  0.00  0.00    -0.319 N 
ATOM     11  H   UNL     1      33.809 -18.050 -22.587  0.00  0.00    +0.148 HD
ENDROOT
BRANCH  10  12
ATOM     12  C   UNL     1      35.268 -16.775 -23.385  0.00  0.00    +0.093 C 
ATOM     13  C   UNL     1      34.906 -17.001 -24.865  0.00  0.00    +0.029 C 
ATOM     14  C   UNL     1      34.528 -15.504 -23.095  0.00  0.00    -0.008 C 
ATOM     15  C   UNL     1      33.532 -16.347 -25.094  0.00  0.00    +0.028 C 
ATOM     16  C   UNL     1      33.551 -15.259 -24.068  0.00  0.00    -0.025 C 
ATOM     17  C   UNL     1      34.700 -14.643 -22.024  0.00  0.00    -0.003 C 
ATOM     18  C   UNL     1      32.722 -14.153 -23.985  0.00  0.00    -0.005 C 
ATOM     19  C   UNL     1      33.876 -13.519 -21.939  0.00  0.00    -0.000 C 
ATOM     20  C   UNL     1      32.893 -13.276 -22.912  0.00  0.00    -0.000 C 
ENDBRANCH  10  12
BRANCH   1  21
ATOM     21  C   UNL     1      35.754 -22.308 -18.547  0.00  0.00    +0.081 C 
ATOM     22  C   UNL     1      35.160 -22.535 -16.185  0.00  0.00    +0.061 C 
ATOM     23  C   UNL     1      34.711 -22.934 -17.597  0.00  0.00    +0.025 C 
ATOM     24  C   UNL     1      36.681 -22.435 -16.308  0.00  0.00    +0.115 C 
ATOM     25  C   UNL     1      36.866 -21.729 -17.648  0.00  0.00    +0.049 C 
BRANCH  24  26
ATOM     26  O   UNL     1      37.273 -23.727 -16.358  0.00  0.00    -0.384 OA
ATOM     27  H   UNL     1      37.372 -24.002 -17.284  0.00  0.00    +0.210 HD
ENDBRANCH  24  26
BRANCH  22  28
ATOM     28  C   UNL     1      34.673 -23.505 -15.120  0.00  0.00    +0.176 C 
BRANCH  28  29
ATOM     29  O   UNL     1      35.510 -23.391 -13.982  0.00  0.00    -0.230 OA
BRANCH  29  30
ATOM     30  S   UNL     1      36.140 -24.736 -13.295  0.00  0.00    +0.045 S 
ATOM     31  O   UNL     1      35.349 -25.070 -12.124  0.00  0.00    -0.056 OA
ATOM     32  O   UNL     1      36.324 -25.717 -14.350  0.00  0.00    -0.056 OA
BRANCH  30  33
ATOM     33  N   UNL     1      37.695 -24.246 -12.765  0.00  0.00    -0.204 NA
ATOM     34  H   UNL     1      38.379 -24.434 -13.498  0.00  0.00    +0.144 HD
ATOM     35  H   UNL     1      37.947 -24.764 -11.924  0.00  0.00    +0.144 HD
ENDBRANCH  30  33
ENDBRANCH  29  30
ENDBRANCH  28  29
ENDBRANCH  22  28
ENDBRANCH   1  21
TORSDOF 7
ENDMDL
MODEL 5
REMARK VINA RESULT:     -10.0      5.581      8.979
REMARK  Name = 16720766
REMARK  7 active torsions:
REMARK  status: ('A' for Active; 'I' for Inactive)
REMARK    1  A    between atoms: N_1  and  C_10
REMARK    2  A    between atoms: C_11  and  C_17
REMARK    3  A    between atoms: C_13  and  O_15
REMARK    4  A    between atoms: C_17  and  O_18
REMARK    5  A    between atoms: O_18  and  S_19
REMARK    6  A    between atoms: S_19  and  N_22
REMARK    7  A    between atoms: N_25  and  C_27
REMARK                            x       y       z     vdW  Elec       q    Type
REMARK                         _______ _______ _______ _____ _____    ______ ____
ROOT
ATOM      1  N   UNL     1      33.551 -14.213 -23.182  0.00  0.00    -0.276 N 
ATOM      2  N   UNL     1      32.125 -14.047 -21.245  0.00  0.00    -0.233 NA
ATOM      3  N   UNL     1      31.527 -11.752 -20.700  0.00  0.00    -0.233 NA
ATOM      4  C   UNL     1      32.819 -13.510 -22.264  0.00  0.00    +0.120 C 
ATOM      5  C   UNL     1      34.124 -13.342 -24.074  0.00  0.00    +0.062 C 
ATOM      6  C   UNL     1      32.927 -12.159 -22.572  0.00  0.00    +0.131 C 
ATOM      7  C   UNL     1      33.754 -12.062 -23.720  0.00  0.00    +0.004 C 
ATOM      8  C   UNL     1      32.245 -11.252 -21.745  0.00  0.00    +0.113 C 
ATOM      9  C   UNL     1      31.512 -13.092 -20.518  0.00  0.00    +0.252 C 
ATOM     10  N   UNL     1      32.293  -9.886 -21.977  0.00  0.00    -0.319 N 
ATOM     11  H   UNL     1      32.821  -9.563 -22.743  0.00  0.00    +0.148 HD
ENDROOT
BRANCH  10  12
ATOM     12  C   UNL     1      31.613  -8.909 -21.161  0.00  0.00    +0.093 C 
ATOM     13  C   UNL     1      32.461  -8.531 -19.933  0.00  0.00    +0.029 C 
ATOM     14  C   UNL     1      31.526  -7.593 -21.872  0.00  0.00    -0.008 C 
ATOM     15  C   UNL     1      33.349  -7.345 -20.350  0.00  0.00    +0.028 C 
ATOM     16  C   UNL     1      32.504  -6.705 -21.407  0.00  0.00    -0.025 C 
ATOM     17  C   UNL     1      30.651  -7.224 -22.881  0.00  0.00    -0.003 C 
ATOM     18  C   UNL     1      32.632  -5.436 -21.946  0.00  0.00    -0.005 C 
ATOM     19  C   UNL     1      30.765  -5.942 -23.422  0.00  0.00    -0.000 C 
ATOM     20  C   UNL     1      31.750  -5.054 -22.958  0.00  0.00    -0.000 C 
ENDBRANCH  10  12
BRANCH   1  21
ATOM     21  C   UNL     1      33.706 -15.665 -23.219  0.00  0.00    +0.081 C 
ATOM     22  C   UNL     1      35.692 -16.932 -22.560  0.00  0.00    +0.061 C 
ATOM     23  C   UNL     1      34.433 -16.262 -21.994  0.00  0.00    +0.025 C 
ATOM     24  C   UNL     1      35.265 -17.368 -23.963  0.00  0.00    +0.115 C 
ATOM     25  C   UNL     1      34.467 -16.167 -24.462  0.00  0.00    +0.049 C 
BRANCH  24  26
ATOM     26  O   UNL     1      34.426 -18.515 -23.905  0.00  0.00    -0.384 OA
ATOM     27  H   UNL     1      34.974 -19.312 -23.832  0.00  0.00    +0.210 HD
ENDBRANCH  24  26
BRANCH  22  28
ATOM     28  C   UNL     1      36.204 -18.057 -21.674  0.00  0.00    +0.176 C 
BRANCH  28  29
ATOM     29  O   UNL     1      35.150 -18.487 -20.829  0.00  0.00    -0.230 OA
BRANCH  29  30
ATOM     30  S   UNL     1      34.672 -20.052 -20.854  0.00  0.00    +0.045 S 
ATOM     31  O   UNL     1      33.340 -20.137 -20.281  0.00  0.00    -0.056 OA
ATOM     32  O   UNL     1      34.921 -20.561 -22.191  0.00  0.00    -0.056 OA
BRANCH  30  33
ATOM     33  N   UNL     1      35.761 -20.838 -19.788  0.00  0.00    -0.204 NA
ATOM     34  H   UNL     1      36.323 -21.509 -20.311  0.00  0.00    +0.144 HD
ATOM     35  H   UNL     1      35.234 -21.327 -19.065  0.00  0.00    +0.144 HD
ENDBRANCH  30  33
ENDBRANCH  29  30
ENDBRANCH  28  29
ENDBRANCH  22  28
ENDBRANCH   1  21
TORSDOF 7
ENDMDL
MODEL 6
REMARK VINA RESULT:     -10.0      6.747     10.389
REMARK  Name = 16720766
REMARK  7 active torsions:
REMARK  status: ('A' for Active; 'I' for Inactive)
REMARK    1  A    between atoms: N_1  and  C_10
REMARK    2  A    between atoms: C_11  and  C_17
REMARK    3  A    between atoms: C_13  and  O_15
REMARK    4  A    between atoms: C_17  and  O_18
REMARK    5  A    between atoms: O_18  and  S_19
REMARK    6  A    between atoms: S_19  and  N_22
REMARK    7  A    between atoms: N_25  and  C_27
REMARK                            x       y       z     vdW  Elec       q    Type
REMARK                         _______ _______ _______ _____ _____    ______ ____
ROOT
ATOM      1  N   UNL     1      34.632 -15.927 -22.324  0.00  0.00    -0.276 N 
ATOM      2  N   UNL     1      35.099 -17.809 -23.758  0.00  0.00    -0.233 NA
ATOM      3  N   UNL     1      35.328 -19.901 -22.536  0.00  0.00    -0.233 NA
ATOM      4  C   UNL     1      34.880 -17.254 -22.552  0.00  0.00    +0.120 C 
ATOM      5  C   UNL     1      34.459 -15.720 -20.979  0.00  0.00    +0.062 C 
ATOM      6  C   UNL     1      34.866 -17.911 -21.328  0.00  0.00    +0.131 C 
ATOM      7  C   UNL     1      34.598 -16.932 -20.337  0.00  0.00    +0.004 C 
ATOM      8  C   UNL     1      35.101 -19.296 -21.336  0.00  0.00    +0.113 C 
ATOM      9  C   UNL     1      35.313 -19.135 -23.651  0.00  0.00    +0.252 C 
ATOM     10  N   UNL     1      35.104 -20.035 -20.163  0.00  0.00    -0.319 N 
ATOM     11  H   UNL     1      34.936 -19.561 -19.316  0.00  0.00    +0.148 HD
ENDROOT
BRANCH  10  12
ATOM     12  C   UNL     1      35.340 -21.457 -20.112  0.00  0.00    +0.093 C 
ATOM     13  C   UNL     1      36.807 -21.760 -19.755  0.00  0.00    +0.029 C 
ATOM     14  C   UNL     1      34.625 -22.071 -18.947  0.00  0.00    -0.008 C 
ATOM     15  C   UNL     1      36.887 -21.842 -18.221  0.00  0.00    +0.028 C 
ATOM     16  C   UNL     1      35.503 -22.296 -17.879  0.00  0.00    -0.025 C 
ATOM     17  C   UNL     1      33.278 -22.383 -18.841  0.00  0.00    -0.003 C 
ATOM     18  C   UNL     1      35.052 -22.828 -16.683  0.00  0.00    -0.005 C 
ATOM     19  C   UNL     1      32.818 -22.931 -17.642  0.00  0.00    -0.000 C 
ATOM     20  C   UNL     1      33.699 -23.152 -16.570  0.00  0.00    -0.000 C 
ENDBRANCH  10  12
BRANCH   1  21
ATOM     21  C   UNL     1      34.562 -14.884 -23.344  0.00  0.00    +0.081 C 
ATOM     22  C   UNL     1      33.236 -12.831 -23.234  0.00  0.00    +0.061 C 
ATOM     23  C   UNL     1      34.570 -13.444 -22.788  0.00  0.00    +0.025 C 
ATOM     24  C   UNL     1      32.937 -13.548 -24.552  0.00  0.00    +0.115 C 
ATOM     25  C   UNL     1      33.315 -14.993 -24.244  0.00  0.00    +0.049 C 
BRANCH  24  26
ATOM     26  O   UNL     1      33.758 -13.047 -25.600  0.00  0.00    -0.384 OA
ATOM     27  H   UNL     1      34.670 -13.351 -25.469  0.00  0.00    +0.210 HD
ENDBRANCH  24  26
BRANCH  22  28
ATOM     28  C   UNL     1      33.294 -11.315 -23.336  0.00  0.00    +0.176 C 
BRANCH  28  29
ATOM     29  O   UNL     1      32.368 -10.761 -22.416  0.00  0.00    -0.230 OA
BRANCH  29  30
ATOM     30  S   UNL     1      32.340  -9.145 -22.161  0.00  0.00    +0.045 S 
ATOM     31  O   UNL     1      33.624  -8.593 -22.553  0.00  0.00    -0.056 OA
ATOM     32  O   UNL     1      31.118  -8.633 -22.755  0.00  0.00    -0.056 OA
BRANCH  30  33
ATOM     33  N   UNL     1      32.193  -8.994 -20.459  0.00  0.00    -0.204 NA
ATOM     34  H   UNL     1      31.995  -9.908 -20.053  0.00  0.00    +0.144 HD
ATOM     35  H   UNL     1      31.432  -8.352 -20.240  0.00  0.00    +0.144 HD
ENDBRANCH  30  33
ENDBRANCH  29  30
ENDBRANCH  28  29
ENDBRANCH  22  28
ENDBRANCH   1  21
TORSDOF 7
ENDMDL
MODEL 7
REMARK VINA RESULT:      -9.6      5.429      9.724
REMARK  Name = 16720766
REMARK  7 active torsions:
REMARK  status: ('A' for Active; 'I' for Inactive)
REMARK    1  A    between atoms: N_1  and  C_10
REMARK    2  A    between atoms: C_11  and  C_17
REMARK    3  A    between atoms: C_13  and  O_15
REMARK    4  A    between atoms: C_17  and  O_18
REMARK    5  A    between atoms: O_18  and  S_19
REMARK    6  A    between atoms: S_19  and  N_22
REMARK    7  A    between atoms: N_25  and  C_27
REMARK                            x       y       z     vdW  Elec       q    Type
REMARK                         _______ _______ _______ _____ _____    ______ ____
ROOT
ATOM      1  N   UNL     1      34.297 -19.865 -20.738  0.00  0.00    -0.276 N 
ATOM      2  N   UNL     1      36.115 -20.899 -19.537  0.00  0.00    -0.233 NA
ATOM      3  N   UNL     1      35.373 -22.639 -18.006  0.00  0.00    -0.233 NA
ATOM      4  C   UNL     1      34.811 -20.758 -19.837  0.00  0.00    +0.120 C 
ATOM      5  C   UNL     1      32.933 -19.999 -20.787  0.00  0.00    +0.062 C 
ATOM      6  C   UNL     1      33.753 -21.480 -19.297  0.00  0.00    +0.131 C 
ATOM      7  C   UNL     1      32.568 -20.993 -19.904  0.00  0.00    +0.004 C 
ATOM      8  C   UNL     1      34.063 -22.461 -18.340  0.00  0.00    +0.113 C 
ATOM      9  C   UNL     1      36.298 -21.863 -18.613  0.00  0.00    +0.252 C 
ATOM     10  N   UNL     1      33.074 -23.231 -17.749  0.00  0.00    -0.319 N 
ATOM     11  H   UNL     1      32.140 -23.072 -18.017  0.00  0.00    +0.148 HD
ENDROOT
BRANCH  10  12
ATOM     12  C   UNL     1      33.334 -24.250 -16.762  0.00  0.00    +0.093 C 
ATOM     13  C   UNL     1      34.620 -23.939 -15.974  0.00  0.00    +0.029 C 
ATOM     14  C   UNL     1      32.307 -24.206 -15.671  0.00  0.00    -0.008 C 
ATOM     15  C   UNL     1      34.208 -23.083 -14.764  0.00  0.00    +0.028 C 
ATOM     16  C   UNL     1      32.806 -23.552 -14.537  0.00  0.00    -0.025 C 
ATOM     17  C   UNL     1      31.010 -24.694 -15.700  0.00  0.00    -0.003 C 
ATOM     18  C   UNL     1      32.016 -23.365 -13.415  0.00  0.00    -0.005 C 
ATOM     19  C   UNL     1      30.212 -24.521 -14.568  0.00  0.00    -0.000 C 
ATOM     20  C   UNL     1      30.711 -23.860 -13.434  0.00  0.00    -0.000 C 
ENDBRANCH  10  12
BRANCH   1  21
ATOM     21  C   UNL     1      35.070 -18.911 -21.529  0.00  0.00    +0.081 C 
ATOM     22  C   UNL     1      34.407 -16.629 -22.109  0.00  0.00    +0.061 C 
ATOM     23  C   UNL     1      35.045 -17.464 -20.991  0.00  0.00    +0.025 C 
ATOM     24  C   UNL     1      34.813 -17.368 -23.384  0.00  0.00    +0.115 C 
ATOM     25  C   UNL     1      34.620 -18.833 -23.002  0.00  0.00    +0.049 C 
BRANCH  24  26
ATOM     26  O   UNL     1      36.179 -17.128 -23.698  0.00  0.00    -0.384 OA
ATOM     27  H   UNL     1      36.632 -17.975 -23.839  0.00  0.00    +0.210 HD
ENDBRANCH  24  26
BRANCH  22  28
ATOM     28  C   UNL     1      34.829 -15.168 -22.061  0.00  0.00    +0.176 C 
BRANCH  28  29
ATOM     29  O   UNL     1      34.793 -14.641 -23.376  0.00  0.00    -0.230 OA
BRANCH  29  30
ATOM     30  S   UNL     1      33.518 -13.732 -23.856  0.00  0.00    +0.045 S 
ATOM     31  O   UNL     1      32.531 -13.724 -22.791  0.00  0.00    -0.056 OA
ATOM     32  O   UNL     1      34.046 -12.480 -24.366  0.00  0.00    -0.056 OA
BRANCH  30  33
ATOM     33  N   UNL     1      32.864 -14.599 -25.182  0.00  0.00    -0.204 NA
ATOM     34  H   UNL     1      31.847 -14.626 -25.102  0.00  0.00    +0.144 HD
ATOM     35  H   UNL     1      33.230 -15.550 -25.180  0.00  0.00    +0.144 HD
ENDBRANCH  30  33
ENDBRANCH  29  30
ENDBRANCH  28  29
ENDBRANCH  22  28
ENDBRANCH   1  21
TORSDOF 7
ENDMDL
MODEL 8
REMARK VINA RESULT:      -9.3      5.080     10.119
REMARK  Name = 16720766
REMARK  7 active torsions:
REMARK  status: ('A' for Active; 'I' for Inactive)
REMARK    1  A    between atoms: N_1  and  C_10
REMARK    2  A    between atoms: C_11  and  C_17
REMARK    3  A    between atoms: C_13  and  O_15
REMARK    4  A    between atoms: C_17  and  O_18
REMARK    5  A    between atoms: O_18  and  S_19
REMARK    6  A    between atoms: S_19  and  N_22
REMARK    7  A    between atoms: N_25  and  C_27
REMARK                            x       y       z     vdW  Elec       q    Type
REMARK                         _______ _______ _______ _____ _____    ______ ____
ROOT
ATOM      1  N   UNL     1      36.019 -21.135 -19.515  0.00  0.00    -0.276 N 
ATOM      2  N   UNL     1      33.999 -22.383 -19.099  0.00  0.00    -0.233 NA
ATOM      3  N   UNL     1      34.065 -23.627 -17.008  0.00  0.00    -0.233 NA
ATOM      4  C   UNL     1      35.237 -21.975 -18.769  0.00  0.00    +0.120 C 
ATOM      5  C   UNL     1      37.217 -20.937 -18.876  0.00  0.00    +0.062 C 
ATOM      6  C   UNL     1      35.948 -22.323 -17.627  0.00  0.00    +0.131 C 
ATOM      7  C   UNL     1      37.200 -21.661 -17.703  0.00  0.00    +0.004 C 
ATOM      8  C   UNL     1      35.321 -23.188 -16.715  0.00  0.00    +0.113 C 
ATOM      9  C   UNL     1      33.493 -23.206 -18.159  0.00  0.00    +0.252 C 
ATOM     10  N   UNL     1      35.953 -23.588 -15.548  0.00  0.00    -0.319 N 
ATOM     11  H   UNL     1      36.860 -23.248 -15.372  0.00  0.00    +0.148 HD
ENDROOT
BRANCH  10  12
ATOM     12  C   UNL     1      35.358 -24.473 -14.577  0.00  0.00    +0.093 C 
ATOM     13  C   UNL     1      35.438 -25.938 -15.045  0.00  0.00    +0.029 C 
ATOM     14  C   UNL     1      36.184 -24.522 -13.328  0.00  0.00    -0.008 C 
ATOM     15  C   UNL     1      36.771 -26.503 -14.523  0.00  0.00    +0.028 C 
ATOM     16  C   UNL     1      36.978 -25.675 -13.294  0.00  0.00    -0.025 C 
ATOM     17  C   UNL     1      36.240 -23.587 -12.306  0.00  0.00    -0.003 C 
ATOM     18  C   UNL     1      37.848 -25.913 -12.244  0.00  0.00    -0.005 C 
ATOM     19  C   UNL     1      37.107 -23.826 -11.237  0.00  0.00    -0.000 C 
ATOM     20  C   UNL     1      37.906 -24.980 -11.207  0.00  0.00    -0.000 C 
ENDBRANCH  10  12
BRANCH   1  21
ATOM     21  C   UNL     1      35.650 -20.537 -20.796  0.00  0.00    +0.081 C 
ATOM     22  C   UNL     1      35.174 -18.174 -21.213  0.00  0.00    +0.061 C 
ATOM     23  C   UNL     1      36.326 -19.180 -21.088  0.00  0.00    +0.025 C 
ATOM     24  C   UNL     1      34.020 -19.018 -21.757  0.00  0.00    +0.115 C 
ATOM     25  C   UNL     1      34.132 -20.306 -20.947  0.00  0.00    +0.049 C 
BRANCH  24  26
ATOM     26  O   UNL     1      34.203 -19.300 -23.139  0.00  0.00    -0.384 OA
ATOM     27  H   UNL     1      34.923 -18.750 -23.487  0.00  0.00    +0.210 HD
ENDBRANCH  24  26
BRANCH  22  28
ATOM     28  C   UNL     1      35.538 -16.971 -22.070  0.00  0.00    +0.176 C 
BRANCH  28  29
ATOM     29  O   UNL     1      34.345 -16.317 -22.468  0.00  0.00    -0.230 OA
BRANCH  29  30
ATOM     30  S   UNL     1      33.956 -14.866 -21.818  0.00  0.00    +0.045 S 
ATOM     31  O   UNL     1      32.519 -14.684 -21.925  0.00  0.00    -0.056 OA
ATOM     32  O   UNL     1      34.604 -14.783 -20.522  0.00  0.00    -0.056 OA
BRANCH  30  33
ATOM     33  N   UNL     1      34.715 -13.729 -22.853  0.00  0.00    -0.204 NA
ATOM     34  H   UNL     1      35.379 -13.171 -22.316  0.00  0.00    +0.144 HD
ATOM     35  H   UNL     1      34.009 -13.117 -23.261  0.00  0.00    +0.144 HD
ENDBRANCH  30  33
ENDBRANCH  29  30
ENDBRANCH  28  29
ENDBRANCH  22  28
ENDBRANCH   1  21
TORSDOF 7
ENDMDL
MODEL 9
REMARK VINA RESULT:      -9.1      3.846      6.675
REMARK  Name = 16720766
REMARK  7 active torsions:
REMARK  status: ('A' for Active; 'I' for Inactive)
REMARK    1  A    between atoms: N_1  and  C_10
REMARK    2  A    between atoms: C_11  and  C_17
REMARK    3  A    between atoms: C_13  and  O_15
REMARK    4  A    between atoms: C_17  and  O_18
REMARK    5  A    between atoms: O_18  and  S_19
REMARK    6  A    between atoms: S_19  and  N_22
REMARK    7  A    between atoms: N_25  and  C_27
REMARK                            x       y       z     vdW  Elec       q    Type
REMARK                         _______ _______ _______ _____ _____    ______ ____
ROOT
ATOM      1  N   UNL     1      34.729 -16.155 -22.573  0.00  0.00    -0.276 N 
ATOM      2  N   UNL     1      33.441 -16.115 -20.535  0.00  0.00    -0.233 NA
ATOM      3  N   UNL     1      32.092 -14.103 -20.303  0.00  0.00    -0.233 NA
ATOM      4  C   UNL     1      33.844 -15.580 -21.701  0.00  0.00    +0.120 C 
ATOM      5  C   UNL     1      34.906 -15.330 -23.655  0.00  0.00    +0.062 C 
ATOM      6  C   UNL     1      33.446 -14.361 -22.235  0.00  0.00    +0.131 C 
ATOM      7  C   UNL     1      34.123 -14.211 -23.472  0.00  0.00    +0.004 C 
ATOM      8  C   UNL     1      32.529 -13.600 -21.492  0.00  0.00    +0.113 C 
ATOM      9  C   UNL     1      32.566 -15.305 -19.906  0.00  0.00    +0.252 C 
ATOM     10  N   UNL     1      32.074 -12.371 -21.947  0.00  0.00    -0.319 N 
ATOM     11  H   UNL     1      32.411 -12.042 -22.811  0.00  0.00    +0.148 HD
ENDROOT
BRANCH  10  12
ATOM     12  C   UNL     1      31.134 -11.548 -21.226  0.00  0.00    +0.093 C 
ATOM     13  C   UNL     1      31.278 -11.748 -19.706  0.00  0.00    +0.029 C 
ATOM     14  C   UNL     1      31.486 -10.097 -21.363  0.00  0.00    -0.008 C 
ATOM     15  C   UNL     1      32.320 -10.727 -19.217  0.00  0.00    +0.028 C 
ATOM     16  C   UNL     1      32.151  -9.632 -20.222  0.00  0.00    -0.025 C 
ATOM     17  C   UNL     1      31.251  -9.261 -22.443  0.00  0.00    -0.003 C 
ATOM     18  C   UNL     1      32.601  -8.325 -20.141  0.00  0.00    -0.005 C 
ATOM     19  C   UNL     1      31.691  -7.938 -22.364  0.00  0.00    -0.000 C 
ATOM     20  C   UNL     1      32.362  -7.473 -21.222  0.00  0.00    -0.000 C 
ENDBRANCH  10  12
BRANCH   1  21
ATOM     21  C   UNL     1      35.390 -17.445 -22.391  0.00  0.00    +0.081 C 
ATOM     22  C   UNL     1      34.623 -19.284 -20.973  0.00  0.00    +0.061 C 
ATOM     23  C   UNL     1      34.433 -18.656 -22.359  0.00  0.00    +0.025 C 
ATOM     24  C   UNL     1      36.081 -18.968 -20.634  0.00  0.00    +0.115 C 
ATOM     25  C   UNL     1      36.231 -17.524 -21.101  0.00  0.00    +0.049 C 
BRANCH  24  26
ATOM     26  O   UNL     1      36.966 -19.807 -21.367  0.00  0.00    -0.384 OA
ATOM     27  H   UNL     1      36.451 -20.398 -21.938  0.00  0.00    +0.210 HD
ENDBRANCH  24  26
BRANCH  22  28
ATOM     28  C   UNL     1      34.273 -20.764 -20.948  0.00  0.00    +0.176 C 
BRANCH  28  29
ATOM     29  O   UNL     1      35.000 -21.387 -19.902  0.00  0.00    -0.230 OA
BRANCH  29  30
ATOM     30  S   UNL     1      34.215 -22.307 -18.799  0.00  0.00    +0.045 S 
ATOM     31  O   UNL     1      35.043 -22.409 -17.610  0.00  0.00    -0.056 OA
ATOM     32  O   UNL     1      32.859 -21.799 -18.697  0.00  0.00    -0.056 OA
BRANCH  30  33
ATOM     33  N   UNL     1      34.136 -23.856 -19.528  0.00  0.00    -0.204 NA
ATOM     34  H   UNL     1      33.175 -24.196 -19.501  0.00  0.00    +0.144 HD
ATOM     35  H   UNL     1      34.739 -24.502 -19.019  0.00  0.00    +0.144 HD
ENDBRANCH  30  33
ENDBRANCH  29  30
ENDBRANCH  28  29
ENDBRANCH  22  28
ENDBRANCH   1  21
TORSDOF 7
ENDMDL
