MODEL 1
REMARK VINA RESULT:     -11.4      0.000      0.000
REMARK  Name = 24780387
REMARK  3 active torsions:
REMARK  status: ('A' for Active; 'I' for Inactive)
REMARK    1  A    between atoms: N_3  and  C_25
REMARK    2  A    between atoms: C_18  and  O_23
REMARK    3  A    between atoms: C_25  and  N_26
REMARK                            x       y       z     vdW  Elec       q    Type
REMARK                         _______ _______ _______ _____ _____    ______ ____
ROOT
ATOM      1  O   UNL     1      32.731 -22.578 -18.847  0.00  0.00    -0.270 OA
ATOM      2  O   UNL     1      36.814 -23.020 -16.729  0.00  0.00    -0.270 OA
ATOM      3  N   UNL     1      34.968 -22.702 -18.133  0.00  0.00    -0.244 N 
ATOM      4  N   UNL     1      33.705 -24.187 -12.660  0.00  0.00    -0.353 N 
ATOM      5  C   UNL     1      32.161 -23.321 -15.960  0.00  0.00    -0.020 A 
ATOM      6  C   UNL     1      32.193 -23.687 -14.606  0.00  0.00    -0.010 A 
ATOM      7  C   UNL     1      33.343 -23.126 -16.622  0.00  0.00    +0.054 A 
ATOM      8  C   UNL     1      30.756 -23.252 -16.462  0.00  0.00    +0.027 C 
ATOM      9  C   UNL     1      30.799 -23.902 -14.086  0.00  0.00    +0.028 C 
ATOM     10  C   UNL     1      33.426 -23.835 -13.956  0.00  0.00    +0.052 A 
ATOM     11  C   UNL     1      34.568 -23.267 -15.970  0.00  0.00    +0.059 A 
ATOM     12  C   UNL     1      29.971 -23.162 -15.145  0.00  0.00    +0.009 C 
ATOM     13  C   UNL     1      34.654 -23.627 -14.612  0.00  0.00    +0.024 A 
ATOM     14  C   UNL     1      33.600 -22.765 -18.015  0.00  0.00    +0.253 C 
ATOM     15  C   UNL     1      35.618 -22.990 -16.951  0.00  0.00    +0.253 C 
ATOM     16  C   UNL     1      35.688 -23.861 -13.641  0.00  0.00    +0.051 A 
ATOM     17  C   UNL     1      35.061 -24.206 -12.440  0.00  0.00    +0.060 A 
ATOM     18  C   UNL     1      37.099 -23.817 -13.652  0.00  0.00    +0.140 C 
ATOM     19  C   UNL     1      35.765 -24.507 -11.267  0.00  0.00    +0.017 C 
ATOM     20  C   UNL     1      37.818 -24.114 -12.487  0.00  0.00    +0.037 C 
ATOM     21  C   UNL     1      37.158 -24.454 -11.311  0.00  0.00    +0.005 C 
ATOM     22  H   UNL     1      33.026 -24.396 -11.978  0.00  0.00    +0.166 HD
ENDROOT
BRANCH  18  23
ATOM     23  O   UNL     1      37.868 -23.490 -14.733  0.00  0.00    -0.471 OA
ATOM     24  C   UNL     1      38.963 -24.351 -15.028  0.00  0.00    +0.252 C 
ENDBRANCH  18  23
BRANCH   3  25
ATOM     25  C   UNL     1      35.667 -22.372 -19.361  0.00  0.00    +0.028 C 
BRANCH  25  26
ATOM     26  N   UNL     1      35.482 -20.951 -19.649  0.00  0.00    +0.396 N 
ATOM     27  N   UNL     1      35.439 -18.666 -21.420  0.00  0.00    +0.383 N 
ATOM     28  C   UNL     1      36.725 -20.355 -20.156  0.00  0.00    -0.098 C 
ATOM     29  C   UNL     1      34.390 -20.752 -20.610  0.00  0.00    -0.098 C 
ATOM     30  C   UNL     1      36.532 -18.866 -20.460  0.00  0.00    -0.101 C 
ATOM     31  C   UNL     1      34.196 -19.262 -20.913  0.00  0.00    -0.101 C 
ATOM     32  C   UNL     1      35.254 -17.244 -21.706  0.00  0.00    -0.101 C 
ATOM     33  H   UNL     1      35.234 -20.483 -18.778  0.00  0.00    -0.077 HD
ATOM     34  H   UNL     1      35.688 -19.133 -22.291  0.00  0.00    -0.080 HD
ENDBRANCH  25  26
ENDBRANCH   3  25
TORSDOF 3
ENDMDL
MODEL 2
REMARK VINA RESULT:     -10.1      2.718      5.894
REMARK  Name = 24780387
REMARK  3 active torsions:
REMARK  status: ('A' for Active; 'I' for Inactive)
REMARK    1  A    between atoms: N_3  and  C_25
REMARK    2  A    between atoms: C_18  and  O_23
REMARK    3  A    between atoms: C_25  and  N_26
REMARK                            x       y       z     vdW  Elec       q    Type
REMARK                         _______ _______ _______ _____ _____    ______ ____
ROOT
ATOM      1  O   UNL     1      31.633 -23.028 -17.224  0.00  0.00    -0.270 OA
ATOM      2  O   UNL     1      33.633 -25.101 -13.611  0.00  0.00    -0.270 OA
ATOM      3  N   UNL     1      32.268 -24.176 -15.273  0.00  0.00    -0.244 N 
ATOM      4  N   UNL     1      37.974 -23.366 -16.002  0.00  0.00    -0.353 N 
ATOM      5  C   UNL     1      34.632 -22.682 -17.545  0.00  0.00    -0.020 A 
ATOM      6  C   UNL     1      36.029 -22.653 -17.427  0.00  0.00    -0.010 A 
ATOM      7  C   UNL     1      33.897 -23.305 -16.573  0.00  0.00    +0.054 A 
ATOM      8  C   UNL     1      34.183 -21.942 -18.763  0.00  0.00    +0.027 C 
ATOM      9  C   UNL     1      36.638 -21.880 -18.564  0.00  0.00    +0.028 C 
ATOM     10  C   UNL     1      36.647 -23.270 -16.330  0.00  0.00    +0.052 A 
ATOM     11  C   UNL     1      34.515 -23.923 -15.485  0.00  0.00    +0.059 A 
ATOM     12  C   UNL     1      35.485 -21.885 -19.576  0.00  0.00    +0.009 C 
ATOM     13  C   UNL     1      35.914 -23.929 -15.325  0.00  0.00    +0.024 A 
ATOM     14  C   UNL     1      32.451 -23.465 -16.435  0.00  0.00    +0.253 C 
ATOM     15  C   UNL     1      33.458 -24.488 -14.646  0.00  0.00    +0.253 C 
ATOM     16  C   UNL     1      36.869 -24.436 -14.379  0.00  0.00    +0.051 A 
ATOM     17  C   UNL     1      38.140 -24.067 -14.832  0.00  0.00    +0.060 A 
ATOM     18  C   UNL     1      36.794 -25.173 -13.177  0.00  0.00    +0.140 C 
ATOM     19  C   UNL     1      39.320 -24.394 -14.153  0.00  0.00    +0.017 C 
ATOM     20  C   UNL     1      37.965 -25.509 -12.486  0.00  0.00    +0.037 C 
ATOM     21  C   UNL     1      39.211 -25.123 -12.969  0.00  0.00    +0.005 C 
ATOM     22  H   UNL     1      38.711 -22.984 -16.533  0.00  0.00    +0.166 HD
ENDROOT
BRANCH  18  23
ATOM     23  O   UNL     1      35.639 -25.620 -12.600  0.00  0.00    -0.471 OA
ATOM     24  C   UNL     1      35.482 -25.381 -11.205  0.00  0.00    +0.252 C 
ENDBRANCH  18  23
BRANCH   3  25
ATOM     25  C   UNL     1      30.972 -24.563 -14.748  0.00  0.00    +0.028 C 
BRANCH  25  26
ATOM     26  N   UNL     1      29.934 -23.774 -15.409  0.00  0.00    +0.396 N 
ATOM     27  N   UNL     1      27.190 -22.970 -15.836  0.00  0.00    +0.383 N 
ATOM     28  C   UNL     1      28.984 -24.647 -16.110  0.00  0.00    -0.098 C 
ATOM     29  C   UNL     1      29.230 -22.923 -14.441  0.00  0.00    -0.098 C 
ATOM     30  C   UNL     1      27.894 -23.821 -16.802  0.00  0.00    -0.101 C 
ATOM     31  C   UNL     1      28.141 -22.097 -15.134  0.00  0.00    -0.101 C 
ATOM     32  C   UNL     1      26.154 -22.181 -16.499  0.00  0.00    -0.101 C 
ATOM     33  H   UNL     1      30.386 -23.173 -16.097  0.00  0.00    -0.077 HD
ATOM     34  H   UNL     1      26.737 -23.570 -15.148  0.00  0.00    -0.080 HD
ENDBRANCH  25  26
ENDBRANCH   3  25
TORSDOF 3
ENDMDL
MODEL 3
REMARK VINA RESULT:      -9.6      1.413      4.449
REMARK  Name = 24780387
REMARK  3 active torsions:
REMARK  status: ('A' for Active; 'I' for Inactive)
REMARK    1  A    between atoms: N_3  and  C_25
REMARK    2  A    between atoms: C_18  and  O_23
REMARK    3  A    between atoms: C_25  and  N_26
REMARK                            x       y       z     vdW  Elec       q    Type
REMARK                         _______ _______ _______ _____ _____    ______ ____
ROOT
ATOM      1  O   UNL     1      36.812 -22.185 -18.611  0.00  0.00    -0.270 OA
ATOM      2  O   UNL     1      32.271 -22.772 -17.987  0.00  0.00    -0.270 OA
ATOM      3  N   UNL     1      34.468 -22.356 -18.681  0.00  0.00    -0.244 N 
ATOM      4  N   UNL     1      33.901 -24.244 -13.217  0.00  0.00    -0.353 N 
ATOM      5  C   UNL     1      36.426 -23.209 -15.780  0.00  0.00    -0.020 A 
ATOM      6  C   UNL     1      35.959 -23.658 -14.536  0.00  0.00    -0.010 A 
ATOM      7  C   UNL     1      35.520 -22.936 -16.769  0.00  0.00    +0.054 A 
ATOM      8  C   UNL     1      37.913 -23.065 -15.772  0.00  0.00    +0.027 C 
ATOM      9  C   UNL     1      37.105 -23.847 -13.580  0.00  0.00    +0.028 C 
ATOM     10  C   UNL     1      34.583 -23.830 -14.331  0.00  0.00    +0.052 A 
ATOM     11  C   UNL     1      34.152 -23.114 -16.564  0.00  0.00    +0.059 A 
ATOM     12  C   UNL     1      38.291 -23.916 -14.551  0.00  0.00    +0.009 C 
ATOM     13  C   UNL     1      33.633 -23.569 -15.337  0.00  0.00    +0.024 A 
ATOM     14  C   UNL     1      35.724 -22.445 -18.130  0.00  0.00    +0.253 C 
ATOM     15  C   UNL     1      33.473 -22.739 -17.805  0.00  0.00    +0.253 C 
ATOM     16  C   UNL     1      32.343 -23.858 -14.774  0.00  0.00    +0.051 A 
ATOM     17  C   UNL     1      32.548 -24.275 -13.455  0.00  0.00    +0.060 A 
ATOM     18  C   UNL     1      31.013 -23.810 -15.244  0.00  0.00    +0.140 C 
ATOM     19  C   UNL     1      31.504 -24.641 -12.596  0.00  0.00    +0.017 C 
ATOM     20  C   UNL     1      29.957 -24.173 -14.398  0.00  0.00    +0.037 C 
ATOM     21  C   UNL     1      30.201 -24.583 -13.092  0.00  0.00    +0.005 C 
ATOM     22  H   UNL     1      34.322 -24.489 -12.361  0.00  0.00    +0.166 HD
ENDROOT
BRANCH  18  23
ATOM     23  O   UNL     1      30.636 -23.436 -16.503  0.00  0.00    -0.471 OA
ATOM     24  C   UNL     1      29.264 -23.103 -16.693  0.00  0.00    +0.252 C 
ENDBRANCH  18  23
BRANCH   3  25
ATOM     25  C   UNL     1      34.200 -21.907 -20.035  0.00  0.00    +0.028 C 
BRANCH  25  26
ATOM     26  N   UNL     1      34.603 -20.508 -20.162  0.00  0.00    +0.396 N 
ATOM     27  N   UNL     1      35.070 -18.090 -21.677  0.00  0.00    +0.383 N 
ATOM     28  C   UNL     1      35.763 -20.378 -21.053  0.00  0.00    -0.098 C 
ATOM     29  C   UNL     1      33.488 -19.687 -20.651  0.00  0.00    -0.098 C 
ATOM     30  C   UNL     1      36.185 -18.911 -21.190  0.00  0.00    -0.101 C 
ATOM     31  C   UNL     1      33.910 -18.220 -20.786  0.00  0.00    -0.101 C 
ATOM     32  C   UNL     1      35.474 -16.691 -21.803  0.00  0.00    -0.101 C 
ATOM     33  H   UNL     1      34.869 -20.171 -19.238  0.00  0.00    -0.077 HD
ATOM     34  H   UNL     1      34.804 -18.425 -22.602  0.00  0.00    -0.080 HD
ENDBRANCH  25  26
ENDBRANCH   3  25
TORSDOF 3
ENDMDL
MODEL 4
REMARK VINA RESULT:      -9.5      2.594      7.277
REMARK  Name = 24780387
REMARK  3 active torsions:
REMARK  status: ('A' for Active; 'I' for Inactive)
REMARK    1  A    between atoms: N_3  and  C_25
REMARK    2  A    between atoms: C_18  and  O_23
REMARK    3  A    between atoms: C_25  and  N_26
REMARK                            x       y       z     vdW  Elec       q    Type
REMARK                         _______ _______ _______ _____ _____    ______ ____
ROOT
ATOM      1  O   UNL     1      37.141 -23.412 -15.696  0.00  0.00    -0.270 OA
ATOM      2  O   UNL     1      33.360 -24.377 -13.222  0.00  0.00    -0.270 OA
ATOM      3  N   UNL     1      35.481 -24.014 -14.145  0.00  0.00    -0.244 N 
ATOM      4  N   UNL     1      31.004 -22.699 -17.606  0.00  0.00    -0.353 N 
ATOM      5  C   UNL     1      34.744 -22.717 -17.424  0.00  0.00    -0.020 A 
ATOM      6  C   UNL     1      33.480 -22.510 -17.998  0.00  0.00    -0.010 A 
ATOM      7  C   UNL     1      34.821 -23.221 -16.154  0.00  0.00    +0.054 A 
ATOM      8  C   UNL     1      35.831 -22.366 -18.387  0.00  0.00    +0.027 C 
ATOM      9  C   UNL     1      33.618 -22.006 -19.407  0.00  0.00    +0.028 C 
ATOM     10  C   UNL     1      32.326 -22.809 -17.260  0.00  0.00    +0.052 A 
ATOM     11  C   UNL     1      33.671 -23.511 -15.421  0.00  0.00    +0.059 A 
ATOM     12  C   UNL     1      35.068 -21.502 -19.401  0.00  0.00    +0.009 C 
ATOM     13  C   UNL     1      32.380 -23.315 -15.948  0.00  0.00    +0.024 A 
ATOM     14  C   UNL     1      35.987 -23.547 -15.334  0.00  0.00    +0.253 C 
ATOM     15  C   UNL     1      34.101 -24.023 -14.119  0.00  0.00    +0.253 C 
ATOM     16  C   UNL     1      31.021 -23.493 -15.516  0.00  0.00    +0.051 A 
ATOM     17  C   UNL     1      30.193 -23.100 -16.572  0.00  0.00    +0.060 A 
ATOM     18  C   UNL     1      30.398 -23.950 -14.334  0.00  0.00    +0.140 C 
ATOM     19  C   UNL     1      28.795 -23.141 -16.505  0.00  0.00    +0.017 C 
ATOM     20  C   UNL     1      29.001 -23.997 -14.251  0.00  0.00    +0.037 C 
ATOM     21  C   UNL     1      28.211 -23.597 -15.323  0.00  0.00    +0.005 C 
ATOM     22  H   UNL     1      30.678 -22.374 -18.477  0.00  0.00    +0.166 HD
ENDROOT
BRANCH  18  23
ATOM     23  O   UNL     1      31.054 -24.362 -13.208  0.00  0.00    -0.471 OA
ATOM     24  C   UNL     1      30.433 -25.388 -12.440  0.00  0.00    +0.252 C 
ENDBRANCH  18  23
BRANCH   3  25
ATOM     25  C   UNL     1      36.295 -24.456 -13.029  0.00  0.00    +0.028 C 
BRANCH  25  26
ATOM     26  N   UNL     1      37.556 -24.990 -13.539  0.00  0.00    +0.396 N 
ATOM     27  N   UNL     1      39.866 -26.724 -13.397  0.00  0.00    +0.383 N 
ATOM     28  C   UNL     1      38.654 -24.723 -12.600  0.00  0.00    -0.098 C 
ATOM     29  C   UNL     1      37.445 -26.430 -13.801  0.00  0.00    -0.098 C 
ATOM     30  C   UNL     1      39.977 -25.284 -13.134  0.00  0.00    -0.101 C 
ATOM     31  C   UNL     1      38.768 -26.991 -14.335  0.00  0.00    -0.101 C 
ATOM     32  C   UNL     1      41.127 -27.256 -13.908  0.00  0.00    -0.101 C 
ATOM     33  H   UNL     1      37.765 -24.518 -14.419  0.00  0.00    -0.077 HD
ATOM     34  H   UNL     1      39.659 -27.196 -12.517  0.00  0.00    -0.080 HD
ENDBRANCH  25  26
ENDBRANCH   3  25
TORSDOF 3
ENDMDL
