MODEL 1
REMARK VINA RESULT:     -11.6      0.000      0.000
REMARK  Name = 24832041
REMARK  6 active torsions:
REMARK  status: ('A' for Active; 'I' for Inactive)
REMARK    1  A    between atoms: C_1  and  C_18
REMARK    2  A    between atoms: C_4  and  C_7
REMARK    3  A    between atoms: C_10  and  C_15
REMARK    4  A    between atoms: C_18  and  N_19
REMARK    5  A    between atoms: C_18  and  C_23
REMARK    6  A    between atoms: C_23  and  C_26
REMARK                            x       y       z     vdW  Elec       q    Type
REMARK                         _______ _______ _______ _____ _____    ______ ____
ROOT
ATOM      1  C   UNL     1      34.653 -20.160 -21.201  0.00  0.00    -0.042 C 
ATOM      2  C   UNL     1      35.844 -20.605 -20.628  0.00  0.00    -0.006 C 
ATOM      3  C   UNL     1      33.430 -20.518 -20.635  0.00  0.00    -0.006 C 
ATOM      4  C   UNL     1      34.588 -21.768 -18.921  0.00  0.00    -0.000 C 
ATOM      5  C   UNL     1      35.812 -21.409 -19.488  0.00  0.00    -0.000 C 
ATOM      6  C   UNL     1      33.397 -21.322 -19.495  0.00  0.00    -0.000 C 
ENDROOT
BRANCH   4   7
ATOM      7  C   UNL     1      34.556 -22.600 -17.740  0.00  0.00    +0.000 C 
ATOM      8  C   UNL     1      35.726 -22.830 -17.016  0.00  0.00    +0.005 C 
ATOM      9  C   UNL     1      33.354 -23.173 -17.323  0.00  0.00    +0.000 C 
ATOM     10  C   UNL     1      35.695 -23.634 -15.876  0.00  0.00    +0.053 C 
ATOM     11  C   UNL     1      33.323 -23.976 -16.183  0.00  0.00    +0.000 C 
ATOM     12  C   UNL     1      34.493 -24.207 -15.459  0.00  0.00    +0.005 C 
BRANCH  10  15
ATOM     13  O   UNL     1      37.519 -22.945 -14.556  0.00  0.00    -0.270 OA
ATOM     14  N   UNL     1      37.374 -25.183 -15.031  0.00  0.00    -0.325 N 
ATOM     15  C   UNL     1      36.913 -23.873 -15.120  0.00  0.00    +0.243 C 
ATOM     16  H   UNL     1      38.196 -25.383 -14.528  0.00  0.00    +0.145 HD
ATOM     17  H   UNL     1      36.878 -25.911 -15.471  0.00  0.00    +0.145 HD
ENDBRANCH  10  15
ENDBRANCH   4   7
BRANCH   1  18
ATOM     18  C   UNL     1      34.687 -19.300 -22.418  0.00  0.00    -0.038 C 
BRANCH  18  19
ATOM     19  N   UNL     1      34.954 -20.083 -23.644  0.00  0.00    +0.384 N 
ATOM     20  H   UNL     1      35.755 -19.685 -24.134  0.00  0.00    -0.089 HD
ATOM     21  H   UNL     1      34.135 -20.055 -24.251  0.00  0.00    -0.089 HD
ATOM     22  H   UNL     1      35.158 -21.050 -23.392  0.00  0.00    -0.089 HD
ENDBRANCH  18  19
BRANCH  18  23
ATOM     23  C   UNL     1      35.723 -18.140 -22.354  0.00  0.00    +0.011 C 
BRANCH  23  26
ATOM     24  F   UNL     1      35.379 -16.485 -24.631  0.00  0.00    -0.205 F 
ATOM     25  F   UNL     1      33.564 -14.545 -19.850  0.00  0.00    -0.204 F 
ATOM     26  C   UNL     1      35.073 -16.777 -22.295  0.00  0.00    +0.006 C 
ATOM     27  C   UNL     1      34.936 -16.016 -23.456  0.00  0.00    +0.136 C 
ATOM     28  C   UNL     1      34.609 -16.281 -21.077  0.00  0.00    +0.028 C 
ATOM     29  C   UNL     1      34.009 -15.023 -21.019  0.00  0.00    +0.140 C 
ATOM     30  C   UNL     1      34.336 -14.758 -23.398  0.00  0.00    +0.032 C 
ATOM     31  C   UNL     1      33.872 -14.261 -22.181  0.00  0.00    +0.032 C 
ENDBRANCH  23  26
ENDBRANCH  18  23
ENDBRANCH   1  18
TORSDOF 6
ENDMDL
MODEL 2
REMARK VINA RESULT:     -11.5      4.543      9.613
REMARK  Name = 24832041
REMARK  6 active torsions:
REMARK  status: ('A' for Active; 'I' for Inactive)
REMARK    1  A    between atoms: C_1  and  C_18
REMARK    2  A    between atoms: C_4  and  C_7
REMARK    3  A    between atoms: C_10  and  C_15
REMARK    4  A    between atoms: C_18  and  N_19
REMARK    5  A    between atoms: C_18  and  C_23
REMARK    6  A    between atoms: C_23  and  C_26
REMARK                            x       y       z     vdW  Elec       q    Type
REMARK                         _______ _______ _______ _____ _____    ______ ____
ROOT
ATOM      1  C   UNL     1      35.243 -17.279 -21.790  0.00  0.00    -0.042 C 
ATOM      2  C   UNL     1      35.285 -16.733 -23.072  0.00  0.00    -0.006 C 
ATOM      3  C   UNL     1      34.692 -16.547 -20.738  0.00  0.00    -0.006 C 
ATOM      4  C   UNL     1      34.227 -14.721 -22.251  0.00  0.00    -0.000 C 
ATOM      5  C   UNL     1      34.778 -15.454 -23.303  0.00  0.00    -0.000 C 
ATOM      6  C   UNL     1      34.185 -15.269 -20.968  0.00  0.00    -0.000 C 
ENDROOT
BRANCH   4   7
ATOM      7  C   UNL     1      33.700 -13.397 -22.490  0.00  0.00    +0.000 C 
ATOM      8  C   UNL     1      32.768 -12.847 -21.610  0.00  0.00    +0.005 C 
ATOM      9  C   UNL     1      34.124 -12.668 -23.601  0.00  0.00    +0.000 C 
ATOM     10  C   UNL     1      32.259 -11.569 -21.841  0.00  0.00    +0.053 C 
ATOM     11  C   UNL     1      33.615 -11.390 -23.832  0.00  0.00    +0.000 C 
ATOM     12  C   UNL     1      32.683 -10.840 -22.952  0.00  0.00    +0.005 C 
BRANCH  10  15
ATOM     13  O   UNL     1      31.433  -9.849 -20.459  0.00  0.00    -0.270 OA
ATOM     14  N   UNL     1      30.177 -11.763 -20.591  0.00  0.00    -0.325 N 
ATOM     15  C   UNL     1      31.289 -10.994 -20.923  0.00  0.00    +0.243 C 
ATOM     16  H   UNL     1      29.499 -11.408 -19.971  0.00  0.00    +0.145 HD
ATOM     17  H   UNL     1      30.068 -12.663 -20.975  0.00  0.00    +0.145 HD
ENDBRANCH  10  15
ENDBRANCH   4   7
BRANCH   1  18
ATOM     18  C   UNL     1      35.785 -18.646 -21.543  0.00  0.00    -0.038 C 
BRANCH  18  19
ATOM     19  N   UNL     1      36.930 -18.957 -22.425  0.00  0.00    +0.384 N 
ATOM     20  H   UNL     1      37.802 -18.740 -21.940  0.00  0.00    -0.089 HD
ATOM     21  H   UNL     1      36.866 -18.396 -23.275  0.00  0.00    -0.089 HD
ATOM     22  H   UNL     1      36.914 -19.947 -22.668  0.00  0.00    -0.089 HD
ENDBRANCH  18  19
BRANCH  18  23
ATOM     23  C   UNL     1      34.737 -19.787 -21.697  0.00  0.00    +0.011 C 
BRANCH  23  26
ATOM     24  F   UNL     1      32.316 -20.724 -20.554  0.00  0.00    -0.205 F 
ATOM     25  F   UNL     1      36.976 -22.384 -18.219  0.00  0.00    -0.204 F 
ATOM     26  C   UNL     1      34.690 -20.705 -20.497  0.00  0.00    +0.006 C 
ATOM     27  C   UNL     1      33.462 -21.127 -19.987  0.00  0.00    +0.136 C 
ATOM     28  C   UNL     1      35.877 -21.129 -19.901  0.00  0.00    +0.028 C 
ATOM     29  C   UNL     1      35.837 -21.976 -18.793  0.00  0.00    +0.140 C 
ATOM     30  C   UNL     1      33.422 -21.974 -18.879  0.00  0.00    +0.032 C 
ATOM     31  C   UNL     1      34.608 -22.399 -18.282  0.00  0.00    +0.032 C 
ENDBRANCH  23  26
ENDBRANCH  18  23
ENDBRANCH   1  18
TORSDOF 6
ENDMDL
MODEL 3
REMARK VINA RESULT:     -11.3      4.200      9.168
REMARK  Name = 24832041
REMARK  6 active torsions:
REMARK  status: ('A' for Active; 'I' for Inactive)
REMARK    1  A    between atoms: C_1  and  C_18
REMARK    2  A    between atoms: C_4  and  C_7
REMARK    3  A    between atoms: C_10  and  C_15
REMARK    4  A    between atoms: C_18  and  N_19
REMARK    5  A    between atoms: C_18  and  C_23
REMARK    6  A    between atoms: C_23  and  C_26
REMARK                            x       y       z     vdW  Elec       q    Type
REMARK                         _______ _______ _______ _____ _____    ______ ____
ROOT
ATOM      1  C   UNL     1      34.150 -22.025 -19.126  0.00  0.00    -0.042 C 
ATOM      2  C   UNL     1      33.047 -21.291 -19.562  0.00  0.00    -0.006 C 
ATOM      3  C   UNL     1      35.434 -21.664 -19.536  0.00  0.00    -0.006 C 
ATOM      4  C   UNL     1      34.511 -19.836 -20.818  0.00  0.00    -0.000 C 
ATOM      5  C   UNL     1      33.227 -20.197 -20.408  0.00  0.00    -0.000 C 
ATOM      6  C   UNL     1      35.614 -20.570 -20.382  0.00  0.00    -0.000 C 
ENDROOT
BRANCH   4   7
ATOM      7  C   UNL     1      34.697 -18.701 -21.695  0.00  0.00    +0.000 C 
ATOM      8  C   UNL     1      34.545 -17.405 -21.200  0.00  0.00    +0.005 C 
ATOM      9  C   UNL     1      35.029 -18.901 -23.034  0.00  0.00    +0.000 C 
ATOM     10  C   UNL     1      34.724 -16.310 -22.045  0.00  0.00    +0.053 C 
ATOM     11  C   UNL     1      35.209 -17.806 -23.879  0.00  0.00    +0.000 C 
ATOM     12  C   UNL     1      35.056 -16.511 -23.385  0.00  0.00    +0.005 C 
BRANCH  10  15
ATOM     13  O   UNL     1      34.445 -14.740 -20.312  0.00  0.00    -0.270 OA
ATOM     14  N   UNL     1      34.578 -13.912 -22.446  0.00  0.00    -0.325 N 
ATOM     15  C   UNL     1      34.568 -14.959 -21.530  0.00  0.00    +0.243 C 
ATOM     16  H   UNL     1      34.474 -12.983 -22.135  0.00  0.00    +0.145 HD
ATOM     17  H   UNL     1      34.689 -14.098 -23.407  0.00  0.00    +0.145 HD
ENDBRANCH  10  15
ENDBRANCH   4   7
BRANCH   1  18
ATOM     18  C   UNL     1      33.958 -23.194 -18.221  0.00  0.00    -0.038 C 
BRANCH  18  19
ATOM     19  N   UNL     1      33.795 -24.456 -18.973  0.00  0.00    +0.384 N 
ATOM     20  H   UNL     1      33.454 -24.251 -19.913  0.00  0.00    -0.089 HD
ATOM     21  H   UNL     1      33.123 -25.055 -18.491  0.00  0.00    -0.089 HD
ATOM     22  H   UNL     1      34.693 -24.935 -19.035  0.00  0.00    -0.089 HD
ENDBRANCH  18  19
BRANCH  18  23
ATOM     23  C   UNL     1      32.753 -23.057 -17.245  0.00  0.00    +0.011 C 
BRANCH  23  26
ATOM     24  F   UNL     1      30.876 -23.012 -15.120  0.00  0.00    -0.205 F 
ATOM     25  F   UNL     1      35.830 -25.054 -14.021  0.00  0.00    -0.204 F 
ATOM     26  C   UNL     1      33.065 -23.564 -15.856  0.00  0.00    +0.006 C 
ATOM     27  C   UNL     1      32.092 -23.511 -14.858  0.00  0.00    +0.136 C 
ATOM     28  C   UNL     1      34.327 -24.085 -15.574  0.00  0.00    +0.028 C 
ATOM     29  C   UNL     1      34.618 -24.554 -14.292  0.00  0.00    +0.140 C 
ATOM     30  C   UNL     1      32.383 -23.980 -13.576  0.00  0.00    +0.032 C 
ATOM     31  C   UNL     1      33.645 -24.502 -13.293  0.00  0.00    +0.032 C 
ENDBRANCH  23  26
ENDBRANCH  18  23
ENDBRANCH   1  18
TORSDOF 6
ENDMDL
MODEL 4
REMARK VINA RESULT:     -11.2      4.604      9.789
REMARK  Name = 24832041
REMARK  6 active torsions:
REMARK  status: ('A' for Active; 'I' for Inactive)
REMARK    1  A    between atoms: C_1  and  C_18
REMARK    2  A    between atoms: C_4  and  C_7
REMARK    3  A    between atoms: C_10  and  C_15
REMARK    4  A    between atoms: C_18  and  N_19
REMARK    5  A    between atoms: C_18  and  C_23
REMARK    6  A    between atoms: C_23  and  C_26
REMARK                            x       y       z     vdW  Elec       q    Type
REMARK                         _______ _______ _______ _____ _____    ______ ____
ROOT
ATOM      1  C   UNL     1      35.414 -17.963 -21.476  0.00  0.00    -0.042 C 
ATOM      2  C   UNL     1      35.473 -18.091 -22.863  0.00  0.00    -0.006 C 
ATOM      3  C   UNL     1      34.941 -16.782 -20.904  0.00  0.00    -0.006 C 
ATOM      4  C   UNL     1      34.586 -15.856 -23.108  0.00  0.00    -0.000 C 
ATOM      5  C   UNL     1      35.059 -17.038 -23.679  0.00  0.00    -0.000 C 
ATOM      6  C   UNL     1      34.528 -15.729 -21.719  0.00  0.00    -0.000 C 
ENDROOT
BRANCH   4   7
ATOM      7  C   UNL     1      34.156 -14.766 -23.953  0.00  0.00    +0.000 C 
ATOM      8  C   UNL     1      34.261 -13.450 -23.501  0.00  0.00    +0.005 C 
ATOM      9  C   UNL     1      33.637 -15.028 -25.220  0.00  0.00    +0.000 C 
ATOM     10  C   UNL     1      33.846 -12.397 -24.317  0.00  0.00    +0.053 C 
ATOM     11  C   UNL     1      33.222 -13.975 -26.036  0.00  0.00    +0.000 C 
ATOM     12  C   UNL     1      33.326 -12.660 -25.585  0.00  0.00    +0.005 C 
BRANCH  10  15
ATOM     13  O   UNL     1      33.021 -10.468 -23.247  0.00  0.00    -0.270 OA
ATOM     14  N   UNL     1      35.155 -10.356 -24.078  0.00  0.00    -0.325 N 
ATOM     15  C   UNL     1      33.956 -11.025 -23.848  0.00  0.00    +0.243 C 
ATOM     16  H   UNL     1      35.266  -9.426 -23.776  0.00  0.00    +0.145 HD
ATOM     17  H   UNL     1      35.892 -10.813 -24.544  0.00  0.00    +0.145 HD
ENDBRANCH  10  15
ENDBRANCH   4   7
BRANCH   1  18
ATOM     18  C   UNL     1      35.856 -19.088 -20.603  0.00  0.00    -0.038 C 
BRANCH  18  19
ATOM     19  N   UNL     1      37.327 -19.233 -20.587  0.00  0.00    +0.384 N 
ATOM     20  H   UNL     1      37.710 -18.927 -21.482  0.00  0.00    -0.089 HD
ATOM     21  H   UNL     1      37.571 -20.212 -20.431  0.00  0.00    -0.089 HD
ATOM     22  H   UNL     1      37.718 -18.662 -19.838  0.00  0.00    -0.089 HD
ENDBRANCH  18  19
BRANCH  18  23
ATOM     23  C   UNL     1      35.241 -20.468 -20.979  0.00  0.00    +0.011 C 
BRANCH  23  26
ATOM     24  F   UNL     1      32.597 -21.258 -20.325  0.00  0.00    -0.205 F 
ATOM     25  F   UNL     1      36.589 -22.912 -16.971  0.00  0.00    -0.204 F 
ATOM     26  C   UNL     1      34.905 -21.308 -19.768  0.00  0.00    +0.006 C 
ATOM     27  C   UNL     1      33.581 -21.660 -19.507  0.00  0.00    +0.136 C 
ATOM     28  C   UNL     1      35.921 -21.731 -18.912  0.00  0.00    +0.028 C 
ATOM     29  C   UNL     1      35.614 -22.506 -17.794  0.00  0.00    +0.140 C 
ATOM     30  C   UNL     1      33.273 -22.435 -18.389  0.00  0.00    +0.032 C 
ATOM     31  C   UNL     1      34.289 -22.859 -17.532  0.00  0.00    +0.032 C 
ENDBRANCH  23  26
ENDBRANCH  18  23
ENDBRANCH   1  18
TORSDOF 6
ENDMDL
MODEL 5
REMARK VINA RESULT:     -11.2      2.225      2.665
REMARK  Name = 24832041
REMARK  6 active torsions:
REMARK  status: ('A' for Active; 'I' for Inactive)
REMARK    1  A    between atoms: C_1  and  C_18
REMARK    2  A    between atoms: C_4  and  C_7
REMARK    3  A    between atoms: C_10  and  C_15
REMARK    4  A    between atoms: C_18  and  N_19
REMARK    5  A    between atoms: C_18  and  C_23
REMARK    6  A    between atoms: C_23  and  C_26
REMARK                            x       y       z     vdW  Elec       q    Type
REMARK                         _______ _______ _______ _____ _____    ______ ____
ROOT
ATOM      1  C   UNL     1      34.471 -20.224 -21.070  0.00  0.00    -0.042 C 
ATOM      2  C   UNL     1      35.530 -20.840 -20.405  0.00  0.00    -0.006 C 
ATOM      3  C   UNL     1      33.165 -20.397 -20.612  0.00  0.00    -0.006 C 
ATOM      4  C   UNL     1      33.978 -21.803 -18.822  0.00  0.00    -0.000 C 
ATOM      5  C   UNL     1      35.285 -21.629 -19.281  0.00  0.00    -0.000 C 
ATOM      6  C   UNL     1      32.918 -21.187 -19.489  0.00  0.00    -0.000 C 
ENDROOT
BRANCH   4   7
ATOM      7  C   UNL     1      33.724 -22.620 -17.658  0.00  0.00    +0.000 C 
ATOM      8  C   UNL     1      32.413 -22.856 -17.244  0.00  0.00    +0.005 C 
ATOM      9  C   UNL     1      34.789 -23.173 -16.947  0.00  0.00    +0.000 C 
ATOM     10  C   UNL     1      32.167 -23.645 -16.120  0.00  0.00    +0.053 C 
ATOM     11  C   UNL     1      34.543 -23.961 -15.823  0.00  0.00    +0.000 C 
ATOM     12  C   UNL     1      33.233 -24.198 -15.409  0.00  0.00    +0.005 C 
BRANCH  10  15
ATOM     13  O   UNL     1      30.547 -24.672 -14.753  0.00  0.00    -0.270 OA
ATOM     14  N   UNL     1      29.780 -23.216 -16.350  0.00  0.00    -0.325 N 
ATOM     15  C   UNL     1      30.800 -23.894 -15.689  0.00  0.00    +0.243 C 
ATOM     16  H   UNL     1      28.842 -23.360 -16.086  0.00  0.00    +0.145 HD
ATOM     17  H   UNL     1      29.995 -22.593 -17.081  0.00  0.00    +0.145 HD
ENDBRANCH  10  15
ENDBRANCH   4   7
BRANCH   1  18
ATOM     18  C   UNL     1      34.733 -19.380 -22.270  0.00  0.00    -0.038 C 
BRANCH  18  19
ATOM     19  N   UNL     1      35.254 -20.173 -23.404  0.00  0.00    +0.384 N 
ATOM     20  H   UNL     1      35.510 -21.106 -23.078  0.00  0.00    -0.089 HD
ATOM     21  H   UNL     1      36.078 -19.712 -23.792  0.00  0.00    -0.089 HD
ATOM     22  H   UNL     1      34.537 -20.251 -24.124  0.00  0.00    -0.089 HD
ENDBRANCH  18  19
BRANCH  18  23
ATOM     23  C   UNL     1      35.715 -18.198 -22.019  0.00  0.00    +0.011 C 
BRANCH  23  26
ATOM     24  F   UNL     1      35.348 -16.932 -24.530  0.00  0.00    -0.205 F 
ATOM     25  F   UNL     1      33.547 -14.260 -20.110  0.00  0.00    -0.204 F 
ATOM     26  C   UNL     1      35.056 -16.847 -22.176  0.00  0.00    +0.006 C 
ATOM     27  C   UNL     1      34.909 -16.283 -23.442  0.00  0.00    +0.136 C 
ATOM     28  C   UNL     1      34.596 -16.164 -21.050  0.00  0.00    +0.028 C 
ATOM     29  C   UNL     1      33.988 -14.916 -21.190  0.00  0.00    +0.140 C 
ATOM     30  C   UNL     1      34.301 -15.035 -23.583  0.00  0.00    +0.032 C 
ATOM     31  C   UNL     1      33.840 -14.352 -22.458  0.00  0.00    +0.032 C 
ENDBRANCH  23  26
ENDBRANCH  18  23
ENDBRANCH   1  18
TORSDOF 6
ENDMDL
MODEL 6
REMARK VINA RESULT:     -11.1      4.861      9.708
REMARK  Name = 24832041
REMARK  6 active torsions:
REMARK  status: ('A' for Active; 'I' for Inactive)
REMARK    1  A    between atoms: C_1  and  C_18
REMARK    2  A    between atoms: C_4  and  C_7
REMARK    3  A    between atoms: C_10  and  C_15
REMARK    4  A    between atoms: C_18  and  N_19
REMARK    5  A    between atoms: C_18  and  C_23
REMARK    6  A    between atoms: C_23  and  C_26
REMARK                            x       y       z     vdW  Elec       q    Type
REMARK                         _______ _______ _______ _____ _____    ______ ____
ROOT
ATOM      1  C   UNL     1      34.865 -16.990 -21.428  0.00  0.00    -0.042 C 
ATOM      2  C   UNL     1      34.925 -16.110 -22.508  0.00  0.00    -0.006 C 
ATOM      3  C   UNL     1      34.111 -16.661 -20.302  0.00  0.00    -0.006 C 
ATOM      4  C   UNL     1      33.478 -14.570 -21.335  0.00  0.00    -0.000 C 
ATOM      5  C   UNL     1      34.232 -14.901 -22.462  0.00  0.00    -0.000 C 
ATOM      6  C   UNL     1      33.419 -15.452 -20.255  0.00  0.00    -0.000 C 
ENDROOT
BRANCH   4   7
ATOM      7  C   UNL     1      32.759 -13.317 -21.288  0.00  0.00    +0.000 C 
ATOM      8  C   UNL     1      33.098 -12.285 -22.164  0.00  0.00    +0.005 C 
ATOM      9  C   UNL     1      31.728 -13.139 -20.367  0.00  0.00    +0.000 C 
ATOM     10  C   UNL     1      32.405 -11.076 -22.119  0.00  0.00    +0.053 C 
ATOM     11  C   UNL     1      31.035 -11.929 -20.321  0.00  0.00    +0.000 C 
ATOM     12  C   UNL     1      31.373 -10.898 -21.197  0.00  0.00    +0.005 C 
BRANCH  10  15
ATOM     13  O   UNL     1      31.949  -9.094 -23.307  0.00  0.00    -0.270 OA
ATOM     14  N   UNL     1      34.034 -10.008 -23.582  0.00  0.00    -0.325 N 
ATOM     15  C   UNL     1      32.755 -10.001 -23.033  0.00  0.00    +0.243 C 
ATOM     16  H   UNL     1      34.307  -9.297 -24.205  0.00  0.00    +0.145 HD
ATOM     17  H   UNL     1      34.667 -10.725 -23.346  0.00  0.00    +0.145 HD
ENDBRANCH  10  15
ENDBRANCH   4   7
BRANCH   1  18
ATOM     18  C   UNL     1      35.605 -18.284 -21.477  0.00  0.00    -0.038 C 
BRANCH  18  19
ATOM     19  N   UNL     1      36.680 -18.270 -22.493  0.00  0.00    +0.384 N 
ATOM     20  H   UNL     1      36.582 -19.081 -23.104  0.00  0.00    -0.089 HD
ATOM     21  H   UNL     1      37.588 -18.303 -22.027  0.00  0.00    -0.089 HD
ATOM     22  H   UNL     1      36.613 -17.417 -23.048  0.00  0.00    -0.089 HD
ENDBRANCH  18  19
BRANCH  18  23
ATOM     23  C   UNL     1      34.705 -19.525 -21.748  0.00  0.00    +0.011 C 
BRANCH  23  26
ATOM     24  F   UNL     1      32.321 -20.566 -20.620  0.00  0.00    -0.205 F 
ATOM     25  F   UNL     1      37.046 -22.246 -18.436  0.00  0.00    -0.204 F 
ATOM     26  C   UNL     1      34.694 -20.502 -20.595  0.00  0.00    +0.006 C 
ATOM     27  C   UNL     1      33.482 -20.974 -20.090  0.00  0.00    +0.136 C 
ATOM     28  C   UNL     1      35.898 -20.932 -20.037  0.00  0.00    +0.028 C 
ATOM     29  C   UNL     1      35.890 -21.833 -18.973  0.00  0.00    +0.140 C 
ATOM     30  C   UNL     1      33.475 -21.875 -19.025  0.00  0.00    +0.032 C 
ATOM     31  C   UNL     1      34.678 -22.306 -18.467  0.00  0.00    +0.032 C 
ENDBRANCH  23  26
ENDBRANCH  18  23
ENDBRANCH   1  18
TORSDOF 6
ENDMDL
MODEL 7
REMARK VINA RESULT:     -11.0      4.443      9.181
REMARK  Name = 24832041
REMARK  6 active torsions:
REMARK  status: ('A' for Active; 'I' for Inactive)
REMARK    1  A    between atoms: C_1  and  C_18
REMARK    2  A    between atoms: C_4  and  C_7
REMARK    3  A    between atoms: C_10  and  C_15
REMARK    4  A    between atoms: C_18  and  N_19
REMARK    5  A    between atoms: C_18  and  C_23
REMARK    6  A    between atoms: C_23  and  C_26
REMARK                            x       y       z     vdW  Elec       q    Type
REMARK                         _______ _______ _______ _____ _____    ______ ____
ROOT
ATOM      1  C   UNL     1      34.508 -22.434 -18.348  0.00  0.00    -0.042 C 
ATOM      2  C   UNL     1      33.353 -21.886 -18.906  0.00  0.00    -0.006 C 
ATOM      3  C   UNL     1      35.762 -22.037 -18.811  0.00  0.00    -0.006 C 
ATOM      4  C   UNL     1      34.707 -20.544 -20.391  0.00  0.00    -0.000 C 
ATOM      5  C   UNL     1      33.452 -20.941 -19.927  0.00  0.00    -0.000 C 
ATOM      6  C   UNL     1      35.862 -21.093 -19.832  0.00  0.00    -0.000 C 
ENDROOT
BRANCH   4   7
ATOM      7  C   UNL     1      34.809 -19.564 -21.449  0.00  0.00    +0.000 C 
ATOM      8  C   UNL     1      34.735 -18.203 -21.149  0.00  0.00    +0.005 C 
ATOM      9  C   UNL     1      34.983 -19.978 -22.769  0.00  0.00    +0.000 C 
ATOM     10  C   UNL     1      34.834 -17.257 -22.169  0.00  0.00    +0.053 C 
ATOM     11  C   UNL     1      35.081 -19.032 -23.789  0.00  0.00    +0.000 C 
ATOM     12  C   UNL     1      35.007 -17.672 -23.490  0.00  0.00    +0.005 C 
BRANCH  10  15
ATOM     13  O   UNL     1      35.049 -14.973 -22.701  0.00  0.00    -0.270 OA
ATOM     14  N   UNL     1      34.331 -15.478 -20.583  0.00  0.00    -0.325 N 
ATOM     15  C   UNL     1      34.758 -15.839 -21.857  0.00  0.00    +0.243 C 
ATOM     16  H   UNL     1      34.269 -14.527 -20.335  0.00  0.00    +0.145 HD
ATOM     17  H   UNL     1      34.091 -16.173 -19.928  0.00  0.00    +0.145 HD
ENDBRANCH  10  15
ENDBRANCH   4   7
BRANCH   1  18
ATOM     18  C   UNL     1      34.402 -23.443 -17.256  0.00  0.00    -0.038 C 
BRANCH  18  19
ATOM     19  N   UNL     1      33.008 -23.887 -17.044  0.00  0.00    +0.384 N 
ATOM     20  H   UNL     1      32.368 -23.214 -17.466  0.00  0.00    -0.089 HD
ATOM     21  H   UNL     1      32.820 -23.952 -16.043  0.00  0.00    -0.089 HD
ATOM     22  H   UNL     1      32.872 -24.801 -17.475  0.00  0.00    -0.089 HD
ENDBRANCH  18  19
BRANCH  18  23
ATOM     23  C   UNL     1      34.968 -22.965 -15.887  0.00  0.00    +0.011 C 
BRANCH  23  26
ATOM     24  F   UNL     1      37.665 -22.090 -15.842  0.00  0.00    -0.205 F 
ATOM     25  F   UNL     1      36.663 -27.151 -14.027  0.00  0.00    -0.204 F 
ATOM     26  C   UNL     1      36.108 -23.825 -15.392  0.00  0.00    +0.006 C 
ATOM     27  C   UNL     1      37.412 -23.329 -15.399  0.00  0.00    +0.136 C 
ATOM     28  C   UNL     1      35.854 -25.116 -14.929  0.00  0.00    +0.028 C 
ATOM     29  C   UNL     1      36.905 -25.912 -14.472  0.00  0.00    +0.140 C 
ATOM     30  C   UNL     1      38.462 -24.125 -14.942  0.00  0.00    +0.032 C 
ATOM     31  C   UNL     1      38.210 -25.416 -14.478  0.00  0.00    +0.032 C 
ENDBRANCH  23  26
ENDBRANCH  18  23
ENDBRANCH   1  18
TORSDOF 6
ENDMDL
MODEL 8
REMARK VINA RESULT:     -10.7      1.606      2.622
REMARK  Name = 24832041
REMARK  6 active torsions:
REMARK  status: ('A' for Active; 'I' for Inactive)
REMARK    1  A    between atoms: C_1  and  C_18
REMARK    2  A    between atoms: C_4  and  C_7
REMARK    3  A    between atoms: C_10  and  C_15
REMARK    4  A    between atoms: C_18  and  N_19
REMARK    5  A    between atoms: C_18  and  C_23
REMARK    6  A    between atoms: C_23  and  C_26
REMARK                            x       y       z     vdW  Elec       q    Type
REMARK                         _______ _______ _______ _____ _____    ______ ____
ROOT
ATOM      1  C   UNL     1      35.034 -20.106 -21.284  0.00  0.00    -0.042 C 
ATOM      2  C   UNL     1      36.334 -20.202 -20.788  0.00  0.00    -0.006 C 
ATOM      3  C   UNL     1      33.980 -20.710 -20.598  0.00  0.00    -0.006 C 
ATOM      4  C   UNL     1      35.527 -21.506 -18.920  0.00  0.00    -0.000 C 
ATOM      5  C   UNL     1      36.581 -20.901 -19.607  0.00  0.00    -0.000 C 
ATOM      6  C   UNL     1      34.226 -21.410 -19.417  0.00  0.00    -0.000 C 
ENDROOT
BRANCH   4   7
ATOM      7  C   UNL     1      35.783 -22.230 -17.696  0.00  0.00    +0.000 C 
ATOM      8  C   UNL     1      34.738 -22.881 -17.039  0.00  0.00    +0.005 C 
ATOM      9  C   UNL     1      37.073 -22.277 -17.170  0.00  0.00    +0.000 C 
ATOM     10  C   UNL     1      34.984 -23.579 -15.857  0.00  0.00    +0.053 C 
ATOM     11  C   UNL     1      37.320 -22.976 -15.988  0.00  0.00    +0.000 C 
ATOM     12  C   UNL     1      36.276 -23.627 -15.331  0.00  0.00    +0.005 C 
BRANCH  10  15
ATOM     13  O   UNL     1      32.710 -24.077 -15.499  0.00  0.00    -0.270 OA
ATOM     14  N   UNL     1      34.227 -25.141 -14.148  0.00  0.00    -0.325 N 
ATOM     15  C   UNL     1      33.896 -24.260 -15.173  0.00  0.00    +0.243 C 
ATOM     16  H   UNL     1      33.517 -25.619 -13.661  0.00  0.00    +0.145 HD
ATOM     17  H   UNL     1      35.170 -25.287 -13.908  0.00  0.00    +0.145 HD
ENDBRANCH  10  15
ENDBRANCH   4   7
BRANCH   1  18
ATOM     18  C   UNL     1      34.769 -19.358 -22.546  0.00  0.00    -0.038 C 
BRANCH  18  19
ATOM     19  N   UNL     1      34.868 -20.229 -23.738  0.00  0.00    +0.384 N 
ATOM     20  H   UNL     1      34.868 -19.654 -24.581  0.00  0.00    -0.089 HD
ATOM     21  H   UNL     1      34.070 -20.865 -23.761  0.00  0.00    -0.089 HD
ATOM     22  H   UNL     1      35.732 -20.768 -23.695  0.00  0.00    -0.089 HD
ENDBRANCH  18  19
BRANCH  18  23
ATOM     23  C   UNL     1      35.701 -18.131 -22.770  0.00  0.00    +0.011 C 
BRANCH  23  26
ATOM     24  F   UNL     1      34.931 -16.033 -21.024  0.00  0.00    -0.205 F 
ATOM     25  F   UNL     1      33.580 -15.503 -26.298  0.00  0.00    -0.204 F 
ATOM     26  C   UNL     1      34.950 -16.904 -23.233  0.00  0.00    +0.006 C 
ATOM     27  C   UNL     1      34.604 -15.909 -22.318  0.00  0.00    +0.136 C 
ATOM     28  C   UNL     1      34.605 -16.767 -24.577  0.00  0.00    +0.028 C 
ATOM     29  C   UNL     1      33.912 -15.635 -25.008  0.00  0.00    +0.140 C 
ATOM     30  C   UNL     1      33.911 -14.778 -22.749  0.00  0.00    +0.032 C 
ATOM     31  C   UNL     1      33.565 -14.640 -24.093  0.00  0.00    +0.032 C 
ENDBRANCH  23  26
ENDBRANCH  18  23
ENDBRANCH   1  18
TORSDOF 6
ENDMDL
MODEL 9
REMARK VINA RESULT:     -10.7      1.875      3.046
REMARK  Name = 24832041
REMARK  6 active torsions:
REMARK  status: ('A' for Active; 'I' for Inactive)
REMARK    1  A    between atoms: C_1  and  C_18
REMARK    2  A    between atoms: C_4  and  C_7
REMARK    3  A    between atoms: C_10  and  C_15
REMARK    4  A    between atoms: C_18  and  N_19
REMARK    5  A    between atoms: C_18  and  C_23
REMARK    6  A    between atoms: C_23  and  C_26
REMARK                            x       y       z     vdW  Elec       q    Type
REMARK                         _______ _______ _______ _____ _____    ______ ____
ROOT
ATOM      1  C   UNL     1      35.750 -21.637 -18.959  0.00  0.00    -0.042 C 
ATOM      2  C   UNL     1      34.587 -22.318 -18.602  0.00  0.00    -0.006 C 
ATOM      3  C   UNL     1      36.846 -21.629 -18.097  0.00  0.00    -0.006 C 
ATOM      4  C   UNL     1      35.615 -22.984 -16.519  0.00  0.00    -0.000 C 
ATOM      5  C   UNL     1      34.519 -22.991 -17.382  0.00  0.00    -0.000 C 
ATOM      6  C   UNL     1      36.779 -22.302 -16.877  0.00  0.00    -0.000 C 
ENDROOT
BRANCH   4   7
ATOM      7  C   UNL     1      35.545 -23.683 -15.255  0.00  0.00    +0.000 C 
ATOM      8  C   UNL     1      36.712 -24.158 -14.655  0.00  0.00    +0.005 C 
ATOM      9  C   UNL     1      34.312 -23.882 -14.636  0.00  0.00    +0.000 C 
ATOM     10  C   UNL     1      36.644 -24.832 -13.436  0.00  0.00    +0.053 C 
ATOM     11  C   UNL     1      34.244 -24.557 -13.417  0.00  0.00    +0.000 C 
ATOM     12  C   UNL     1      35.410 -25.032 -12.817  0.00  0.00    +0.005 C 
BRANCH  10  15
ATOM     13  O   UNL     1      38.754 -24.550 -12.427  0.00  0.00    -0.270 OA
ATOM     14  N   UNL     1      37.985 -26.700 -12.632  0.00  0.00    -0.325 N 
ATOM     15  C   UNL     1      37.860 -25.326 -12.809  0.00  0.00    +0.243 C 
ATOM     16  H   UNL     1      38.795 -27.071 -12.211  0.00  0.00    +0.145 HD
ATOM     17  H   UNL     1      37.265 -27.303 -12.927  0.00  0.00    +0.145 HD
ENDBRANCH  10  15
ENDBRANCH   4   7
BRANCH   1  18
ATOM     18  C   UNL     1      35.823 -20.917 -20.263  0.00  0.00    -0.038 C 
BRANCH  18  19
ATOM     19  N   UNL     1      36.893 -19.896 -20.273  0.00  0.00    +0.384 N 
ATOM     20  H   UNL     1      37.698 -20.240 -19.749  0.00  0.00    -0.089 HD
ATOM     21  H   UNL     1      36.548 -19.038 -19.840  0.00  0.00    -0.089 HD
ATOM     22  H   UNL     1      37.171 -19.703 -21.235  0.00  0.00    -0.089 HD
ENDBRANCH  18  19
BRANCH  18  23
ATOM     23  C   UNL     1      34.495 -20.226 -20.688  0.00  0.00    +0.011 C 
BRANCH  23  26
ATOM     24  F   UNL     1      35.000 -20.288 -23.478  0.00  0.00    -0.205 F 
ATOM     25  F   UNL     1      34.862 -15.372 -21.084  0.00  0.00    -0.204 F 
ATOM     26  C   UNL     1      34.722 -18.982 -21.516  0.00  0.00    +0.006 C 
ATOM     27  C   UNL     1      34.964 -19.087 -22.885  0.00  0.00    +0.136 C 
ATOM     28  C   UNL     1      34.686 -17.727 -20.907  0.00  0.00    +0.028 C 
ATOM     29  C   UNL     1      34.895 -16.577 -21.668  0.00  0.00    +0.140 C 
ATOM     30  C   UNL     1      35.173 -17.936 -23.646  0.00  0.00    +0.032 C 
ATOM     31  C   UNL     1      35.138 -16.682 -23.038  0.00  0.00    +0.032 C 
ENDBRANCH  23  26
ENDBRANCH  18  23
ENDBRANCH   1  18
TORSDOF 6
ENDMDL
