MODEL 1
REMARK VINA RESULT:     -11.6      0.000      0.000
REMARK  Name = 656913
REMARK  7 active torsions:
REMARK  status: ('A' for Active; 'I' for Inactive)
REMARK    1  A    between atoms: N_3  and  C_22
REMARK    2  A    between atoms: N_4  and  C_11
REMARK    3  A    between atoms: C_11  and  C_14
REMARK    4  A    between atoms: C_14  and  C_17
REMARK    5  A    between atoms: C_22  and  C_25
REMARK    6  A    between atoms: N_24  and  C_27
REMARK    7  A    between atoms: C_27  and  C_29
REMARK                            x       y       z     vdW  Elec       q    Type
REMARK                         _______ _______ _______ _____ _____    ______ ____
ROOT
ATOM      1 CL   UNL     1      33.000 -13.384 -26.484  0.00  0.00    -0.064 Cl
ATOM      2  O   UNL     1      34.980 -14.362 -21.970  0.00  0.00    -0.266 OA
ATOM      3  N   UNL     1      34.054 -13.869 -24.067  0.00  0.00    -0.233 N 
ATOM      4  N   UNL     1      35.109 -17.012 -22.432  0.00  0.00    -0.310 N 
ATOM      5  N   UNL     1      34.187 -16.638 -24.555  0.00  0.00    -0.223 NA
ATOM      6  C   UNL     1      34.607 -16.187 -23.407  0.00  0.00    +0.183 C 
ATOM      7  C   UNL     1      34.566 -14.702 -23.072  0.00  0.00    +0.285 C 
ATOM      8  C   UNL     1      33.629 -14.420 -25.260  0.00  0.00    +0.133 C 
ATOM      9  C   UNL     1      33.705 -15.739 -25.462  0.00  0.00    +0.127 C 
ATOM     10  H   UNL     1      35.412 -16.617 -21.583  0.00  0.00    +0.149 HD
ENDROOT
BRANCH   4  11
ATOM     11  C   UNL     1      35.207 -18.427 -22.608  0.00  0.00    +0.162 C 
BRANCH  11  14
ATOM     12  F   UNL     1      36.395 -18.046 -20.619  0.00  0.00    -0.196 F 
ATOM     13  F   UNL     1      37.081 -19.653 -21.905  0.00  0.00    -0.196 F 
ATOM     14  C   UNL     1      35.951 -19.053 -21.429  0.00  0.00    +0.317 C 
BRANCH  14  17
ATOM     15  O   UNL     1      36.929 -20.889 -19.622  0.00  0.00    -0.163 OA
ATOM     16  N   UNL     1      35.668 -20.893 -19.813  0.00  0.00    -0.128 N 
ATOM     17  C   UNL     1      35.065 -20.025 -20.689  0.00  0.00    +0.142 C 
ATOM     18  C   UNL     1      33.699 -20.018 -20.903  0.00  0.00    +0.022 C 
ATOM     19  C   UNL     1      34.872 -21.790 -19.127  0.00  0.00    +0.121 C 
ATOM     20  C   UNL     1      32.907 -20.925 -20.207  0.00  0.00    +0.003 C 
ATOM     21  C   UNL     1      33.494 -21.816 -19.314  0.00  0.00    +0.022 C 
ENDBRANCH  14  17
ENDBRANCH  11  14
ENDBRANCH   4  11
BRANCH   3  22
ATOM     22  C   UNL     1      33.982 -12.433 -23.819  0.00  0.00    +0.184 C 
BRANCH  22  25
ATOM     23  O   UNL     1      32.117 -13.014 -22.396  0.00  0.00    -0.273 OA
ATOM     24  N   UNL     1      32.731 -10.783 -22.606  0.00  0.00    -0.299 N 
ATOM     25  C   UNL     1      32.852 -12.142 -22.854  0.00  0.00    +0.243 C 
ATOM     26  H   UNL     1      33.378 -10.172 -23.027  0.00  0.00    +0.150 HD
BRANCH  24  27
ATOM     27  C   UNL     1      31.704 -10.219 -21.759  0.00  0.00    +0.119 C 
BRANCH  27  29
ATOM     28  F   UNL     1      32.795  -8.656 -19.672  0.00  0.00    -0.204 F 
ATOM     29  C   UNL     1      31.716  -8.717 -21.786  0.00  0.00    +0.025 C 
ATOM     30  C   UNL     1      32.270  -8.012 -20.724  0.00  0.00    +0.138 C 
ATOM     31  C   UNL     1      31.171  -8.048 -22.875  0.00  0.00    -0.000 C 
ATOM     32  C   UNL     1      32.279  -6.618 -20.752  0.00  0.00    +0.029 C 
ATOM     33  C   UNL     1      31.181  -6.654 -22.903  0.00  0.00    -0.000 C 
ATOM     34  C   UNL     1      31.734  -5.939 -21.842  0.00  0.00    +0.002 C 
ENDBRANCH  27  29
ENDBRANCH  24  27
ENDBRANCH  22  25
ENDBRANCH   3  22
TORSDOF 7
ENDMDL
MODEL 2
REMARK VINA RESULT:     -11.6      2.478     10.205
REMARK  Name = 656913
REMARK  7 active torsions:
REMARK  status: ('A' for Active; 'I' for Inactive)
REMARK    1  A    between atoms: N_3  and  C_22
REMARK    2  A    between atoms: N_4  and  C_11
REMARK    3  A    between atoms: C_11  and  C_14
REMARK    4  A    between atoms: C_14  and  C_17
REMARK    5  A    between atoms: C_22  and  C_25
REMARK    6  A    between atoms: N_24  and  C_27
REMARK    7  A    between atoms: C_27  and  C_29
REMARK                            x       y       z     vdW  Elec       q    Type
REMARK                         _______ _______ _______ _____ _____    ______ ____
ROOT
ATOM      1 CL   UNL     1      34.968 -16.366 -25.197  0.00  0.00    -0.064 Cl
ATOM      2  O   UNL     1      34.134 -15.383 -20.340  0.00  0.00    -0.266 OA
ATOM      3  N   UNL     1      34.550 -15.867 -22.597  0.00  0.00    -0.233 N 
ATOM      4  N   UNL     1      32.295 -13.492 -20.883  0.00  0.00    -0.310 N 
ATOM      5  N   UNL     1      32.628 -13.892 -23.168  0.00  0.00    -0.223 NA
ATOM      6  C   UNL     1      32.905 -14.149 -21.921  0.00  0.00    +0.183 C 
ATOM      7  C   UNL     1      33.933 -15.204 -21.536  0.00  0.00    +0.285 C 
ATOM      8  C   UNL     1      34.203 -15.541 -23.893  0.00  0.00    +0.133 C 
ATOM      9  C   UNL     1      33.287 -14.598 -24.132  0.00  0.00    +0.127 C 
ATOM     10  H   UNL     1      32.543 -13.727 -19.959  0.00  0.00    +0.149 HD
ENDROOT
BRANCH   4  11
ATOM     11  C   UNL     1      31.310 -12.478 -21.095  0.00  0.00    +0.162 C 
BRANCH  11  14
ATOM     12  F   UNL     1      32.357 -11.779 -19.113  0.00  0.00    -0.196 F 
ATOM     13  F   UNL     1      30.296 -11.180 -19.423  0.00  0.00    -0.196 F 
ATOM     14  C   UNL     1      31.483 -11.354 -20.074  0.00  0.00    +0.317 C 
BRANCH  14  17
ATOM     15  O   UNL     1      31.998  -9.032 -18.684  0.00  0.00    -0.163 OA
ATOM     16  N   UNL     1      32.175  -8.992 -19.946  0.00  0.00    -0.128 N 
ATOM     17  C   UNL     1      31.952 -10.086 -20.745  0.00  0.00    +0.142 C 
ATOM     18  C   UNL     1      32.143 -10.057 -22.113  0.00  0.00    +0.022 C 
ATOM     19  C   UNL     1      32.605  -7.823 -20.543  0.00  0.00    +0.121 C 
ATOM     20  C   UNL     1      32.576  -8.875 -22.704  0.00  0.00    +0.003 C 
ATOM     21  C   UNL     1      32.809  -7.751 -21.917  0.00  0.00    +0.022 C 
ENDBRANCH  14  17
ENDBRANCH  11  14
ENDBRANCH   4  11
BRANCH   3  22
ATOM     22  C   UNL     1      35.548 -16.890 -22.307  0.00  0.00    +0.184 C 
BRANCH  22  25
ATOM     23  O   UNL     1      34.643 -18.762 -23.539  0.00  0.00    -0.273 OA
ATOM     24  N   UNL     1      34.672 -18.840 -21.217  0.00  0.00    -0.299 N 
ATOM     25  C   UNL     1      34.924 -18.262 -22.452  0.00  0.00    +0.243 C 
ATOM     26  H   UNL     1      34.941 -18.348 -20.407  0.00  0.00    +0.150 HD
BRANCH  24  27
ATOM     27  C   UNL     1      34.035 -20.129 -21.059  0.00  0.00    +0.119 C 
BRANCH  27  29
ATOM     28  F   UNL     1      32.566 -21.716 -19.239  0.00  0.00    -0.204 F 
ATOM     29  C   UNL     1      34.686 -20.949 -19.983  0.00  0.00    +0.025 C 
ATOM     30  C   UNL     1      33.902 -21.708 -19.122  0.00  0.00    +0.138 C 
ATOM     31  C   UNL     1      36.071 -20.941 -19.860  0.00  0.00    -0.000 C 
ATOM     32  C   UNL     1      34.510 -22.468 -18.125  0.00  0.00    +0.029 C 
ATOM     33  C   UNL     1      36.679 -21.703 -18.863  0.00  0.00    -0.000 C 
ATOM     34  C   UNL     1      35.899 -22.466 -17.995  0.00  0.00    +0.002 C 
ENDBRANCH  27  29
ENDBRANCH  24  27
ENDBRANCH  22  25
ENDBRANCH   3  22
TORSDOF 7
ENDMDL
MODEL 3
REMARK VINA RESULT:     -11.5      1.574      1.984
REMARK  Name = 656913
REMARK  7 active torsions:
REMARK  status: ('A' for Active; 'I' for Inactive)
REMARK    1  A    between atoms: N_3  and  C_22
REMARK    2  A    between atoms: N_4  and  C_11
REMARK    3  A    between atoms: C_11  and  C_14
REMARK    4  A    between atoms: C_14  and  C_17
REMARK    5  A    between atoms: C_22  and  C_25
REMARK    6  A    between atoms: N_24  and  C_27
REMARK    7  A    between atoms: C_27  and  C_29
REMARK                            x       y       z     vdW  Elec       q    Type
REMARK                         _______ _______ _______ _____ _____    ______ ____
ROOT
ATOM      1 CL   UNL     1      33.638 -14.882 -26.209  0.00  0.00    -0.064 Cl
ATOM      2  O   UNL     1      34.918 -14.957 -21.349  0.00  0.00    -0.266 OA
ATOM      3  N   UNL     1      34.311 -14.885 -23.613  0.00  0.00    -0.233 N 
ATOM      4  N   UNL     1      35.530 -17.579 -21.395  0.00  0.00    -0.310 N 
ATOM      5  N   UNL     1      34.950 -17.625 -23.665  0.00  0.00    -0.223 NA
ATOM      6  C   UNL     1      35.088 -16.975 -22.545  0.00  0.00    +0.183 C 
ATOM      7  C   UNL     1      34.761 -15.492 -22.440  0.00  0.00    +0.285 C 
ATOM      8  C   UNL     1      34.193 -15.639 -24.764  0.00  0.00    +0.133 C 
ATOM      9  C   UNL     1      34.504 -16.939 -24.757  0.00  0.00    +0.127 C 
ATOM     10  H   UNL     1      35.615 -17.038 -20.576  0.00  0.00    +0.149 HD
ENDROOT
BRANCH   4  11
ATOM     11  C   UNL     1      35.873 -18.965 -21.345  0.00  0.00    +0.162 C 
BRANCH  11  14
ATOM     12  F   UNL     1      34.225 -20.385 -22.226  0.00  0.00    -0.196 F 
ATOM     13  F   UNL     1      33.614 -18.961 -20.708  0.00  0.00    -0.196 F 
ATOM     14  C   UNL     1      34.629 -19.805 -21.057  0.00  0.00    +0.317 C 
BRANCH  14  17
ATOM     15  O   UNL     1      32.642 -21.289 -19.856  0.00  0.00    -0.163 OA
ATOM     16  N   UNL     1      33.835 -21.506 -19.460  0.00  0.00    -0.128 N 
ATOM     17  C   UNL     1      34.908 -20.829 -19.984  0.00  0.00    +0.142 C 
ATOM     18  C   UNL     1      36.205 -21.056 -19.565  0.00  0.00    +0.022 C 
ATOM     19  C   UNL     1      34.072 -22.447 -18.477  0.00  0.00    +0.121 C 
ATOM     20  C   UNL     1      36.432 -22.006 -18.574  0.00  0.00    +0.003 C 
ATOM     21  C   UNL     1      35.362 -22.706 -18.026  0.00  0.00    +0.022 C 
ENDBRANCH  14  17
ENDBRANCH  11  14
ENDBRANCH   4  11
BRANCH   3  22
ATOM     22  C   UNL     1      33.977 -13.465 -23.592  0.00  0.00    +0.184 C 
BRANCH  22  25
ATOM     23  O   UNL     1      31.962 -14.107 -22.422  0.00  0.00    -0.273 OA
ATOM     24  N   UNL     1      32.745 -11.929 -22.220  0.00  0.00    -0.299 N 
ATOM     25  C   UNL     1      32.792 -13.238 -22.677  0.00  0.00    +0.243 C 
ATOM     26  H   UNL     1      33.467 -11.314 -22.488  0.00  0.00    +0.150 HD
BRANCH  24  27
ATOM     27  C   UNL     1      31.692 -11.422 -21.369  0.00  0.00    +0.119 C 
BRANCH  27  29
ATOM     28  F   UNL     1      32.360 -10.145 -18.939  0.00  0.00    -0.204 F 
ATOM     29  C   UNL     1      31.756  -9.929 -21.224  0.00  0.00    +0.025 C 
ATOM     30  C   UNL     1      32.092  -9.368 -19.998  0.00  0.00    +0.138 C 
ATOM     31  C   UNL     1      31.477  -9.122 -22.321  0.00  0.00    -0.000 C 
ATOM     32  C   UNL     1      32.151  -7.981 -19.867  0.00  0.00    +0.029 C 
ATOM     33  C   UNL     1      31.536  -7.735 -22.190  0.00  0.00    -0.000 C 
ATOM     34  C   UNL     1      31.873  -7.164 -20.963  0.00  0.00    +0.002 C 
ENDBRANCH  27  29
ENDBRANCH  24  27
ENDBRANCH  22  25
ENDBRANCH   3  22
TORSDOF 7
ENDMDL
MODEL 4
REMARK VINA RESULT:     -11.3      1.717      2.039
REMARK  Name = 656913
REMARK  7 active torsions:
REMARK  status: ('A' for Active; 'I' for Inactive)
REMARK    1  A    between atoms: N_3  and  C_22
REMARK    2  A    between atoms: N_4  and  C_11
REMARK    3  A    between atoms: C_11  and  C_14
REMARK    4  A    between atoms: C_14  and  C_17
REMARK    5  A    between atoms: C_22  and  C_25
REMARK    6  A    between atoms: N_24  and  C_27
REMARK    7  A    between atoms: C_27  and  C_29
REMARK                            x       y       z     vdW  Elec       q    Type
REMARK                         _______ _______ _______ _____ _____    ______ ____
ROOT
ATOM      1 CL   UNL     1      33.105 -11.839 -23.642  0.00  0.00    -0.064 Cl
ATOM      2  O   UNL     1      32.246 -15.409 -20.211  0.00  0.00    -0.266 OA
ATOM      3  N   UNL     1      32.614 -13.727 -21.803  0.00  0.00    -0.233 N 
ATOM      4  N   UNL     1      34.488 -16.764 -20.838  0.00  0.00    -0.310 N 
ATOM      5  N   UNL     1      34.958 -15.139 -22.461  0.00  0.00    -0.223 NA
ATOM      6  C   UNL     1      34.192 -15.609 -21.517  0.00  0.00    +0.183 C 
ATOM      7  C   UNL     1      32.909 -14.900 -21.107  0.00  0.00    +0.285 C 
ATOM      8  C   UNL     1      33.475 -13.289 -22.790  0.00  0.00    +0.133 C 
ATOM      9  C   UNL     1      34.581 -13.982 -23.079  0.00  0.00    +0.127 C 
ATOM     10  H   UNL     1      33.872 -17.073 -20.134  0.00  0.00    +0.149 HD
ENDROOT
BRANCH   4  11
ATOM     11  C   UNL     1      35.659 -17.534 -21.117  0.00  0.00    +0.162 C 
BRANCH  11  14
ATOM     12  F   UNL     1      36.354 -19.191 -22.628  0.00  0.00    -0.196 F 
ATOM     13  F   UNL     1      34.302 -18.502 -22.769  0.00  0.00    -0.196 F 
ATOM     14  C   UNL     1      35.283 -18.809 -21.870  0.00  0.00    +0.317 C 
BRANCH  14  17
ATOM     15  O   UNL     1      37.059 -20.183 -20.274  0.00  0.00    -0.163 OA
ATOM     16  N   UNL     1      35.830 -20.506 -20.169  0.00  0.00    -0.128 N 
ATOM     17  C   UNL     1      34.853 -19.893 -20.912  0.00  0.00    +0.142 C 
ATOM     18  C   UNL     1      33.517 -20.233 -20.806  0.00  0.00    +0.022 C 
ATOM     19  C   UNL     1      35.454 -21.501 -19.287  0.00  0.00    +0.121 C 
ATOM     20  C   UNL     1      33.150 -21.235 -19.915  0.00  0.00    +0.003 C 
ATOM     21  C   UNL     1      34.121 -21.873 -19.150  0.00  0.00    +0.022 C 
ENDBRANCH  14  17
ENDBRANCH  11  14
ENDBRANCH   4  11
BRANCH   3  22
ATOM     22  C   UNL     1      31.400 -12.991 -21.467  0.00  0.00    +0.184 C 
BRANCH  22  25
ATOM     23  O   UNL     1      31.930 -12.117 -19.278  0.00  0.00    -0.273 OA
ATOM     24  N   UNL     1      31.716 -10.647 -21.065  0.00  0.00    -0.299 N 
ATOM     25  C   UNL     1      31.728 -11.900 -20.470  0.00  0.00    +0.243 C 
ATOM     26  H   UNL     1      31.542 -10.590 -22.033  0.00  0.00    +0.150 HD
BRANCH  24  27
ATOM     27  C   UNL     1      31.948  -9.420 -20.336  0.00  0.00    +0.119 C 
BRANCH  27  29
ATOM     28  F   UNL     1      32.865  -6.867 -19.542  0.00  0.00    -0.204 F 
ATOM     29  C   UNL     1      31.873  -8.214 -21.227  0.00  0.00    +0.025 C 
ATOM     30  C   UNL     1      32.344  -6.988 -20.771  0.00  0.00    +0.138 C 
ATOM     31  C   UNL     1      31.333  -8.337 -22.502  0.00  0.00    -0.000 C 
ATOM     32  C   UNL     1      32.273  -5.870 -21.602  0.00  0.00    +0.029 C 
ATOM     33  C   UNL     1      31.263  -7.219 -23.332  0.00  0.00    -0.000 C 
ATOM     34  C   UNL     1      31.732  -5.986 -22.882  0.00  0.00    +0.002 C 
ENDBRANCH  27  29
ENDBRANCH  24  27
ENDBRANCH  22  25
ENDBRANCH   3  22
TORSDOF 7
ENDMDL
MODEL 5
REMARK VINA RESULT:     -11.3      2.403      3.402
REMARK  Name = 656913
REMARK  7 active torsions:
REMARK  status: ('A' for Active; 'I' for Inactive)
REMARK    1  A    between atoms: N_3  and  C_22
REMARK    2  A    between atoms: N_4  and  C_11
REMARK    3  A    between atoms: C_11  and  C_14
REMARK    4  A    between atoms: C_14  and  C_17
REMARK    5  A    between atoms: C_22  and  C_25
REMARK    6  A    between atoms: N_24  and  C_27
REMARK    7  A    between atoms: C_27  and  C_29
REMARK                            x       y       z     vdW  Elec       q    Type
REMARK                         _______ _______ _______ _____ _____    ______ ____
ROOT
ATOM      1 CL   UNL     1      34.832 -16.307 -25.250  0.00  0.00    -0.064 Cl
ATOM      2  O   UNL     1      34.921 -16.901 -20.260  0.00  0.00    -0.266 OA
ATOM      3  N   UNL     1      34.878 -16.586 -22.584  0.00  0.00    -0.233 N 
ATOM      4  N   UNL     1      34.939 -19.588 -20.428  0.00  0.00    -0.310 N 
ATOM      5  N   UNL     1      34.897 -19.395 -22.764  0.00  0.00    -0.223 NA
ATOM      6  C   UNL     1      34.913 -18.846 -21.582  0.00  0.00    +0.183 C 
ATOM      7  C   UNL     1      34.904 -17.334 -21.406  0.00  0.00    +0.285 C 
ATOM      8  C   UNL     1      34.863 -17.238 -23.801  0.00  0.00    +0.133 C 
ATOM      9  C   UNL     1      34.873 -18.574 -23.854  0.00  0.00    +0.127 C 
ATOM     10  H   UNL     1      34.950 -19.121 -19.561  0.00  0.00    +0.149 HD
ENDROOT
BRANCH   4  11
ATOM     11  C   UNL     1      34.949 -21.017 -20.441  0.00  0.00    +0.162 C 
BRANCH  11  14
ATOM     12  F   UNL     1      36.729 -20.493 -19.002  0.00  0.00    -0.196 F 
ATOM     13  F   UNL     1      36.839 -22.365 -20.093  0.00  0.00    -0.196 F 
ATOM     14  C   UNL     1      35.970 -21.545 -19.433  0.00  0.00    +0.317 C 
BRANCH  14  17
ATOM     15  O   UNL     1      37.264 -22.212 -17.093  0.00  0.00    -0.163 OA
ATOM     16  N   UNL     1      36.031 -22.532 -17.175  0.00  0.00    -0.128 N 
ATOM     17  C   UNL     1      35.282 -22.251 -18.290  0.00  0.00    +0.142 C 
ATOM     18  C   UNL     1      33.946 -22.591 -18.391  0.00  0.00    +0.022 C 
ATOM     19  C   UNL     1      35.418 -23.178 -16.120  0.00  0.00    +0.121 C 
ATOM     20  C   UNL     1      33.338 -23.241 -17.322  0.00  0.00    +0.003 C 
ATOM     21  C   UNL     1      34.075 -23.537 -16.180  0.00  0.00    +0.022 C 
ENDBRANCH  14  17
ENDBRANCH  11  14
ENDBRANCH   4  11
BRANCH   3  22
ATOM     22  C   UNL     1      34.867 -15.130 -22.497  0.00  0.00    +0.184 C 
BRANCH  22  25
ATOM     23  O   UNL     1      32.667 -14.541 -23.307  0.00  0.00    -0.273 OA
ATOM     24  N   UNL     1      33.150 -14.285 -21.048  0.00  0.00    -0.299 N 
ATOM     25  C   UNL     1      33.440 -14.642 -22.357  0.00  0.00    +0.243 C 
ATOM     26  H   UNL     1      33.848 -14.409 -20.364  0.00  0.00    +0.150 HD
BRANCH  24  27
ATOM     27  C   UNL     1      31.875 -13.740 -20.637  0.00  0.00    +0.119 C 
BRANCH  27  29
ATOM     28  F   UNL     1      31.523 -12.225 -18.277  0.00  0.00    -0.204 F 
ATOM     29  C   UNL     1      31.884 -12.238 -20.624  0.00  0.00    +0.025 C 
ATOM     30  C   UNL     1      31.705 -11.557 -19.425  0.00  0.00    +0.138 C 
ATOM     31  C   UNL     1      32.072 -11.545 -21.814  0.00  0.00    -0.000 C 
ATOM     32  C   UNL     1      31.714 -10.163 -19.417  0.00  0.00    +0.029 C 
ATOM     33  C   UNL     1      32.081 -10.150 -21.804  0.00  0.00    -0.000 C 
ATOM     34  C   UNL     1      31.902  -9.459 -20.606  0.00  0.00    +0.002 C 
ENDBRANCH  27  29
ENDBRANCH  24  27
ENDBRANCH  22  25
ENDBRANCH   3  22
TORSDOF 7
ENDMDL
MODEL 6
REMARK VINA RESULT:     -11.1      3.057      4.428
REMARK  Name = 656913
REMARK  7 active torsions:
REMARK  status: ('A' for Active; 'I' for Inactive)
REMARK    1  A    between atoms: N_3  and  C_22
REMARK    2  A    between atoms: N_4  and  C_11
REMARK    3  A    between atoms: C_11  and  C_14
REMARK    4  A    between atoms: C_14  and  C_17
REMARK    5  A    between atoms: C_22  and  C_25
REMARK    6  A    between atoms: N_24  and  C_27
REMARK    7  A    between atoms: C_27  and  C_29
REMARK                            x       y       z     vdW  Elec       q    Type
REMARK                         _______ _______ _______ _____ _____    ______ ____
ROOT
ATOM      1 CL   UNL     1      30.327 -11.124 -19.172  0.00  0.00    -0.064 Cl
ATOM      2  O   UNL     1      33.035 -11.483 -23.390  0.00  0.00    -0.266 OA
ATOM      3  N   UNL     1      31.757 -11.283 -21.434  0.00  0.00    -0.233 N 
ATOM      4  N   UNL     1      34.186 -13.797 -22.634  0.00  0.00    -0.310 N 
ATOM      5  N   UNL     1      32.958 -13.701 -20.639  0.00  0.00    -0.223 NA
ATOM      6  C   UNL     1      33.282 -13.195 -21.795  0.00  0.00    +0.183 C 
ATOM      7  C   UNL     1      32.674 -11.890 -22.292  0.00  0.00    +0.285 C 
ATOM      8  C   UNL     1      31.462 -11.880 -20.224  0.00  0.00    +0.133 C 
ATOM      9  C   UNL     1      32.049 -13.029 -19.875  0.00  0.00    +0.127 C 
ATOM     10  H   UNL     1      34.394 -13.370 -23.496  0.00  0.00    +0.149 HD
ENDROOT
BRANCH   4  11
ATOM     11  C   UNL     1      34.836 -15.025 -22.298  0.00  0.00    +0.162 C 
BRANCH  11  14
ATOM     12  F   UNL     1      35.674 -15.708 -24.382  0.00  0.00    -0.196 F 
ATOM     13  F   UNL     1      33.527 -15.798 -24.087  0.00  0.00    -0.196 F 
ATOM     14  C   UNL     1      34.718 -16.016 -23.456  0.00  0.00    +0.317 C 
BRANCH  14  17
ATOM     15  O   UNL     1      34.304 -18.203 -25.080  0.00  0.00    -0.163 OA
ATOM     16  N   UNL     1      34.614 -18.444 -23.866  0.00  0.00    -0.128 N 
ATOM     17  C   UNL     1      34.844 -17.437 -22.963  0.00  0.00    +0.142 C 
ATOM     18  C   UNL     1      35.182 -17.685 -21.646  0.00  0.00    +0.022 C 
ATOM     19  C   UNL     1      34.725 -19.751 -23.432  0.00  0.00    +0.121 C 
ATOM     20  C   UNL     1      35.292 -19.004 -21.220  0.00  0.00    +0.003 C 
ATOM     21  C   UNL     1      35.063 -20.044 -22.115  0.00  0.00    +0.022 C 
ENDBRANCH  14  17
ENDBRANCH  11  14
ENDBRANCH   4  11
BRANCH   3  22
ATOM     22  C   UNL     1      31.133 -10.028 -21.839  0.00  0.00    +0.184 C 
BRANCH  22  25
ATOM     23  O   UNL     1      32.045  -8.356 -20.352  0.00  0.00    -0.273 OA
ATOM     24  N   UNL     1      32.793  -8.448 -22.551  0.00  0.00    -0.299 N 
ATOM     25  C   UNL     1      32.035  -8.870 -21.468  0.00  0.00    +0.243 C 
ATOM     26  H   UNL     1      32.705  -8.936 -23.401  0.00  0.00    +0.150 HD
BRANCH  24  27
ATOM     27  C   UNL     1      33.705  -7.327 -22.492  0.00  0.00    +0.119 C 
BRANCH  27  29
ATOM     28  F   UNL     1      31.647  -5.488 -21.884  0.00  0.00    -0.204 F 
ATOM     29  C   UNL     1      33.298  -6.222 -23.424  0.00  0.00    +0.025 C 
ATOM     30  C   UNL     1      32.277  -5.353 -23.059  0.00  0.00    +0.138 C 
ATOM     31  C   UNL     1      33.949  -6.081 -24.644  0.00  0.00    -0.000 C 
ATOM     32  C   UNL     1      31.901  -4.328 -23.927  0.00  0.00    +0.029 C 
ATOM     33  C   UNL     1      33.573  -5.056 -25.511  0.00  0.00    -0.000 C 
ATOM     34  C   UNL     1      32.550  -4.179 -25.153  0.00  0.00    +0.002 C 
ENDBRANCH  27  29
ENDBRANCH  24  27
ENDBRANCH  22  25
ENDBRANCH   3  22
TORSDOF 7
ENDMDL
MODEL 7
REMARK VINA RESULT:     -11.1      1.889      2.282
REMARK  Name = 656913
REMARK  7 active torsions:
REMARK  status: ('A' for Active; 'I' for Inactive)
REMARK    1  A    between atoms: N_3  and  C_22
REMARK    2  A    between atoms: N_4  and  C_11
REMARK    3  A    between atoms: C_11  and  C_14
REMARK    4  A    between atoms: C_14  and  C_17
REMARK    5  A    between atoms: C_22  and  C_25
REMARK    6  A    between atoms: N_24  and  C_27
REMARK    7  A    between atoms: C_27  and  C_29
REMARK                            x       y       z     vdW  Elec       q    Type
REMARK                         _______ _______ _______ _____ _____    ______ ____
ROOT
ATOM      1 CL   UNL     1      31.237 -12.202 -20.719  0.00  0.00    -0.064 Cl
ATOM      2  O   UNL     1      34.181 -14.771 -23.878  0.00  0.00    -0.266 OA
ATOM      3  N   UNL     1      32.800 -13.547 -22.431  0.00  0.00    -0.233 N 
ATOM      4  N   UNL     1      34.900 -16.558 -21.995  0.00  0.00    -0.310 N 
ATOM      5  N   UNL     1      33.548 -15.412 -20.461  0.00  0.00    -0.223 NA
ATOM      6  C   UNL     1      34.036 -15.545 -21.662  0.00  0.00    +0.183 C 
ATOM      7  C   UNL     1      33.677 -14.575 -22.779  0.00  0.00    +0.285 C 
ATOM      8  C   UNL     1      32.321 -13.472 -21.138  0.00  0.00    +0.133 C 
ATOM      9  C   UNL     1      32.695 -14.373 -20.225  0.00  0.00    +0.127 C 
ATOM     10  H   UNL     1      35.239 -16.610 -22.919  0.00  0.00    +0.149 HD
ENDROOT
BRANCH   4  11
ATOM     11  C   UNL     1      35.324 -17.541 -21.049  0.00  0.00    +0.162 C 
BRANCH  11  14
ATOM     12  F   UNL     1      36.683 -19.041 -22.239  0.00  0.00    -0.196 F 
ATOM     13  F   UNL     1      34.592 -18.918 -22.803  0.00  0.00    -0.196 F 
ATOM     14  C   UNL     1      35.425 -18.910 -21.721  0.00  0.00    +0.317 C 
BRANCH  14  17
ATOM     15  O   UNL     1      37.336 -20.156 -20.177  0.00  0.00    -0.163 OA
ATOM     16  N   UNL     1      36.134 -20.558 -20.032  0.00  0.00    -0.128 N 
ATOM     17  C   UNL     1      35.096 -20.014 -20.746  0.00  0.00    +0.142 C 
ATOM     18  C   UNL     1      33.789 -20.439 -20.597  0.00  0.00    +0.022 C 
ATOM     19  C   UNL     1      35.851 -21.570 -19.135  0.00  0.00    +0.121 C 
ATOM     20  C   UNL     1      33.516 -21.458 -19.691  0.00  0.00    +0.003 C 
ATOM     21  C   UNL     1      34.550 -22.027 -18.955  0.00  0.00    +0.022 C 
ENDBRANCH  14  17
ENDBRANCH  11  14
ENDBRANCH   4  11
BRANCH   3  22
ATOM     22  C   UNL     1      32.410 -12.576 -23.448  0.00  0.00    +0.184 C 
BRANCH  22  25
ATOM     23  O   UNL     1      34.561 -11.532 -23.798  0.00  0.00    -0.273 OA
ATOM     24  N   UNL     1      32.806 -10.262 -22.956  0.00  0.00    -0.299 N 
ATOM     25  C   UNL     1      33.388 -11.421 -23.447  0.00  0.00    +0.243 C 
ATOM     26  H   UNL     1      31.855 -10.287 -22.703  0.00  0.00    +0.150 HD
BRANCH  24  27
ATOM     27  C   UNL     1      33.526  -9.018 -22.798  0.00  0.00    +0.119 C 
BRANCH  27  29
ATOM     28  F   UNL     1      33.515  -7.833 -20.232  0.00  0.00    -0.204 F 
ATOM     29  C   UNL     1      32.614  -7.884 -22.428  0.00  0.00    +0.025 C 
ATOM     30  C   UNL     1      32.663  -7.348 -21.146  0.00  0.00    +0.138 C 
ATOM     31  C   UNL     1      31.729  -7.381 -23.374  0.00  0.00    -0.000 C 
ATOM     32  C   UNL     1      31.815  -6.296 -20.806  0.00  0.00    +0.029 C 
ATOM     33  C   UNL     1      30.881  -6.327 -23.033  0.00  0.00    -0.000 C 
ATOM     34  C   UNL     1      30.924  -5.785 -21.750  0.00  0.00    +0.002 C 
ENDBRANCH  27  29
ENDBRANCH  24  27
ENDBRANCH  22  25
ENDBRANCH   3  22
TORSDOF 7
ENDMDL
MODEL 8
REMARK VINA RESULT:     -10.8      3.147     10.517
REMARK  Name = 656913
REMARK  7 active torsions:
REMARK  status: ('A' for Active; 'I' for Inactive)
REMARK    1  A    between atoms: N_3  and  C_22
REMARK    2  A    between atoms: N_4  and  C_11
REMARK    3  A    between atoms: C_11  and  C_14
REMARK    4  A    between atoms: C_14  and  C_17
REMARK    5  A    between atoms: C_22  and  C_25
REMARK    6  A    between atoms: N_24  and  C_27
REMARK    7  A    between atoms: C_27  and  C_29
REMARK                            x       y       z     vdW  Elec       q    Type
REMARK                         _______ _______ _______ _____ _____    ______ ____
ROOT
ATOM      1 CL   UNL     1      35.230 -20.238 -24.190  0.00  0.00    -0.064 Cl
ATOM      2  O   UNL     1      35.381 -17.159 -20.221  0.00  0.00    -0.266 OA
ATOM      3  N   UNL     1      35.324 -18.624 -22.051  0.00  0.00    -0.233 N 
ATOM      4  N   UNL     1      34.567 -15.028 -21.652  0.00  0.00    -0.310 N 
ATOM      5  N   UNL     1      34.472 -16.399 -23.550  0.00  0.00    -0.223 NA
ATOM      6  C   UNL     1      34.713 -16.239 -22.280  0.00  0.00    +0.183 C 
ATOM      7  C   UNL     1      35.177 -17.396 -21.406  0.00  0.00    +0.285 C 
ATOM      8  C   UNL     1      35.048 -18.717 -23.401  0.00  0.00    +0.133 C 
ATOM      9  C   UNL     1      34.645 -17.642 -24.086  0.00  0.00    +0.127 C 
ATOM     10  H   UNL     1      34.764 -14.964 -20.689  0.00  0.00    +0.149 HD
ENDROOT
BRANCH   4  11
ATOM     11  C   UNL     1      34.139 -13.855 -22.347  0.00  0.00    +0.162 C 
BRANCH  11  14
ATOM     12  F   UNL     1      32.167 -14.631 -21.336  0.00  0.00    -0.196 F 
ATOM     13  F   UNL     1      32.044 -13.970 -23.399  0.00  0.00    -0.196 F 
ATOM     14  C   UNL     1      32.628 -13.678 -22.200  0.00  0.00    +0.317 C 
BRANCH  14  17
ATOM     15  O   UNL     1      33.347 -11.420 -23.606  0.00  0.00    -0.163 OA
ATOM     16  N   UNL     1      32.706 -11.235 -22.519  0.00  0.00    -0.128 N 
ATOM     17  C   UNL     1      32.294 -12.282 -21.733  0.00  0.00    +0.142 C 
ATOM     18  C   UNL     1      31.596 -12.096 -20.555  0.00  0.00    +0.022 C 
ATOM     19  C   UNL     1      32.408  -9.951 -22.107  0.00  0.00    +0.121 C 
ATOM     20  C   UNL     1      31.301 -10.798 -20.150  0.00  0.00    +0.003 C 
ATOM     21  C   UNL     1      31.708  -9.719 -20.928  0.00  0.00    +0.022 C 
ENDBRANCH  14  17
ENDBRANCH  11  14
ENDBRANCH   4  11
BRANCH   3  22
ATOM     22  C   UNL     1      35.766 -19.780 -21.280  0.00  0.00    +0.184 C 
BRANCH  22  25
ATOM     23  O   UNL     1      33.422 -20.020 -20.744  0.00  0.00    -0.273 OA
ATOM     24  N   UNL     1      34.954 -21.506 -19.824  0.00  0.00    -0.299 N 
ATOM     25  C   UNL     1      34.572 -20.434 -20.617  0.00  0.00    +0.243 C 
ATOM     26  H   UNL     1      35.907 -21.752 -19.797  0.00  0.00    +0.150 HD
BRANCH  24  27
ATOM     27  C   UNL     1      34.022 -22.283 -19.036  0.00  0.00    +0.119 C 
BRANCH  27  29
ATOM     28  F   UNL     1      32.527 -23.615 -17.042  0.00  0.00    -0.204 F 
ATOM     29  C   UNL     1      34.609 -22.695 -17.717  0.00  0.00    +0.025 C 
ATOM     30  C   UNL     1      33.814 -23.348 -16.782  0.00  0.00    +0.138 C 
ATOM     31  C   UNL     1      35.943 -22.418 -17.446  0.00  0.00    -0.000 C 
ATOM     32  C   UNL     1      34.363 -23.730 -15.558  0.00  0.00    +0.029 C 
ATOM     33  C   UNL     1      36.491 -22.801 -16.222  0.00  0.00    -0.000 C 
ATOM     34  C   UNL     1      35.701 -23.456 -15.278  0.00  0.00    +0.002 C 
ENDBRANCH  27  29
ENDBRANCH  24  27
ENDBRANCH  22  25
ENDBRANCH   3  22
TORSDOF 7
ENDMDL
MODEL 9
REMARK VINA RESULT:     -10.8      3.925     11.344
REMARK  Name = 656913
REMARK  7 active torsions:
REMARK  status: ('A' for Active; 'I' for Inactive)
REMARK    1  A    between atoms: N_3  and  C_22
REMARK    2  A    between atoms: N_4  and  C_11
REMARK    3  A    between atoms: C_11  and  C_14
REMARK    4  A    between atoms: C_14  and  C_17
REMARK    5  A    between atoms: C_22  and  C_25
REMARK    6  A    between atoms: N_24  and  C_27
REMARK    7  A    between atoms: C_27  and  C_29
REMARK                            x       y       z     vdW  Elec       q    Type
REMARK                         _______ _______ _______ _____ _____    ______ ____
ROOT
ATOM      1 CL   UNL     1      30.905 -11.176 -18.383  0.00  0.00    -0.064 Cl
ATOM      2  O   UNL     1      32.314 -10.773 -23.190  0.00  0.00    -0.266 OA
ATOM      3  N   UNL     1      31.644 -10.996 -20.954  0.00  0.00    -0.233 N 
ATOM      4  N   UNL     1      33.189  -8.246 -22.880  0.00  0.00    -0.310 N 
ATOM      5  N   UNL     1      32.558  -8.355 -20.625  0.00  0.00    -0.223 NA
ATOM      6  C   UNL     1      32.657  -8.906 -21.801  0.00  0.00    +0.183 C 
ATOM      7  C   UNL     1      32.184 -10.331 -22.055  0.00  0.00    +0.285 C 
ATOM      8  C   UNL     1      31.572 -10.346 -19.737  0.00  0.00    +0.133 C 
ATOM      9  C   UNL     1      32.015  -9.091 -19.613  0.00  0.00    +0.127 C 
ATOM     10  H   UNL     1      33.240  -8.711 -23.746  0.00  0.00    +0.149 HD
ENDROOT
BRANCH   4  11
ATOM     11  C   UNL     1      33.673  -6.904 -22.789  0.00  0.00    +0.162 C 
BRANCH  11  14
ATOM     12  F   UNL     1      32.300  -5.076 -22.255  0.00  0.00    -0.196 F 
ATOM     13  F   UNL     1      31.459  -6.626 -23.518  0.00  0.00    -0.196 F 
ATOM     14  C   UNL     1      32.607  -5.926 -23.280  0.00  0.00    +0.317 C 
BRANCH  14  17
ATOM     15  O   UNL     1      31.290  -3.732 -24.303  0.00  0.00    -0.163 OA
ATOM     16  N   UNL     1      32.341  -4.106 -24.921  0.00  0.00    -0.128 N 
ATOM     17  C   UNL     1      33.081  -5.185 -24.507  0.00  0.00    +0.142 C 
ATOM     18  C   UNL     1      34.222  -5.599 -25.167  0.00  0.00    +0.022 C 
ATOM     19  C   UNL     1      32.760  -3.416 -26.042  0.00  0.00    +0.121 C 
ATOM     20  C   UNL     1      34.636  -4.897 -26.294  0.00  0.00    +0.003 C 
ATOM     21  C   UNL     1      33.903  -3.800 -26.736  0.00  0.00    +0.022 C 
ENDBRANCH  14  17
ENDBRANCH  11  14
ENDBRANCH   4  11
BRANCH   3  22
ATOM     22  C   UNL     1      31.167 -12.365 -21.118  0.00  0.00    +0.184 C 
BRANCH  22  25
ATOM     23  O   UNL     1      32.414 -13.929 -19.762  0.00  0.00    -0.273 OA
ATOM     24  N   UNL     1      33.184 -13.409 -21.892  0.00  0.00    -0.299 N 
ATOM     25  C   UNL     1      32.295 -13.333 -20.830  0.00  0.00    +0.243 C 
ATOM     26  H   UNL     1      32.989 -12.886 -22.703  0.00  0.00    +0.150 HD
BRANCH  24  27
ATOM     27  C   UNL     1      34.381 -14.221 -21.869  0.00  0.00    +0.119 C 
BRANCH  27  29
ATOM     28  F   UNL     1      35.412 -16.831 -21.540  0.00  0.00    -0.204 F 
ATOM     29  C   UNL     1      34.391 -15.238 -22.974  0.00  0.00    +0.025 C 
ATOM     30  C   UNL     1      34.914 -16.504 -22.741  0.00  0.00    +0.138 C 
ATOM     31  C   UNL     1      33.877 -14.900 -24.220  0.00  0.00    -0.000 C 
ATOM     32  C   UNL     1      34.923 -17.446 -23.769  0.00  0.00    +0.029 C 
ATOM     33  C   UNL     1      33.886 -15.843 -25.248  0.00  0.00    -0.000 C 
ATOM     34  C   UNL     1      34.408 -17.115 -25.023  0.00  0.00    +0.002 C 
ENDBRANCH  27  29
ENDBRANCH  24  27
ENDBRANCH  22  25
ENDBRANCH   3  22
TORSDOF 7
ENDMDL
