MODEL 1
REMARK VINA RESULT:     -11.0      0.000      0.000
REMARK  Name = 9910098
REMARK  9 active torsions:
REMARK  status: ('A' for Active; 'I' for Inactive)
REMARK    1  A    between atoms: N_1  and  C1*_12
REMARK    2  A    between atoms: C_9  and  O_25
REMARK    3  A    between atoms: C2*_11  and  O2*_15
REMARK    4  A    between atoms: C3*_13  and  O3*_17
REMARK    5  A    between atoms: C4*_14  and  C5*_19
REMARK    6  A    between atoms: C5*_19  and  O5*_20
REMARK    7  A    between atoms: O_25  and  C_26
REMARK    8  A    between atoms: C_26  and  C_27
REMARK    9  A    between atoms: C_27  and  C_29
REMARK                            x       y       z     vdW  Elec       q    Type
REMARK                         _______ _______ _______ _____ _____    ______ ____
ROOT
ATOM      1  N   UNL     1      34.691 -23.770 -14.697  0.00  0.00    -0.236 N 
ATOM      2  N   UNL     1      32.486 -23.766 -14.351  0.00  0.00    -0.240 NA
ATOM      3  N   UNL     1      34.743 -23.137 -17.043  0.00  0.00    -0.294 NA
ATOM      4  N   UNL     1      32.491 -22.800 -17.922  0.00  0.00    -0.295 NA
ATOM      5  C   UNL     1      34.119 -23.422 -15.889  0.00  0.00    +0.223 C 
ATOM      6  C   UNL     1      33.667 -23.967 -13.806  0.00  0.00    +0.224 C 
ATOM      7  C   UNL     1      32.753 -23.425 -15.653  0.00  0.00    +0.167 C 
ATOM      8  C   UNL     1      31.929 -23.098 -16.726  0.00  0.00    +0.214 C 
ATOM      9  C   UNL     1      33.843 -22.838 -18.004  0.00  0.00    +0.313 C 
ATOM     10  N   UNL     1      30.531 -23.078 -16.577  0.00  0.00    -0.331 N 
ATOM     11  H   UNL     1      29.959 -22.846 -17.342  0.00  0.00    +0.145 HD
ATOM     12  H   UNL     1      30.126 -23.296 -15.706  0.00  0.00    +0.145 HD
ENDROOT
BRANCH   1  15
ATOM     13  O4* UNL     1      36.619 -25.103 -15.070  0.00  0.00    -0.333 OA
ATOM     14  C2* UNL     1      36.446 -24.034 -12.928  0.00  0.00    +0.187 C 
ATOM     15  C1* UNL     1      36.120 -23.915 -14.418  0.00  0.00    +0.226 C 
ATOM     16  C3* UNL     1      36.718 -25.516 -12.760  0.00  0.00    +0.171 C 
ATOM     17  C4* UNL     1      37.333 -25.885 -14.099  0.00  0.00    +0.175 C 
BRANCH  14  18
ATOM     18  O2* UNL     1      37.608 -23.258 -12.638  0.00  0.00    -0.378 OA
ATOM     19  H2* UNL     1      38.293 -23.832 -12.260  0.00  0.00    +0.211 HD
ENDBRANCH  14  18
BRANCH  16  20
ATOM     20  O3* UNL     1      37.578 -25.812 -11.681  0.00  0.00    -0.379 OA
ATOM     21  H3* UNL     1      37.688 -25.022 -11.129  0.00  0.00    +0.211 HD
ENDBRANCH  16  20
BRANCH  17  22
ATOM     22  C5* UNL     1      37.209 -27.360 -14.436  0.00  0.00    +0.169 C 
BRANCH  22  23
ATOM     23  O5* UNL     1      36.793 -27.485 -15.785  0.00  0.00    -0.379 OA
ATOM     24  H5* UNL     1      37.564 -27.416 -16.369  0.00  0.00    +0.211 HD
ENDBRANCH  22  23
ENDBRANCH  17  22
ENDBRANCH   1  15
BRANCH   9  25
ATOM     25  O   UNL     1      34.372 -22.523 -19.237  0.00  0.00    -0.399 OA
BRANCH  25  26
ATOM     26  C   UNL     1      34.197 -21.184 -19.677  0.00  0.00    +0.227 C 
BRANCH  26  27
ATOM     27  C   UNL     1      35.512 -20.648 -20.232  0.00  0.00    +0.075 C 
BRANCH  27  29
ATOM     28 CL   UNL     1      34.681 -16.669 -24.648  0.00  0.00    -0.082 Cl
ATOM     29  C   UNL     1      35.301 -19.647 -21.341  0.00  0.00    -0.018 C 
ATOM     30  C   UNL     1      34.967 -20.099 -22.608  0.00  0.00    -0.003 C 
ATOM     31  C   UNL     1      35.448 -18.295 -21.074  0.00  0.00    -0.003 C 
ATOM     32  C   UNL     1      34.773 -19.174 -23.635  0.00  0.00    +0.011 C 
ATOM     33  C   UNL     1      35.255 -17.370 -22.101  0.00  0.00    +0.011 C 
ATOM     34  C   UNL     1      34.917 -17.810 -23.381  0.00  0.00    +0.058 C 
ENDBRANCH  27  29
ENDBRANCH  26  27
ENDBRANCH  25  26
ENDBRANCH   9  25
TORSDOF 9
ENDMDL
MODEL 2
REMARK VINA RESULT:     -10.7      1.027      1.514
REMARK  Name = 9910098
REMARK  9 active torsions:
REMARK  status: ('A' for Active; 'I' for Inactive)
REMARK    1  A    between atoms: N_1  and  C1*_12
REMARK    2  A    between atoms: C_9  and  O_25
REMARK    3  A    between atoms: C2*_11  and  O2*_15
REMARK    4  A    between atoms: C3*_13  and  O3*_17
REMARK    5  A    between atoms: C4*_14  and  C5*_19
REMARK    6  A    between atoms: C5*_19  and  O5*_20
REMARK    7  A    between atoms: O_25  and  C_26
REMARK    8  A    between atoms: C_26  and  C_27
REMARK    9  A    between atoms: C_27  and  C_29
REMARK                            x       y       z     vdW  Elec       q    Type
REMARK                         _______ _______ _______ _____ _____    ______ ____
ROOT
ATOM      1  N   UNL     1      34.524 -24.144 -14.975  0.00  0.00    -0.236 N 
ATOM      2  N   UNL     1      32.337 -23.922 -14.588  0.00  0.00    -0.240 NA
ATOM      3  N   UNL     1      34.630 -23.296 -17.250  0.00  0.00    -0.294 NA
ATOM      4  N   UNL     1      32.426 -22.618 -18.049  0.00  0.00    -0.295 NA
ATOM      5  C   UNL     1      33.986 -23.618 -16.117  0.00  0.00    +0.223 C 
ATOM      6  C   UNL     1      33.491 -24.309 -14.088  0.00  0.00    +0.224 C 
ATOM      7  C   UNL     1      32.632 -23.488 -15.857  0.00  0.00    +0.167 C 
ATOM      8  C   UNL     1      31.843 -22.966 -16.877  0.00  0.00    +0.214 C 
ATOM      9  C   UNL     1      33.764 -22.803 -18.160  0.00  0.00    +0.313 C 
ATOM     10  N   UNL     1      30.458 -22.801 -16.700  0.00  0.00    -0.331 N 
ATOM     11  H   UNL     1      29.910 -22.430 -17.429  0.00  0.00    +0.145 HD
ATOM     12  H   UNL     1      30.037 -23.055 -15.847  0.00  0.00    +0.145 HD
ENDROOT
BRANCH   1  15
ATOM     13  O4* UNL     1      36.014 -25.527 -13.749  0.00  0.00    -0.333 OA
ATOM     14  C2* UNL     1      36.765 -23.301 -14.238  0.00  0.00    +0.187 C 
ATOM     15  C1* UNL     1      35.929 -24.479 -14.739  0.00  0.00    +0.226 C 
ATOM     16  C3* UNL     1      36.910 -23.595 -12.757  0.00  0.00    +0.171 C 
ATOM     17  C4* UNL     1      36.941 -25.113 -12.732  0.00  0.00    +0.175 C 
BRANCH  14  18
ATOM     18  O2* UNL     1      38.032 -23.311 -14.894  0.00  0.00    -0.378 OA
ATOM     19  H2* UNL     1      38.286 -24.226 -15.092  0.00  0.00    +0.211 HD
ENDBRANCH  14  18
BRANCH  16  20
ATOM     20  O3* UNL     1      38.067 -23.030 -12.182  0.00  0.00    -0.379 OA
ATOM     21  H3* UNL     1      37.810 -22.379 -11.510  0.00  0.00    +0.211 HD
ENDBRANCH  16  20
BRANCH  17  22
ATOM     22  C5* UNL     1      36.535 -25.705 -11.395  0.00  0.00    +0.169 C 
BRANCH  22  23
ATOM     23  O5* UNL     1      35.151 -25.474 -11.197  0.00  0.00    -0.379 OA
ATOM     24  H5* UNL     1      34.978 -24.520 -11.199  0.00  0.00    +0.211 HD
ENDBRANCH  22  23
ENDBRANCH  17  22
ENDBRANCH   1  15
BRANCH   9  25
ATOM     25  O   UNL     1      34.317 -22.431 -19.367  0.00  0.00    -0.399 OA
BRANCH  25  26
ATOM     26  C   UNL     1      34.186 -21.064 -19.729  0.00  0.00    +0.227 C 
BRANCH  26  27
ATOM     27  C   UNL     1      35.507 -20.552 -20.292  0.00  0.00    +0.075 C 
BRANCH  27  29
ATOM     28 CL   UNL     1      34.719 -16.678 -24.808  0.00  0.00    -0.082 Cl
ATOM     29  C   UNL     1      35.307 -19.577 -21.427  0.00  0.00    -0.018 C 
ATOM     30  C   UNL     1      34.881 -20.048 -22.659  0.00  0.00    -0.003 C 
ATOM     31  C   UNL     1      35.555 -18.230 -21.217  0.00  0.00    -0.003 C 
ATOM     32  C   UNL     1      34.697 -19.148 -23.708  0.00  0.00    +0.011 C 
ATOM     33  C   UNL     1      35.372 -17.329 -22.267  0.00  0.00    +0.011 C 
ATOM     34  C   UNL     1      34.943 -17.789 -23.513  0.00  0.00    +0.058 C 
ENDBRANCH  27  29
ENDBRANCH  26  27
ENDBRANCH  25  26
ENDBRANCH   9  25
TORSDOF 9
ENDMDL
MODEL 3
REMARK VINA RESULT:     -10.7      1.229      1.698
REMARK  Name = 9910098
REMARK  9 active torsions:
REMARK  status: ('A' for Active; 'I' for Inactive)
REMARK    1  A    between atoms: N_1  and  C1*_12
REMARK    2  A    between atoms: C_9  and  O_25
REMARK    3  A    between atoms: C2*_11  and  O2*_15
REMARK    4  A    between atoms: C3*_13  and  O3*_17
REMARK    5  A    between atoms: C4*_14  and  C5*_19
REMARK    6  A    between atoms: C5*_19  and  O5*_20
REMARK    7  A    between atoms: O_25  and  C_26
REMARK    8  A    between atoms: C_26  and  C_27
REMARK    9  A    between atoms: C_27  and  C_29
REMARK                            x       y       z     vdW  Elec       q    Type
REMARK                         _______ _______ _______ _____ _____    ______ ____
ROOT
ATOM      1  N   UNL     1      34.280 -24.189 -14.007  0.00  0.00    -0.236 N 
ATOM      2  N   UNL     1      32.221 -24.485 -13.201  0.00  0.00    -0.240 NA
ATOM      3  N   UNL     1      33.740 -23.380 -16.234  0.00  0.00    -0.294 NA
ATOM      4  N   UNL     1      31.326 -23.260 -16.575  0.00  0.00    -0.295 NA
ATOM      5  C   UNL     1      33.423 -23.826 -15.009  0.00  0.00    +0.223 C 
ATOM      6  C   UNL     1      33.508 -24.578 -12.943  0.00  0.00    +0.224 C 
ATOM      7  C   UNL     1      32.153 -24.016 -14.489  0.00  0.00    +0.167 C 
ATOM      8  C   UNL     1      31.080 -23.715 -15.322  0.00  0.00    +0.214 C 
ATOM      9  C   UNL     1      32.622 -23.124 -16.947  0.00  0.00    +0.313 C 
ATOM     10  N   UNL     1      29.757 -23.880 -14.878  0.00  0.00    -0.331 N 
ATOM     11  H   UNL     1      29.006 -23.664 -15.476  0.00  0.00    +0.145 HD
ATOM     12  H   UNL     1      29.582 -24.211 -13.967  0.00  0.00    +0.145 HD
ENDROOT
BRANCH   1  15
ATOM     13  O4* UNL     1      36.207 -25.280 -14.862  0.00  0.00    -0.333 OA
ATOM     14  C2* UNL     1      36.403 -24.296 -12.682  0.00  0.00    +0.187 C 
ATOM     15  C1* UNL     1      35.743 -24.176 -14.056  0.00  0.00    +0.226 C 
ATOM     16  C3* UNL     1      36.863 -25.742 -12.654  0.00  0.00    +0.171 C 
ATOM     17  C4* UNL     1      37.199 -26.001 -14.113  0.00  0.00    +0.175 C 
BRANCH  14  18
ATOM     18  O2* UNL     1      37.512 -23.400 -12.612  0.00  0.00    -0.378 OA
ATOM     19  H2* UNL     1      38.335 -23.894 -12.751  0.00  0.00    +0.211 HD
ENDBRANCH  14  18
BRANCH  16  20
ATOM     20  O3* UNL     1      37.968 -25.965 -11.806  0.00  0.00    -0.379 OA
ATOM     21  H3* UNL     1      37.654 -26.218 -10.925  0.00  0.00    +0.211 HD
ENDBRANCH  16  20
BRANCH  17  22
ATOM     22  C5* UNL     1      37.160 -27.470 -14.491  0.00  0.00    +0.169 C 
BRANCH  22  23
ATOM     23  O5* UNL     1      36.816 -27.578 -15.861  0.00  0.00    -0.379 OA
ATOM     24  H5* UNL     1      37.062 -26.761 -16.322  0.00  0.00    +0.211 HD
ENDBRANCH  22  23
ENDBRANCH  17  22
ENDBRANCH   1  15
BRANCH   9  25
ATOM     25  O   UNL     1      32.826 -22.653 -18.226  0.00  0.00    -0.399 OA
BRANCH  25  26
ATOM     26  C   UNL     1      33.932 -23.197 -18.932  0.00  0.00    +0.227 C 
BRANCH  26  27
ATOM     27  C   UNL     1      35.171 -22.343 -18.686  0.00  0.00    +0.075 C 
BRANCH  27  29
ATOM     28 CL   UNL     1      35.671 -17.864 -22.649  0.00  0.00    -0.082 Cl
ATOM     29  C   UNL     1      35.297 -21.216 -19.681  0.00  0.00    -0.018 C 
ATOM     30  C   UNL     1      34.160 -20.741 -20.317  0.00  0.00    -0.003 C 
ATOM     31  C   UNL     1      36.546 -20.676 -19.943  0.00  0.00    -0.003 C 
ATOM     32  C   UNL     1      34.276 -19.700 -21.238  0.00  0.00    +0.011 C 
ATOM     33  C   UNL     1      36.662 -19.635 -20.864  0.00  0.00    +0.011 C 
ATOM     34  C   UNL     1      35.527 -19.147 -21.511  0.00  0.00    +0.058 C 
ENDBRANCH  27  29
ENDBRANCH  26  27
ENDBRANCH  25  26
ENDBRANCH   9  25
TORSDOF 9
ENDMDL
MODEL 4
REMARK VINA RESULT:     -10.6      1.386      2.006
REMARK  Name = 9910098
REMARK  9 active torsions:
REMARK  status: ('A' for Active; 'I' for Inactive)
REMARK    1  A    between atoms: N_1  and  C1*_12
REMARK    2  A    between atoms: C_9  and  O_25
REMARK    3  A    between atoms: C2*_11  and  O2*_15
REMARK    4  A    between atoms: C3*_13  and  O3*_17
REMARK    5  A    between atoms: C4*_14  and  C5*_19
REMARK    6  A    between atoms: C5*_19  and  O5*_20
REMARK    7  A    between atoms: O_25  and  C_26
REMARK    8  A    between atoms: C_26  and  C_27
REMARK    9  A    between atoms: C_27  and  C_29
REMARK                            x       y       z     vdW  Elec       q    Type
REMARK                         _______ _______ _______ _____ _____    ______ ____
ROOT
ATOM      1  N   UNL     1      34.445 -24.315 -14.362  0.00  0.00    -0.236 N 
ATOM      2  N   UNL     1      32.483 -24.226 -13.303  0.00  0.00    -0.240 NA
ATOM      3  N   UNL     1      33.769 -23.515 -16.554  0.00  0.00    -0.294 NA
ATOM      4  N   UNL     1      31.384 -23.001 -16.615  0.00  0.00    -0.295 NA
ATOM      5  C   UNL     1      33.540 -23.852 -15.276  0.00  0.00    +0.223 C 
ATOM      6  C   UNL     1      33.760 -24.526 -13.193  0.00  0.00    +0.224 C 
ATOM      7  C   UNL     1      32.332 -23.804 -14.600  0.00  0.00    +0.167 C 
ATOM      8  C   UNL     1      31.227 -23.358 -15.318  0.00  0.00    +0.214 C 
ATOM      9  C   UNL     1      32.628 -23.101 -17.144  0.00  0.00    +0.313 C 
ATOM     10  N   UNL     1      29.961 -23.279 -14.712  0.00  0.00    -0.331 N 
ATOM     11  H   UNL     1      29.187 -22.962 -15.230  0.00  0.00    +0.145 HD
ATOM     12  H   UNL     1      29.850 -23.540 -13.769  0.00  0.00    +0.145 HD
ENDROOT
BRANCH   1  15
ATOM     13  O4* UNL     1      36.219 -25.874 -14.114  0.00  0.00    -0.333 OA
ATOM     14  C2* UNL     1      36.780 -23.554 -13.861  0.00  0.00    +0.187 C 
ATOM     15  C1* UNL     1      35.873 -24.553 -14.582  0.00  0.00    +0.226 C 
ATOM     16  C3* UNL     1      37.287 -24.354 -12.676  0.00  0.00    +0.171 C 
ATOM     17  C4* UNL     1      37.356 -25.761 -13.243  0.00  0.00    +0.175 C 
BRANCH  14  18
ATOM     18  O2* UNL     1      37.849 -23.180 -14.728  0.00  0.00    -0.378 OA
ATOM     19  H2* UNL     1      37.486 -22.805 -15.546  0.00  0.00    +0.211 HD
ENDBRANCH  14  18
BRANCH  16  20
ATOM     20  O3* UNL     1      38.537 -23.913 -12.193  0.00  0.00    -0.379 OA
ATOM     21  H3* UNL     1      38.536 -23.939 -11.224  0.00  0.00    +0.211 HD
ENDBRANCH  16  20
BRANCH  17  22
ATOM     22  C5* UNL     1      37.301 -26.845 -12.182  0.00  0.00    +0.169 C 
BRANCH  22  23
ATOM     23  O5* UNL     1      36.638 -26.329 -11.041  0.00  0.00    -0.379 OA
ATOM     24  H5* UNL     1      35.682 -26.312 -11.201  0.00  0.00    +0.211 HD
ENDBRANCH  22  23
ENDBRANCH  17  22
ENDBRANCH   1  15
BRANCH   9  25
ATOM     25  O   UNL     1      32.744 -22.722 -18.464  0.00  0.00    -0.399 OA
BRANCH  25  26
ATOM     26  C   UNL     1      33.912 -23.154 -19.147  0.00  0.00    +0.227 C 
BRANCH  26  27
ATOM     27  C   UNL     1      35.079 -22.236 -18.800  0.00  0.00    +0.075 C 
BRANCH  27  29
ATOM     28 CL   UNL     1      35.651 -17.709 -22.698  0.00  0.00    -0.082 Cl
ATOM     29  C   UNL     1      35.224 -21.096 -19.778  0.00  0.00    -0.018 C 
ATOM     30  C   UNL     1      34.093 -20.587 -20.399  0.00  0.00    -0.003 C 
ATOM     31  C   UNL     1      36.483 -20.581 -20.041  0.00  0.00    -0.003 C 
ATOM     32  C   UNL     1      34.226 -19.535 -21.305  0.00  0.00    +0.011 C 
ATOM     33  C   UNL     1      36.616 -19.529 -20.948  0.00  0.00    +0.011 C 
ATOM     34  C   UNL     1      35.487 -19.006 -21.579  0.00  0.00    +0.058 C 
ENDBRANCH  27  29
ENDBRANCH  26  27
ENDBRANCH  25  26
ENDBRANCH   9  25
TORSDOF 9
ENDMDL
MODEL 5
REMARK VINA RESULT:      -9.9      1.203      2.061
REMARK  Name = 9910098
REMARK  9 active torsions:
REMARK  status: ('A' for Active; 'I' for Inactive)
REMARK    1  A    between atoms: N_1  and  C1*_12
REMARK    2  A    between atoms: C_9  and  O_25
REMARK    3  A    between atoms: C2*_11  and  O2*_15
REMARK    4  A    between atoms: C3*_13  and  O3*_17
REMARK    5  A    between atoms: C4*_14  and  C5*_19
REMARK    6  A    between atoms: C5*_19  and  O5*_20
REMARK    7  A    between atoms: O_25  and  C_26
REMARK    8  A    between atoms: C_26  and  C_27
REMARK    9  A    between atoms: C_27  and  C_29
REMARK                            x       y       z     vdW  Elec       q    Type
REMARK                         _______ _______ _______ _____ _____    ______ ____
ROOT
ATOM      1  N   UNL     1      33.968 -23.933 -14.023  0.00  0.00    -0.236 N 
ATOM      2  N   UNL     1      31.746 -23.743 -14.080  0.00  0.00    -0.240 NA
ATOM      3  N   UNL     1      34.488 -23.409 -16.338  0.00  0.00    -0.294 NA
ATOM      4  N   UNL     1      32.464 -22.935 -17.617  0.00  0.00    -0.295 NA
ATOM      5  C   UNL     1      33.648 -23.594 -15.308  0.00  0.00    +0.223 C 
ATOM      6  C   UNL     1      32.791 -24.011 -13.326  0.00  0.00    +0.224 C 
ATOM      7  C   UNL     1      32.267 -23.479 -15.322  0.00  0.00    +0.167 C 
ATOM      8  C   UNL     1      31.676 -23.136 -16.534  0.00  0.00    +0.214 C 
ATOM      9  C   UNL     1      33.801 -23.082 -17.454  0.00  0.00    +0.313 C 
ATOM     10  N   UNL     1      30.281 -23.001 -16.639  0.00  0.00    -0.331 N 
ATOM     11  H   UNL     1      29.875 -22.757 -17.502  0.00  0.00    +0.145 HD
ATOM     12  H   UNL     1      29.711 -23.149 -15.850  0.00  0.00    +0.145 HD
ENDROOT
BRANCH   1  15
ATOM     13  O4* UNL     1      36.228 -23.205 -14.028  0.00  0.00    -0.333 OA
ATOM     14  C2* UNL     1      35.857 -25.567 -13.818  0.00  0.00    +0.187 C 
ATOM     15  C1* UNL     1      35.308 -24.178 -13.487  0.00  0.00    +0.226 C 
ATOM     16  C3* UNL     1      36.843 -25.282 -14.935  0.00  0.00    +0.171 C 
ATOM     17  C4* UNL     1      37.362 -23.904 -14.563  0.00  0.00    +0.175 C 
BRANCH  14  18
ATOM     18  O2* UNL     1      36.517 -26.097 -12.669  0.00  0.00    -0.378 OA
ATOM     19  H2* UNL     1      37.473 -25.954 -12.752  0.00  0.00    +0.211 HD
ENDBRANCH  14  18
BRANCH  16  20
ATOM     20  O3* UNL     1      37.880 -26.235 -15.028  0.00  0.00    -0.379 OA
ATOM     21  H3* UNL     1      37.512 -27.087 -15.308  0.00  0.00    +0.211 HD
ENDBRANCH  16  20
BRANCH  17  22
ATOM     22  C5* UNL     1      37.932 -23.134 -15.741  0.00  0.00    +0.169 C 
BRANCH  22  23
ATOM     23  O5* UNL     1      37.221 -21.916 -15.874  0.00  0.00    -0.379 OA
ATOM     24  H5* UNL     1      36.947 -21.799 -16.797  0.00  0.00    +0.211 HD
ENDBRANCH  22  23
ENDBRANCH  17  22
ENDBRANCH   1  15
BRANCH   9  25
ATOM     25  O   UNL     1      34.565 -22.862 -18.580  0.00  0.00    -0.399 OA
BRANCH  25  26
ATOM     26  C   UNL     1      34.373 -21.621 -19.242  0.00  0.00    +0.227 C 
BRANCH  26  27
ATOM     27  C   UNL     1      35.700 -21.130 -19.810  0.00  0.00    +0.075 C 
BRANCH  27  29
ATOM     28 CL   UNL     1      34.947 -17.070 -24.166  0.00  0.00    -0.082 Cl
ATOM     29  C   UNL     1      35.512 -20.110 -20.907  0.00  0.00    -0.018 C 
ATOM     30  C   UNL     1      35.996 -18.823 -20.727  0.00  0.00    -0.003 C 
ATOM     31  C   UNL     1      34.858 -20.477 -22.072  0.00  0.00    -0.003 C 
ATOM     32  C   UNL     1      35.821 -17.880 -21.739  0.00  0.00    +0.011 C 
ATOM     33  C   UNL     1      34.683 -19.533 -23.085  0.00  0.00    +0.011 C 
ATOM     34  C   UNL     1      35.165 -18.234 -22.918  0.00  0.00    +0.058 C 
ENDBRANCH  27  29
ENDBRANCH  26  27
ENDBRANCH  25  26
ENDBRANCH   9  25
TORSDOF 9
ENDMDL
MODEL 6
REMARK VINA RESULT:      -9.7      9.065     13.670
REMARK  Name = 9910098
REMARK  9 active torsions:
REMARK  status: ('A' for Active; 'I' for Inactive)
REMARK    1  A    between atoms: N_1  and  C1*_12
REMARK    2  A    between atoms: C_9  and  O_25
REMARK    3  A    between atoms: C2*_11  and  O2*_15
REMARK    4  A    between atoms: C3*_13  and  O3*_17
REMARK    5  A    between atoms: C4*_14  and  C5*_19
REMARK    6  A    between atoms: C5*_19  and  O5*_20
REMARK    7  A    between atoms: O_25  and  C_26
REMARK    8  A    between atoms: C_26  and  C_27
REMARK    9  A    between atoms: C_27  and  C_29
REMARK                            x       y       z     vdW  Elec       q    Type
REMARK                         _______ _______ _______ _____ _____    ______ ____
ROOT
ATOM      1  N   UNL     1      32.131 -10.630 -21.567  0.00  0.00    -0.236 N 
ATOM      2  N   UNL     1      31.417 -11.957 -19.921  0.00  0.00    -0.240 NA
ATOM      3  N   UNL     1      33.222 -12.277 -22.983  0.00  0.00    -0.294 NA
ATOM      4  N   UNL     1      33.058 -14.517 -22.028  0.00  0.00    -0.295 NA
ATOM      5  C   UNL     1      32.535 -11.895 -21.895  0.00  0.00    +0.223 C 
ATOM      6  C   UNL     1      31.465 -10.722 -20.372  0.00  0.00    +0.224 C 
ATOM      7  C   UNL     1      32.082 -12.702 -20.863  0.00  0.00    +0.167 C 
ATOM      8  C   UNL     1      32.367 -14.060 -20.956  0.00  0.00    +0.214 C 
ATOM      9  C   UNL     1      33.437 -13.610 -22.960  0.00  0.00    +0.313 C 
ATOM     10  N   UNL     1      31.948 -14.951 -19.953  0.00  0.00    -0.331 N 
ATOM     11  H   UNL     1      32.155 -15.910 -20.029  0.00  0.00    +0.145 HD
ATOM     12  H   UNL     1      31.446 -14.616 -19.175  0.00  0.00    +0.145 HD
ENDROOT
BRANCH   1  15
ATOM     13  O4* UNL     1      33.241  -8.532 -21.587  0.00  0.00    -0.333 OA
ATOM     14  C2* UNL     1      31.092  -8.625 -22.652  0.00  0.00    +0.187 C 
ATOM     15  C1* UNL     1      32.368  -9.406 -22.334  0.00  0.00    +0.226 C 
ATOM     16  C3* UNL     1      31.142  -7.480 -21.659  0.00  0.00    +0.171 C 
ATOM     17  C4* UNL     1      32.635  -7.231 -21.529  0.00  0.00    +0.175 C 
BRANCH  14  18
ATOM     18  O2* UNL     1      31.156  -8.148 -23.995  0.00  0.00    -0.378 OA
ATOM     19  H2* UNL     1      31.888  -8.584 -24.459  0.00  0.00    +0.211 HD
ENDBRANCH  14  18
BRANCH  16  20
ATOM     20  O3* UNL     1      30.446  -6.330 -22.090  0.00  0.00    -0.379 OA
ATOM     21  H3* UNL     1      30.657  -6.155 -23.021  0.00  0.00    +0.211 HD
ENDBRANCH  16  20
BRANCH  17  22
ATOM     22  C5* UNL     1      33.022  -6.540 -20.234  0.00  0.00    +0.169 C 
BRANCH  22  23
ATOM     23  O5* UNL     1      33.396  -7.526 -19.288  0.00  0.00    -0.379 OA
ATOM     24  H5* UNL     1      32.615  -7.809 -18.787  0.00  0.00    +0.211 HD
ENDBRANCH  22  23
ENDBRANCH  17  22
ENDBRANCH   1  15
BRANCH   9  25
ATOM     25  O   UNL     1      34.133 -14.119 -24.036  0.00  0.00    -0.399 OA
BRANCH  25  26
ATOM     26  C   UNL     1      33.681 -15.363 -24.550  0.00  0.00    +0.227 C 
BRANCH  26  27
ATOM     27  C   UNL     1      34.870 -16.295 -24.759  0.00  0.00    +0.075 C 
BRANCH  27  29
ATOM     28 CL   UNL     1      35.218 -20.542 -20.531  0.00  0.00    -0.082 Cl
ATOM     29  C   UNL     1      34.955 -17.363 -23.695  0.00  0.00    -0.018 C 
ATOM     30  C   UNL     1      35.349 -17.014 -22.413  0.00  0.00    -0.003 C 
ATOM     31  C   UNL     1      34.641 -18.673 -24.021  0.00  0.00    -0.003 C 
ATOM     32  C   UNL     1      35.429 -18.001 -21.430  0.00  0.00    +0.011 C 
ATOM     33  C   UNL     1      34.722 -19.660 -23.038  0.00  0.00    +0.011 C 
ATOM     34  C   UNL     1      35.116 -19.324 -21.743  0.00  0.00    +0.058 C 
ENDBRANCH  27  29
ENDBRANCH  26  27
ENDBRANCH  25  26
ENDBRANCH   9  25
TORSDOF 9
ENDMDL
MODEL 7
REMARK VINA RESULT:      -9.7      8.840     13.031
REMARK  Name = 9910098
REMARK  9 active torsions:
REMARK  status: ('A' for Active; 'I' for Inactive)
REMARK    1  A    between atoms: N_1  and  C1*_12
REMARK    2  A    between atoms: C_9  and  O_25
REMARK    3  A    between atoms: C2*_11  and  O2*_15
REMARK    4  A    between atoms: C3*_13  and  O3*_17
REMARK    5  A    between atoms: C4*_14  and  C5*_19
REMARK    6  A    between atoms: C5*_19  and  O5*_20
REMARK    7  A    between atoms: O_25  and  C_26
REMARK    8  A    between atoms: C_26  and  C_27
REMARK    9  A    between atoms: C_27  and  C_29
REMARK                            x       y       z     vdW  Elec       q    Type
REMARK                         _______ _______ _______ _____ _____    ______ ____
ROOT
ATOM      1  N   UNL     1      31.671 -11.098 -21.409  0.00  0.00    -0.236 N 
ATOM      2  N   UNL     1      31.247 -12.428 -19.668  0.00  0.00    -0.240 NA
ATOM      3  N   UNL     1      32.986 -12.614 -22.778  0.00  0.00    -0.294 NA
ATOM      4  N   UNL     1      33.242 -14.789 -21.700  0.00  0.00    -0.295 NA
ATOM      5  C   UNL     1      32.277 -12.292 -21.685  0.00  0.00    +0.223 C 
ATOM      6  C   UNL     1      31.067 -11.231 -20.185  0.00  0.00    +0.224 C 
ATOM      7  C   UNL     1      32.002 -13.102 -20.595  0.00  0.00    +0.167 C 
ATOM      8  C   UNL     1      32.515 -14.395 -20.627  0.00  0.00    +0.214 C 
ATOM      9  C   UNL     1      33.430 -13.887 -22.693  0.00  0.00    +0.313 C 
ATOM     10  N   UNL     1      32.287 -15.284 -19.562  0.00  0.00    -0.331 N 
ATOM     11  H   UNL     1      32.655 -16.196 -19.596  0.00  0.00    +0.145 HD
ATOM     12  H   UNL     1      31.758 -14.993 -18.783  0.00  0.00    +0.145 HD
ENDROOT
BRANCH   1  15
ATOM     13  O4* UNL     1      32.654 -10.042 -23.294  0.00  0.00    -0.333 OA
ATOM     14  C2* UNL     1      31.989  -8.614 -21.483  0.00  0.00    +0.187 C 
ATOM     15  C1* UNL     1      31.669  -9.899 -22.248  0.00  0.00    +0.226 C 
ATOM     16  C3* UNL     1      33.430  -8.341 -21.873  0.00  0.00    +0.171 C 
ATOM     17  C4* UNL     1      33.484  -8.870 -23.295  0.00  0.00    +0.175 C 
BRANCH  14  18
ATOM     18  O2* UNL     1      31.125  -7.571 -21.932  0.00  0.00    -0.378 OA
ATOM     19  H2* UNL     1      31.272  -7.415 -22.878  0.00  0.00    +0.211 HD
ENDBRANCH  14  18
BRANCH  16  20
ATOM     20  O3* UNL     1      33.783  -6.976 -21.799  0.00  0.00    -0.379 OA
ATOM     21  H3* UNL     1      34.723  -6.874 -22.018  0.00  0.00    +0.211 HD
ENDBRANCH  16  20
BRANCH  17  22
ATOM     22  C5* UNL     1      34.886  -9.234 -23.752  0.00  0.00    +0.169 C 
BRANCH  22  23
ATOM     23  O5* UNL     1      34.937 -10.629 -23.993  0.00  0.00    -0.379 OA
ATOM     24  H5* UNL     1      34.036 -10.987 -24.017  0.00  0.00    +0.211 HD
ENDBRANCH  22  23
ENDBRANCH  17  22
ENDBRANCH   1  15
BRANCH   9  25
ATOM     25  O   UNL     1      34.170 -14.332 -23.767  0.00  0.00    -0.399 OA
BRANCH  25  26
ATOM     26  C   UNL     1      33.695 -15.498 -24.424  0.00  0.00    +0.227 C 
BRANCH  26  27
ATOM     27  C   UNL     1      34.857 -16.450 -24.686  0.00  0.00    +0.075 C 
BRANCH  27  29
ATOM     28 CL   UNL     1      35.344 -20.669 -20.445  0.00  0.00    -0.082 Cl
ATOM     29  C   UNL     1      34.982 -17.511 -23.620  0.00  0.00    -0.018 C 
ATOM     30  C   UNL     1      34.646 -18.821 -23.924  0.00  0.00    -0.003 C 
ATOM     31  C   UNL     1      35.427 -17.156 -22.357  0.00  0.00    -0.003 C 
ATOM     32  C   UNL     1      34.759 -19.802 -22.938  0.00  0.00    +0.011 C 
ATOM     33  C   UNL     1      35.540 -18.137 -21.371  0.00  0.00    +0.011 C 
ATOM     34  C   UNL     1      35.206 -19.460 -21.662  0.00  0.00    +0.058 C 
ENDBRANCH  27  29
ENDBRANCH  26  27
ENDBRANCH  25  26
ENDBRANCH   9  25
TORSDOF 9
ENDMDL
MODEL 8
REMARK VINA RESULT:      -9.7      5.686     10.782
REMARK  Name = 9910098
REMARK  9 active torsions:
REMARK  status: ('A' for Active; 'I' for Inactive)
REMARK    1  A    between atoms: N_1  and  C1*_12
REMARK    2  A    between atoms: C_9  and  O_25
REMARK    3  A    between atoms: C2*_11  and  O2*_15
REMARK    4  A    between atoms: C3*_13  and  O3*_17
REMARK    5  A    between atoms: C4*_14  and  C5*_19
REMARK    6  A    between atoms: C5*_19  and  O5*_20
REMARK    7  A    between atoms: O_25  and  C_26
REMARK    8  A    between atoms: C_26  and  C_27
REMARK    9  A    between atoms: C_27  and  C_29
REMARK                            x       y       z     vdW  Elec       q    Type
REMARK                         _______ _______ _______ _____ _____    ______ ____
ROOT
ATOM      1  N   UNL     1      34.622 -16.045 -23.511  0.00  0.00    -0.236 N 
ATOM      2  N   UNL     1      34.286 -17.431 -25.227  0.00  0.00    -0.240 NA
ATOM      3  N   UNL     1      35.157 -17.659 -21.775  0.00  0.00    -0.294 NA
ATOM      4  N   UNL     1      35.091 -19.942 -22.633  0.00  0.00    -0.295 NA
ATOM      5  C   UNL     1      34.824 -17.308 -23.026  0.00  0.00    +0.223 C 
ATOM      6  C   UNL     1      34.300 -16.174 -24.838  0.00  0.00    +0.224 C 
ATOM      7  C   UNL     1      34.611 -18.151 -24.105  0.00  0.00    +0.167 C 
ATOM      8  C   UNL     1      34.756 -19.516 -23.875  0.00  0.00    +0.214 C 
ATOM      9  C   UNL     1      35.267 -19.000 -21.675  0.00  0.00    +0.313 C 
ATOM     10  N   UNL     1      34.557 -20.444 -24.911  0.00  0.00    -0.331 N 
ATOM     11  H   UNL     1      34.663 -21.406 -24.737  0.00  0.00    +0.145 HD
ATOM     12  H   UNL     1      34.314 -20.130 -25.813  0.00  0.00    +0.145 HD
ENDROOT
BRANCH   1  15
ATOM     13  O4* UNL     1      34.366 -15.025 -21.383  0.00  0.00    -0.333 OA
ATOM     14  C2* UNL     1      33.805 -13.686 -23.295  0.00  0.00    +0.187 C 
ATOM     15  C1* UNL     1      34.720 -14.791 -22.763  0.00  0.00    +0.226 C 
ATOM     16  C3* UNL     1      32.669 -13.677 -22.290  0.00  0.00    +0.171 C 
ATOM     17  C4* UNL     1      33.377 -14.056 -21.000  0.00  0.00    +0.175 C 
BRANCH  14  18
ATOM     18  O2* UNL     1      34.512 -12.447 -23.288  0.00  0.00    -0.378 OA
ATOM     19  H2* UNL     1      35.286 -12.520 -22.708  0.00  0.00    +0.211 HD
ENDBRANCH  14  18
BRANCH  16  20
ATOM     20  O3* UNL     1      32.015 -12.431 -22.191  0.00  0.00    -0.379 OA
ATOM     21  H3* UNL     1      31.802 -12.106 -23.080  0.00  0.00    +0.211 HD
ENDBRANCH  16  20
BRANCH  17  22
ATOM     22  C5* UNL     1      32.451 -14.652 -19.955  0.00  0.00    +0.169 C 
BRANCH  22  23
ATOM     23  O5* UNL     1      32.211 -16.010 -20.282  0.00  0.00    -0.379 OA
ATOM     24  H5* UNL     1      32.464 -16.171 -21.205  0.00  0.00    +0.211 HD
ENDBRANCH  22  23
ENDBRANCH  17  22
ENDBRANCH   1  15
BRANCH   9  25
ATOM     25  O   UNL     1      35.612 -19.478 -20.429  0.00  0.00    -0.399 OA
BRANCH  25  26
ATOM     26  C   UNL     1      35.229 -20.814 -20.135  0.00  0.00    +0.227 C 
BRANCH  26  27
ATOM     27  C   UNL     1      36.351 -21.516 -19.377  0.00  0.00    +0.075 C 
BRANCH  27  29
ATOM     28 CL   UNL     1      34.403 -24.183 -14.365  0.00  0.00    -0.082 Cl
ATOM     29  C   UNL     1      35.860 -22.185 -18.117  0.00  0.00    -0.018 C 
ATOM     30  C   UNL     1      36.707 -22.278 -17.023  0.00  0.00    -0.003 C 
ATOM     31  C   UNL     1      34.572 -22.696 -18.075  0.00  0.00    -0.003 C 
ATOM     32  C   UNL     1      36.254 -22.898 -15.858  0.00  0.00    +0.011 C 
ATOM     33  C   UNL     1      34.120 -23.317 -16.910  0.00  0.00    +0.011 C 
ATOM     34  C   UNL     1      34.961 -23.417 -15.802  0.00  0.00    +0.058 C 
ENDBRANCH  27  29
ENDBRANCH  26  27
ENDBRANCH  25  26
ENDBRANCH   9  25
TORSDOF 9
ENDMDL
MODEL 9
REMARK VINA RESULT:      -9.6      4.364      9.694
REMARK  Name = 9910098
REMARK  9 active torsions:
REMARK  status: ('A' for Active; 'I' for Inactive)
REMARK    1  A    between atoms: N_1  and  C1*_12
REMARK    2  A    between atoms: C_9  and  O_25
REMARK    3  A    between atoms: C2*_11  and  O2*_15
REMARK    4  A    between atoms: C3*_13  and  O3*_17
REMARK    5  A    between atoms: C4*_14  and  C5*_19
REMARK    6  A    between atoms: C5*_19  and  O5*_20
REMARK    7  A    between atoms: O_25  and  C_26
REMARK    8  A    between atoms: C_26  and  C_27
REMARK    9  A    between atoms: C_27  and  C_29
REMARK                            x       y       z     vdW  Elec       q    Type
REMARK                         _______ _______ _______ _____ _____    ______ ____
ROOT
ATOM      1  N   UNL     1      34.817 -20.162 -20.464  0.00  0.00    -0.236 N 
ATOM      2  N   UNL     1      32.889 -21.208 -20.050  0.00  0.00    -0.240 NA
ATOM      3  N   UNL     1      36.246 -21.268 -18.839  0.00  0.00    -0.294 NA
ATOM      4  N   UNL     1      35.006 -22.933 -17.554  0.00  0.00    -0.295 NA
ATOM      5  C   UNL     1      35.075 -21.053 -19.460  0.00  0.00    +0.223 C 
ATOM      6  C   UNL     1      33.490 -20.293 -20.782  0.00  0.00    +0.224 C 
ATOM      7  C   UNL     1      33.869 -21.691 -19.219  0.00  0.00    +0.167 C 
ATOM      8  C   UNL     1      33.860 -22.664 -18.224  0.00  0.00    +0.214 C 
ATOM      9  C   UNL     1      36.111 -22.227 -17.899  0.00  0.00    +0.313 C 
ATOM     10  N   UNL     1      32.679 -23.360 -17.911  0.00  0.00    -0.331 N 
ATOM     11  H   UNL     1      32.685 -24.045 -17.206  0.00  0.00    +0.145 HD
ATOM     12  H   UNL     1      31.847 -23.161 -18.400  0.00  0.00    +0.145 HD
ENDROOT
BRANCH   1  15
ATOM     13  O4* UNL     1      35.534 -17.902 -20.577  0.00  0.00    -0.333 OA
ATOM     14  C2* UNL     1      35.664 -19.177 -22.606  0.00  0.00    +0.187 C 
ATOM     15  C1* UNL     1      35.766 -19.235 -21.081  0.00  0.00    +0.226 C 
ATOM     16  C3* UNL     1      34.924 -17.875 -22.845  0.00  0.00    +0.171 C 
ATOM     17  C4* UNL     1      35.414 -17.010 -21.697  0.00  0.00    +0.175 C 
BRANCH  14  18
ATOM     18  O2* UNL     1      36.977 -19.135 -23.164  0.00  0.00    -0.378 OA
ATOM     19  H2* UNL     1      37.132 -18.263 -23.560  0.00  0.00    +0.211 HD
ENDBRANCH  14  18
BRANCH  16  20
ATOM     20  O3* UNL     1      35.198 -17.294 -24.102  0.00  0.00    -0.379 OA
ATOM     21  H3* UNL     1      35.740 -17.903 -24.628  0.00  0.00    +0.211 HD
ENDBRANCH  16  20
BRANCH  17  22
ATOM     22  C5* UNL     1      34.470 -15.873 -21.350  0.00  0.00    +0.169 C 
BRANCH  22  23
ATOM     23  O5* UNL     1      34.563 -14.882 -22.358  0.00  0.00    -0.379 OA
ATOM     24  H5* UNL     1      33.681 -14.521 -22.541  0.00  0.00    +0.211 HD
ENDBRANCH  22  23
ENDBRANCH  17  22
ENDBRANCH   1  15
BRANCH   9  25
ATOM     25  O   UNL     1      37.256 -22.537 -17.197  0.00  0.00    -0.399 OA
BRANCH  25  26
ATOM     26  C   UNL     1      37.164 -22.484 -15.781  0.00  0.00    +0.227 C 
BRANCH  26  27
ATOM     27  C   UNL     1      37.761 -23.751 -15.178  0.00  0.00    +0.075 C 
BRANCH  27  29
ATOM     28 CL   UNL     1      35.509 -24.981  -9.752  0.00  0.00    -0.082 Cl
ATOM     29  C   UNL     1      37.195 -24.058 -13.813  0.00  0.00    -0.018 C 
ATOM     30  C   UNL     1      38.014 -24.629 -12.851  0.00  0.00    -0.003 C 
ATOM     31  C   UNL     1      35.867 -23.766 -13.546  0.00  0.00    -0.003 C 
ATOM     32  C   UNL     1      37.491 -24.915 -11.590  0.00  0.00    +0.011 C 
ATOM     33  C   UNL     1      35.343 -24.053 -12.285  0.00  0.00    +0.011 C 
ATOM     34  C   UNL     1      36.156 -24.627 -11.307  0.00  0.00    +0.058 C 
ENDBRANCH  27  29
ENDBRANCH  26  27
ENDBRANCH  25  26
ENDBRANCH   9  25
TORSDOF 9
ENDMDL
