MODEL 1
REMARK VINA RESULT:     -11.1      0.000      0.000
REMARK  Name = 9924495
REMARK  4 active torsions:
REMARK  status: ('A' for Active; 'I' for Inactive)
REMARK    1  A    between atoms: N_2  and  C_22
REMARK    2  A    between atoms: C_3  and  C_14
REMARK    3  A    between atoms: C_4  and  C_9
REMARK    4  A    between atoms: C_15  and  C_21
REMARK                            x       y       z     vdW  Elec       q    Type
REMARK                         _______ _______ _______ _____ _____    ______ ____
ROOT
ATOM      1  O   UNL     1      33.474 -24.788 -12.966  0.00  0.00    -0.269 OA
ATOM      2  N   UNL     1      32.843 -24.040 -15.110  0.00  0.00    -0.233 N 
ATOM      3  C   UNL     1      35.217 -24.062 -14.368  0.00  0.00    +0.055 C 
ATOM      4  C   UNL     1      34.564 -23.097 -16.509  0.00  0.00    +0.033 C 
ATOM      5  C   UNL     1      33.765 -24.353 -14.082  0.00  0.00    +0.257 C 
ATOM      6  C   UNL     1      35.552 -23.461 -15.519  0.00  0.00    +0.007 C 
ATOM      7  C   UNL     1      33.279 -23.408 -16.275  0.00  0.00    +0.074 C 
ENDROOT
BRANCH   4   9
ATOM      8  N   UNL     1      36.232 -22.219 -17.990  0.00  0.00    -0.244 NA
ATOM      9  C   UNL     1      34.916 -22.444 -17.785  0.00  0.00    +0.083 C 
ATOM     10  C   UNL     1      33.919 -22.099 -18.681  0.00  0.00    +0.019 C 
ATOM     11  C   UNL     1      34.299 -21.484 -19.870  0.00  0.00    +0.003 C 
ATOM     12  C   UNL     1      36.563 -21.619 -19.156  0.00  0.00    +0.099 C 
ATOM     13  C   UNL     1      35.643 -21.236 -20.119  0.00  0.00    +0.021 C 
ENDBRANCH   4   9
BRANCH   3  14
ATOM     14  C   UNL     1      36.268 -24.431 -13.403  0.00  0.00    +0.014 C 
ATOM     15  C   UNL     1      36.934 -25.654 -13.469  0.00  0.00    +0.069 C 
ATOM     16  C   UNL     1      36.592 -23.514 -12.403  0.00  0.00    +0.001 C 
ATOM     17  C   UNL     1      37.923 -25.962 -12.534  0.00  0.00    +0.010 C 
ATOM     18  C   UNL     1      37.581 -23.821 -11.468  0.00  0.00    +0.000 C 
ATOM     19  C   UNL     1      38.247 -25.045 -11.534  0.00  0.00    +0.001 C 
BRANCH  15  21
ATOM     20  N   UNL     1      36.384 -27.402 -15.301  0.00  0.00    -0.191 NA
ATOM     21  C   UNL     1      36.629 -26.621 -14.482  0.00  0.00    +0.100 C 
ENDBRANCH  15  21
ENDBRANCH   3  14
BRANCH   2  22
ATOM     22  C   UNL     1      31.437 -24.353 -14.931  0.00  0.00    +0.058 C 
ATOM     23  C   UNL     1      31.069 -25.584 -14.403  0.00  0.00    +0.015 C 
ATOM     24  C   UNL     1      30.474 -23.417 -15.288  0.00  0.00    +0.015 C 
ATOM     25  C   UNL     1      29.718 -25.884 -14.230  0.00  0.00    +0.001 C 
ATOM     26  C   UNL     1      29.123 -23.717 -15.116  0.00  0.00    +0.001 C 
ATOM     27  C   UNL     1      28.745 -24.951 -14.587  0.00  0.00    +0.000 C 
ENDBRANCH   2  22
TORSDOF 4
ENDMDL
MODEL 2
REMARK VINA RESULT:     -11.1      1.192      5.154
REMARK  Name = 9924495
REMARK  4 active torsions:
REMARK  status: ('A' for Active; 'I' for Inactive)
REMARK    1  A    between atoms: N_2  and  C_22
REMARK    2  A    between atoms: C_3  and  C_14
REMARK    3  A    between atoms: C_4  and  C_9
REMARK    4  A    between atoms: C_15  and  C_21
REMARK                            x       y       z     vdW  Elec       q    Type
REMARK                         _______ _______ _______ _____ _____    ______ ____
ROOT
ATOM      1  O   UNL     1      36.856 -23.244 -16.072  0.00  0.00    -0.269 OA
ATOM      2  N   UNL     1      34.597 -23.049 -16.714  0.00  0.00    -0.233 N 
ATOM      3  C   UNL     1      35.269 -24.070 -14.547  0.00  0.00    +0.055 C 
ATOM      4  C   UNL     1      32.945 -24.061 -15.280  0.00  0.00    +0.033 C 
ATOM      5  C   UNL     1      35.656 -23.397 -15.840  0.00  0.00    +0.257 C 
ATOM      6  C   UNL     1      33.981 -24.375 -14.325  0.00  0.00    +0.007 C 
ATOM      7  C   UNL     1      33.286 -23.412 -16.406  0.00  0.00    +0.074 C 
ENDROOT
BRANCH   4   9
ATOM      8  N   UNL     1      31.276 -25.356 -14.147  0.00  0.00    -0.244 NA
ATOM      9  C   UNL     1      31.522 -24.380 -15.049  0.00  0.00    +0.083 C 
ATOM     10  C   UNL     1      30.539 -23.695 -15.742  0.00  0.00    +0.019 C 
ATOM     11  C   UNL     1      29.213 -24.032 -15.491  0.00  0.00    +0.003 C 
ATOM     12  C   UNL     1      29.975 -25.656 -13.930  0.00  0.00    +0.099 C 
ATOM     13  C   UNL     1      28.918 -25.030 -14.569  0.00  0.00    +0.021 C 
ENDBRANCH   4   9
BRANCH   3  14
ATOM     14  C   UNL     1      36.282 -24.394 -13.527  0.00  0.00    +0.014 C 
ATOM     15  C   UNL     1      36.966 -25.608 -13.525  0.00  0.00    +0.069 C 
ATOM     16  C   UNL     1      36.550 -23.441 -12.543  0.00  0.00    +0.001 C 
ATOM     17  C   UNL     1      37.917 -25.873 -12.540  0.00  0.00    +0.010 C 
ATOM     18  C   UNL     1      37.501 -23.705 -11.557  0.00  0.00    +0.000 C 
ATOM     19  C   UNL     1      38.185 -24.920 -11.556  0.00  0.00    +0.001 C 
BRANCH  15  21
ATOM     20  N   UNL     1      36.518 -27.421 -15.321  0.00  0.00    -0.191 NA
ATOM     21  C   UNL     1      36.718 -26.610 -14.519  0.00  0.00    +0.100 C 
ENDBRANCH  15  21
ENDBRANCH   3  14
BRANCH   2  22
ATOM     22  C   UNL     1      34.889 -22.340 -17.945  0.00  0.00    +0.058 C 
ATOM     23  C   UNL     1      36.208 -22.056 -18.280  0.00  0.00    +0.015 C 
ATOM     24  C   UNL     1      33.846 -21.954 -18.779  0.00  0.00    +0.015 C 
ATOM     25  C   UNL     1      36.488 -21.375 -19.464  0.00  0.00    +0.001 C 
ATOM     26  C   UNL     1      34.126 -21.273 -19.964  0.00  0.00    +0.001 C 
ATOM     27  C   UNL     1      35.447 -20.983 -20.306  0.00  0.00    +0.000 C 
ENDBRANCH   2  22
TORSDOF 4
ENDMDL
MODEL 3
REMARK VINA RESULT:      -9.3      1.742      2.378
REMARK  Name = 9924495
REMARK  4 active torsions:
REMARK  status: ('A' for Active; 'I' for Inactive)
REMARK    1  A    between atoms: N_2  and  C_22
REMARK    2  A    between atoms: C_3  and  C_14
REMARK    3  A    between atoms: C_4  and  C_9
REMARK    4  A    between atoms: C_15  and  C_21
REMARK                            x       y       z     vdW  Elec       q    Type
REMARK                         _______ _______ _______ _____ _____    ______ ____
ROOT
ATOM      1  O   UNL     1      33.477 -25.013 -14.171  0.00  0.00    -0.269 OA
ATOM      2  N   UNL     1      32.457 -23.860 -15.955  0.00  0.00    -0.233 N 
ATOM      3  C   UNL     1      34.924 -24.136 -15.803  0.00  0.00    +0.055 C 
ATOM      4  C   UNL     1      33.904 -22.769 -17.544  0.00  0.00    +0.033 C 
ATOM      5  C   UNL     1      33.552 -24.399 -15.236  0.00  0.00    +0.257 C 
ATOM      6  C   UNL     1      35.049 -23.354 -16.886  0.00  0.00    +0.007 C 
ATOM      7  C   UNL     1      32.679 -23.051 -17.069  0.00  0.00    +0.074 C 
ENDROOT
BRANCH   4   9
ATOM      8  N   UNL     1      32.864 -21.413 -19.225  0.00  0.00    -0.244 NA
ATOM      9  C   UNL     1      34.022 -21.914 -18.742  0.00  0.00    +0.083 C 
ATOM     10  C   UNL     1      35.266 -21.675 -19.300  0.00  0.00    +0.019 C 
ATOM     11  C   UNL     1      35.326 -20.864 -20.429  0.00  0.00    +0.003 C 
ATOM     12  C   UNL     1      32.962 -20.630 -20.323  0.00  0.00    +0.099 C 
ATOM     13  C   UNL     1      34.157 -20.329 -20.956  0.00  0.00    +0.021 C 
ENDBRANCH   4   9
BRANCH   3  14
ATOM     14  C   UNL     1      36.126 -24.725 -15.185  0.00  0.00    +0.014 C 
ATOM     15  C   UNL     1      37.320 -24.016 -15.070  0.00  0.00    +0.069 C 
ATOM     16  C   UNL     1      36.043 -26.034 -14.709  0.00  0.00    +0.001 C 
ATOM     17  C   UNL     1      38.433 -24.614 -14.479  0.00  0.00    +0.010 C 
ATOM     18  C   UNL     1      37.155 -26.632 -14.117  0.00  0.00    +0.000 C 
ATOM     19  C   UNL     1      38.350 -25.922 -14.002  0.00  0.00    +0.001 C 
BRANCH  15  21
ATOM     20  N   UNL     1      37.544 -21.584 -15.935  0.00  0.00    -0.191 NA
ATOM     21  C   UNL     1      37.443 -22.671 -15.548  0.00  0.00    +0.100 C 
ENDBRANCH  15  21
ENDBRANCH   3  14
BRANCH   2  22
ATOM     22  C   UNL     1      31.104 -24.129 -15.506  0.00  0.00    +0.058 C 
ATOM     23  C   UNL     1      30.812 -25.338 -14.887  0.00  0.00    +0.015 C 
ATOM     24  C   UNL     1      30.113 -23.172 -15.698  0.00  0.00    +0.015 C 
ATOM     25  C   UNL     1      29.511 -25.595 -14.455  0.00  0.00    +0.001 C 
ATOM     26  C   UNL     1      28.813 -23.430 -15.266  0.00  0.00    +0.001 C 
ATOM     27  C   UNL     1      28.511 -24.642 -14.644  0.00  0.00    +0.000 C 
ENDBRANCH   2  22
TORSDOF 4
ENDMDL
MODEL 4
REMARK VINA RESULT:      -9.1      1.491      5.560
REMARK  Name = 9924495
REMARK  4 active torsions:
REMARK  status: ('A' for Active; 'I' for Inactive)
REMARK    1  A    between atoms: N_2  and  C_22
REMARK    2  A    between atoms: C_3  and  C_14
REMARK    3  A    between atoms: C_4  and  C_9
REMARK    4  A    between atoms: C_15  and  C_21
REMARK                            x       y       z     vdW  Elec       q    Type
REMARK                         _______ _______ _______ _____ _____    ______ ____
ROOT
ATOM      1  O   UNL     1      32.156 -22.817 -17.663  0.00  0.00    -0.269 OA
ATOM      2  N   UNL     1      32.405 -23.919 -15.595  0.00  0.00    -0.233 N 
ATOM      3  C   UNL     1      34.361 -23.109 -16.900  0.00  0.00    +0.055 C 
ATOM      4  C   UNL     1      34.647 -24.422 -14.867  0.00  0.00    +0.033 C 
ATOM      5  C   UNL     1      32.866 -23.246 -16.753  0.00  0.00    +0.257 C 
ATOM      6  C   UNL     1      35.166 -23.685 -15.996  0.00  0.00    +0.007 C 
ATOM      7  C   UNL     1      33.315 -24.495 -14.709  0.00  0.00    +0.074 C 
ENDROOT
BRANCH   4   9
ATOM      8  N   UNL     1      36.426 -25.936 -14.331  0.00  0.00    -0.244 NA
ATOM      9  C   UNL     1      35.518 -25.055 -13.857  0.00  0.00    +0.083 C 
ATOM     10  C   UNL     1      35.370 -24.733 -12.519  0.00  0.00    +0.019 C 
ATOM     11  C   UNL     1      36.213 -25.357 -11.604  0.00  0.00    +0.003 C 
ATOM     12  C   UNL     1      37.227 -26.522 -13.413  0.00  0.00    +0.099 C 
ATOM     13  C   UNL     1      37.161 -26.269 -12.052  0.00  0.00    +0.021 C 
ENDBRANCH   4   9
BRANCH   3  14
ATOM     14  C   UNL     1      34.945 -22.350 -18.020  0.00  0.00    +0.014 C 
ATOM     15  C   UNL     1      36.296 -22.007 -18.055  0.00  0.00    +0.069 C 
ATOM     16  C   UNL     1      34.104 -21.973 -19.067  0.00  0.00    +0.001 C 
ATOM     17  C   UNL     1      36.807 -21.286 -19.134  0.00  0.00    +0.010 C 
ATOM     18  C   UNL     1      34.614 -21.253 -20.148  0.00  0.00    +0.000 C 
ATOM     19  C   UNL     1      35.965 -20.910 -20.182  0.00  0.00    +0.001 C 
BRANCH  15  21
ATOM     20  N   UNL     1      37.915 -22.674 -16.145  0.00  0.00    -0.191 NA
ATOM     21  C   UNL     1      37.191 -22.376 -16.998  0.00  0.00    +0.100 C 
ENDBRANCH  15  21
ENDBRANCH   3  14
BRANCH   2  22
ATOM     22  C   UNL     1      30.978 -24.031 -15.353  0.00  0.00    +0.058 C 
ATOM     23  C   UNL     1      30.153 -22.939 -15.588  0.00  0.00    +0.015 C 
ATOM     24  C   UNL     1      30.452 -25.231 -14.890  0.00  0.00    +0.015 C 
ATOM     25  C   UNL     1      28.782 -23.047 -15.356  0.00  0.00    +0.001 C 
ATOM     26  C   UNL     1      29.081 -25.340 -14.657  0.00  0.00    +0.001 C 
ATOM     27  C   UNL     1      28.246 -24.248 -14.891  0.00  0.00    +0.000 C 
ENDBRANCH   2  22
TORSDOF 4
ENDMDL
MODEL 5
REMARK VINA RESULT:      -9.0      1.935      5.580
REMARK  Name = 9924495
REMARK  4 active torsions:
REMARK  status: ('A' for Active; 'I' for Inactive)
REMARK    1  A    between atoms: N_2  and  C_22
REMARK    2  A    between atoms: C_3  and  C_14
REMARK    3  A    between atoms: C_4  and  C_9
REMARK    4  A    between atoms: C_15  and  C_21
REMARK                            x       y       z     vdW  Elec       q    Type
REMARK                         _______ _______ _______ _____ _____    ______ ____
ROOT
ATOM      1  O   UNL     1      36.250 -22.821 -17.235  0.00  0.00    -0.269 OA
ATOM      2  N   UNL     1      33.987 -22.446 -17.772  0.00  0.00    -0.233 N 
ATOM      3  C   UNL     1      34.669 -23.672 -15.718  0.00  0.00    +0.055 C 
ATOM      4  C   UNL     1      32.326 -23.471 -16.359  0.00  0.00    +0.033 C 
ATOM      5  C   UNL     1      35.052 -22.923 -16.969  0.00  0.00    +0.257 C 
ATOM      6  C   UNL     1      33.373 -23.919 -15.471  0.00  0.00    +0.007 C 
ATOM      7  C   UNL     1      32.668 -22.756 -17.443  0.00  0.00    +0.074 C 
ENDROOT
BRANCH   4   9
ATOM      8  N   UNL     1      30.029 -22.853 -16.658  0.00  0.00    -0.244 NA
ATOM      9  C   UNL     1      30.895 -23.726 -16.098  0.00  0.00    +0.083 C 
ATOM     10  C   UNL     1      30.517 -24.805 -15.318  0.00  0.00    +0.019 C 
ATOM     11  C   UNL     1      29.157 -25.004 -15.099  0.00  0.00    +0.003 C 
ATOM     12  C   UNL     1      28.716 -23.078 -16.423  0.00  0.00    +0.099 C 
ATOM     13  C   UNL     1      28.234 -24.128 -15.659  0.00  0.00    +0.021 C 
ENDBRANCH   4   9
BRANCH   3  14
ATOM     14  C   UNL     1      35.695 -24.134 -14.766  0.00  0.00    +0.014 C 
ATOM     15  C   UNL     1      35.369 -24.562 -13.480  0.00  0.00    +0.069 C 
ATOM     16  C   UNL     1      37.026 -24.133 -15.185  0.00  0.00    +0.001 C 
ATOM     17  C   UNL     1      36.373 -24.990 -12.611  0.00  0.00    +0.010 C 
ATOM     18  C   UNL     1      38.030 -24.561 -14.317  0.00  0.00    +0.000 C 
ATOM     19  C   UNL     1      37.704 -24.990 -13.031  0.00  0.00    +0.001 C 
BRANCH  15  21
ATOM     20  N   UNL     1      32.918 -24.590 -12.640  0.00  0.00    -0.191 NA
ATOM     21  C   UNL     1      34.014 -24.577 -13.015  0.00  0.00    +0.100 C 
ENDBRANCH  15  21
ENDBRANCH   3  14
BRANCH   2  22
ATOM     22  C   UNL     1      34.279 -21.659 -18.956  0.00  0.00    +0.058 C 
ATOM     23  C   UNL     1      35.596 -21.499 -19.367  0.00  0.00    +0.015 C 
ATOM     24  C   UNL     1      33.237 -21.075 -19.667  0.00  0.00    +0.015 C 
ATOM     25  C   UNL     1      35.877 -20.743 -20.505  0.00  0.00    +0.001 C 
ATOM     26  C   UNL     1      33.517 -20.319 -20.805  0.00  0.00    +0.001 C 
ATOM     27  C   UNL     1      34.838 -20.153 -21.225  0.00  0.00    +0.000 C 
ENDBRANCH   2  22
TORSDOF 4
ENDMDL
MODEL 6
REMARK VINA RESULT:      -8.4      1.942      6.414
REMARK  Name = 9924495
REMARK  4 active torsions:
REMARK  status: ('A' for Active; 'I' for Inactive)
REMARK    1  A    between atoms: N_2  and  C_22
REMARK    2  A    between atoms: C_3  and  C_14
REMARK    3  A    between atoms: C_4  and  C_9
REMARK    4  A    between atoms: C_15  and  C_21
REMARK                            x       y       z     vdW  Elec       q    Type
REMARK                         _______ _______ _______ _____ _____    ______ ____
ROOT
ATOM      1  O   UNL     1      31.856 -22.381 -17.598  0.00  0.00    -0.269 OA
ATOM      2  N   UNL     1      34.193 -22.686 -17.586  0.00  0.00    -0.233 N 
ATOM      3  C   UNL     1      32.705 -23.834 -15.956  0.00  0.00    +0.055 C 
ATOM      4  C   UNL     1      35.131 -24.004 -15.799  0.00  0.00    +0.033 C 
ATOM      5  C   UNL     1      32.868 -22.912 -17.138  0.00  0.00    +0.257 C 
ATOM      6  C   UNL     1      33.796 -24.321 -15.347  0.00  0.00    +0.007 C 
ATOM      7  C   UNL     1      35.271 -23.227 -16.886  0.00  0.00    +0.074 C 
ENDROOT
BRANCH   4   9
ATOM      8  N   UNL     1      37.457 -23.781 -15.262  0.00  0.00    -0.244 NA
ATOM      9  C   UNL     1      36.343 -24.537 -15.146  0.00  0.00    +0.083 C 
ATOM     10  C   UNL     1      36.289 -25.744 -14.471  0.00  0.00    +0.019 C 
ATOM     11  C   UNL     1      37.457 -26.207 -13.873  0.00  0.00    +0.003 C 
ATOM     12  C   UNL     1      38.572 -24.263 -14.668  0.00  0.00    +0.099 C 
ATOM     13  C   UNL     1      38.624 -25.458 -13.969  0.00  0.00    +0.021 C 
ENDBRANCH   4   9
BRANCH   3  14
ATOM     14  C   UNL     1      31.366 -24.208 -15.466  0.00  0.00    +0.014 C 
ATOM     15  C   UNL     1      31.169 -24.738 -14.192  0.00  0.00    +0.069 C 
ATOM     16  C   UNL     1      30.279 -24.018 -16.319  0.00  0.00    +0.001 C 
ATOM     17  C   UNL     1      29.884 -25.080 -13.769  0.00  0.00    +0.010 C 
ATOM     18  C   UNL     1      28.993 -24.358 -15.896  0.00  0.00    +0.000 C 
ATOM     19  C   UNL     1      28.796 -24.889 -14.621  0.00  0.00    +0.001 C 
BRANCH  15  21
ATOM     20  N   UNL     1      33.145 -25.119 -12.560  0.00  0.00    -0.191 NA
ATOM     21  C   UNL     1      32.261 -24.948 -13.289  0.00  0.00    +0.100 C 
ENDBRANCH  15  21
ENDBRANCH   3  14
BRANCH   2  22
ATOM     22  C   UNL     1      34.422 -21.863 -18.758  0.00  0.00    +0.058 C 
ATOM     23  C   UNL     1      33.340 -21.318 -19.439  0.00  0.00    +0.015 C 
ATOM     24  C   UNL     1      35.723 -21.625 -19.188  0.00  0.00    +0.015 C 
ATOM     25  C   UNL     1      33.561 -20.527 -20.566  0.00  0.00    +0.001 C 
ATOM     26  C   UNL     1      35.944 -20.834 -20.314  0.00  0.00    +0.001 C 
ATOM     27  C   UNL     1      34.862 -20.284 -21.004  0.00  0.00    +0.000 C 
ENDBRANCH   2  22
TORSDOF 4
ENDMDL
MODEL 7
REMARK VINA RESULT:      -8.1      2.234      5.781
REMARK  Name = 9924495
REMARK  4 active torsions:
REMARK  status: ('A' for Active; 'I' for Inactive)
REMARK    1  A    between atoms: N_2  and  C_22
REMARK    2  A    between atoms: C_3  and  C_14
REMARK    3  A    between atoms: C_4  and  C_9
REMARK    4  A    between atoms: C_15  and  C_21
REMARK                            x       y       z     vdW  Elec       q    Type
REMARK                         _______ _______ _______ _____ _____    ______ ____
ROOT
ATOM      1  O   UNL     1      36.188 -22.992 -17.814  0.00  0.00    -0.269 OA
ATOM      2  N   UNL     1      33.912 -22.415 -18.018  0.00  0.00    -0.233 N 
ATOM      3  C   UNL     1      34.750 -23.834 -16.155  0.00  0.00    +0.055 C 
ATOM      4  C   UNL     1      32.369 -23.416 -16.461  0.00  0.00    +0.033 C 
ATOM      5  C   UNL     1      35.029 -23.025 -17.397  0.00  0.00    +0.257 C 
ATOM      6  C   UNL     1      33.482 -24.002 -15.752  0.00  0.00    +0.007 C 
ATOM      7  C   UNL     1      32.626 -22.651 -17.535  0.00  0.00    +0.074 C 
ENDROOT
BRANCH   4   9
ATOM      8  N   UNL     1      30.061 -22.793 -16.641  0.00  0.00    -0.244 NA
ATOM      9  C   UNL     1      30.968 -23.584 -16.027  0.00  0.00    +0.083 C 
ATOM     10  C   UNL     1      30.655 -24.508 -15.045  0.00  0.00    +0.019 C 
ATOM     11  C   UNL     1      29.322 -24.630 -14.668  0.00  0.00    +0.003 C 
ATOM     12  C   UNL     1      28.775 -22.939 -16.249  0.00  0.00    +0.099 C 
ATOM     13  C   UNL     1      28.359 -23.834 -15.277  0.00  0.00    +0.021 C 
ENDBRANCH   4   9
BRANCH   3  14
ATOM     14  C   UNL     1      35.850 -24.436 -15.380  0.00  0.00    +0.014 C 
ATOM     15  C   UNL     1      37.016 -23.732 -15.083  0.00  0.00    +0.069 C 
ATOM     16  C   UNL     1      35.698 -25.751 -14.940  0.00  0.00    +0.001 C 
ATOM     17  C   UNL     1      38.032 -24.342 -14.347  0.00  0.00    +0.010 C 
ATOM     18  C   UNL     1      36.713 -26.362 -14.203  0.00  0.00    +0.000 C 
ATOM     19  C   UNL     1      37.879 -25.657 -13.906  0.00  0.00    +0.001 C 
BRANCH  15  21
ATOM     20  N   UNL     1      37.362 -21.289 -15.871  0.00  0.00    -0.191 NA
ATOM     21  C   UNL     1      37.208 -22.381 -15.518  0.00  0.00    +0.100 C 
ENDBRANCH  15  21
ENDBRANCH   3  14
BRANCH   2  22
ATOM     22  C   UNL     1      34.113 -21.568 -19.179  0.00  0.00    +0.058 C 
ATOM     23  C   UNL     1      33.016 -20.992 -19.808  0.00  0.00    +0.015 C 
ATOM     24  C   UNL     1      35.401 -21.341 -19.650  0.00  0.00    +0.015 C 
ATOM     25  C   UNL     1      33.210 -20.177 -20.924  0.00  0.00    +0.001 C 
ATOM     26  C   UNL     1      35.595 -20.527 -20.765  0.00  0.00    +0.001 C 
ATOM     27  C   UNL     1      34.499 -19.945 -21.402  0.00  0.00    +0.000 C 
ENDBRANCH   2  22
TORSDOF 4
ENDMDL
