MODEL 1
REMARK VINA RESULT:     -11.8      0.000      0.000
REMARK  Name = 5567
REMARK  8 active torsions:
REMARK  status: ('A' for Active; 'I' for Inactive)
REMARK    1  A    between atoms: N_1  and  C_20
REMARK    2  A    between atoms: C_2  and  C_8
REMARK    3  A    between atoms: C_2  and  O_18
REMARK    4  A    between atoms: C_11  and  C_17
REMARK    5  A    between atoms: C_20  and  C_21
REMARK    6  A    between atoms: C_21  and  C_22
REMARK    7  A    between atoms: C_22  and  C_24
REMARK    8  A    between atoms: C_24  and  C_26
REMARK                            x       y       z     vdW  Elec       q    Type
REMARK                         _______ _______ _______ _____ _____    ______ ____
ROOT
ATOM      1  N   UNL     1      35.256 -20.513 -20.039  0.00  0.00    +0.387 N 
ATOM      2  C   UNL     1      34.025 -22.672 -18.411  0.00  0.00    +0.103 C 
ATOM      3  C   UNL     1      33.224 -21.524 -19.065  0.00  0.00    +0.008 C 
ATOM      4  C   UNL     1      35.495 -22.219 -18.252  0.00  0.00    +0.008 C 
ATOM      5  C   UNL     1      33.891 -20.969 -20.328  0.00  0.00    -0.075 C 
ATOM      6  C   UNL     1      36.083 -21.613 -19.533  0.00  0.00    -0.075 C 
ATOM      7  H   UNL     1      35.201 -19.800 -19.312  0.00  0.00    -0.080 HD
ENDROOT
BRANCH   2   8
ATOM      8  C   UNL     1      33.469 -23.167 -17.075  0.00  0.00    +0.002 C 
ATOM      9  C   UNL     1      32.096 -23.132 -16.836  0.00  0.00    +0.002 C 
ATOM     10  C   UNL     1      34.337 -23.655 -16.099  0.00  0.00    -0.002 C 
ATOM     11  C   UNL     1      31.589 -23.585 -15.618  0.00  0.00    +0.071 C 
ATOM     12  C   UNL     1      33.829 -24.108 -14.881  0.00  0.00    -0.000 C 
ATOM     13  C   UNL     1      32.455 -24.073 -14.641  0.00  0.00    +0.004 C 
BRANCH  11  17
ATOM     14  F   UNL     1      29.526 -24.776 -15.396  0.00  0.00    -0.166 F 
ATOM     15  F   UNL     1      29.793 -23.028 -14.140  0.00  0.00    -0.166 F 
ATOM     16  F   UNL     1      29.447 -22.788 -16.274  0.00  0.00    -0.166 F 
ATOM     17  C   UNL     1      30.120 -23.546 -15.361  0.00  0.00    +0.419 C 
ENDBRANCH  11  17
ENDBRANCH   2   8
BRANCH   2  18
ATOM     18  O   UNL     1      33.967 -23.804 -19.292  0.00  0.00    -0.383 OA
ATOM     19  H   UNL     1      34.457 -23.606 -20.105  0.00  0.00    +0.211 HD
ENDBRANCH   2  18
BRANCH   1  20
ATOM     20  C   UNL     1      35.862 -19.921 -21.231  0.00  0.00    -0.077 C 
BRANCH  20  21
ATOM     21  C   UNL     1      34.953 -18.829 -21.799  0.00  0.00    -0.015 C 
BRANCH  21  22
ATOM     22  C   UNL     1      35.164 -17.479 -21.107  0.00  0.00    +0.067 C 
BRANCH  22  24
ATOM     23  O   UNL     1      35.529 -16.141 -23.083  0.00  0.00    -0.291 OA
ATOM     24  C   UNL     1      34.925 -16.287 -22.023  0.00  0.00    +0.173 C 
BRANCH  24  26
ATOM     25  F   UNL     1      31.111 -12.493 -20.529  0.00  0.00    -0.204 F 
ATOM     26  C   UNL     1      33.906 -15.275 -21.625  0.00  0.00    +0.035 C 
ATOM     27  C   UNL     1      33.314 -15.384 -20.386  0.00  0.00    +0.005 C 
ATOM     28  C   UNL     1      33.595 -14.267 -22.509  0.00  0.00    +0.005 C 
ATOM     29  C   UNL     1      32.361 -14.436 -20.013  0.00  0.00    +0.030 C 
ATOM     30  C   UNL     1      32.641 -13.319 -22.136  0.00  0.00    +0.030 C 
ATOM     31  C   UNL     1      32.025 -13.403 -20.887  0.00  0.00    +0.140 C 
ENDBRANCH  24  26
ENDBRANCH  22  24
ENDBRANCH  21  22
ENDBRANCH  20  21
ENDBRANCH   1  20
TORSDOF 8
ENDMDL
MODEL 2
REMARK VINA RESULT:     -11.5      1.729      2.257
REMARK  Name = 5567
REMARK  8 active torsions:
REMARK  status: ('A' for Active; 'I' for Inactive)
REMARK    1  A    between atoms: N_1  and  C_20
REMARK    2  A    between atoms: C_2  and  C_8
REMARK    3  A    between atoms: C_2  and  O_18
REMARK    4  A    between atoms: C_11  and  C_17
REMARK    5  A    between atoms: C_20  and  C_21
REMARK    6  A    between atoms: C_21  and  C_22
REMARK    7  A    between atoms: C_22  and  C_24
REMARK    8  A    between atoms: C_24  and  C_26
REMARK                            x       y       z     vdW  Elec       q    Type
REMARK                         _______ _______ _______ _____ _____    ______ ____
ROOT
ATOM      1  N   UNL     1      35.371 -20.619 -19.879  0.00  0.00    +0.387 N 
ATOM      2  C   UNL     1      34.039 -22.758 -18.304  0.00  0.00    +0.103 C 
ATOM      3  C   UNL     1      33.283 -21.602 -18.996  0.00  0.00    +0.008 C 
ATOM      4  C   UNL     1      35.506 -22.324 -18.080  0.00  0.00    +0.008 C 
ATOM      5  C   UNL     1      34.015 -21.059 -20.229  0.00  0.00    -0.075 C 
ATOM      6  C   UNL     1      36.160 -21.728 -19.333  0.00  0.00    -0.075 C 
ATOM      7  H   UNL     1      35.292 -19.903 -19.157  0.00  0.00    -0.080 HD
ENDROOT
BRANCH   2   8
ATOM      8  C   UNL     1      33.417 -23.243 -16.993  0.00  0.00    +0.002 C 
ATOM      9  C   UNL     1      32.037 -23.169 -16.809  0.00  0.00    +0.002 C 
ATOM     10  C   UNL     1      34.231 -23.760 -15.987  0.00  0.00    -0.002 C 
ATOM     11  C   UNL     1      31.469 -23.613 -15.614  0.00  0.00    +0.071 C 
ATOM     12  C   UNL     1      33.663 -24.204 -14.792  0.00  0.00    -0.000 C 
ATOM     13  C   UNL     1      32.282 -24.130 -14.606  0.00  0.00    +0.004 C 
BRANCH  11  17
ATOM     14  F   UNL     1      29.613 -22.561 -14.533  0.00  0.00    -0.166 F 
ATOM     15  F   UNL     1      29.301 -23.264 -16.561  0.00  0.00    -0.166 F 
ATOM     16  F   UNL     1      29.465 -24.693 -14.930  0.00  0.00    -0.166 F 
ATOM     17  C   UNL     1      29.993 -23.533 -15.415  0.00  0.00    +0.419 C 
ENDBRANCH  11  17
ENDBRANCH   2   8
BRANCH   2  18
ATOM     18  O   UNL     1      34.007 -23.892 -19.184  0.00  0.00    -0.383 OA
ATOM     19  H   UNL     1      34.107 -23.592 -20.101  0.00  0.00    +0.211 HD
ENDBRANCH   2  18
BRANCH   1  20
ATOM     20  C   UNL     1      36.038 -20.038 -21.043  0.00  0.00    -0.077 C 
BRANCH  20  21
ATOM     21  C   UNL     1      35.018 -19.334 -21.940  0.00  0.00    -0.015 C 
BRANCH  21  22
ATOM     22  C   UNL     1      35.626 -18.146 -22.691  0.00  0.00    +0.067 C 
BRANCH  22  24
ATOM     23  O   UNL     1      34.964 -16.408 -21.152  0.00  0.00    -0.291 OA
ATOM     24  C   UNL     1      35.004 -16.809 -22.312  0.00  0.00    +0.173 C 
BRANCH  24  26
ATOM     25  F   UNL     1      32.911 -13.593 -26.369  0.00  0.00    -0.204 F 
ATOM     26  C   UNL     1      34.444 -15.951 -23.395  0.00  0.00    +0.035 C 
ATOM     27  C   UNL     1      34.100 -14.651 -23.097  0.00  0.00    +0.005 C 
ATOM     28  C   UNL     1      34.293 -16.489 -24.653  0.00  0.00    +0.005 C 
ATOM     29  C   UNL     1      33.577 -13.848 -24.111  0.00  0.00    +0.030 C 
ATOM     30  C   UNL     1      33.771 -15.685 -25.666  0.00  0.00    +0.030 C 
ATOM     31  C   UNL     1      33.413 -14.365 -25.396  0.00  0.00    +0.140 C 
ENDBRANCH  24  26
ENDBRANCH  22  24
ENDBRANCH  21  22
ENDBRANCH  20  21
ENDBRANCH   1  20
TORSDOF 8
ENDMDL
MODEL 3
REMARK VINA RESULT:     -11.4      1.864      2.384
REMARK  Name = 5567
REMARK  8 active torsions:
REMARK  status: ('A' for Active; 'I' for Inactive)
REMARK    1  A    between atoms: N_1  and  C_20
REMARK    2  A    between atoms: C_2  and  C_8
REMARK    3  A    between atoms: C_2  and  O_18
REMARK    4  A    between atoms: C_11  and  C_17
REMARK    5  A    between atoms: C_20  and  C_21
REMARK    6  A    between atoms: C_21  and  C_22
REMARK    7  A    between atoms: C_22  and  C_24
REMARK    8  A    between atoms: C_24  and  C_26
REMARK                            x       y       z     vdW  Elec       q    Type
REMARK                         _______ _______ _______ _____ _____    ______ ____
ROOT
ATOM      1  N   UNL     1      35.309 -20.492 -20.067  0.00  0.00    +0.387 N 
ATOM      2  C   UNL     1      34.082 -22.658 -18.445  0.00  0.00    +0.103 C 
ATOM      3  C   UNL     1      33.276 -21.521 -19.111  0.00  0.00    +0.008 C 
ATOM      4  C   UNL     1      35.545 -22.190 -18.273  0.00  0.00    +0.008 C 
ATOM      5  C   UNL     1      33.952 -20.963 -20.369  0.00  0.00    -0.075 C 
ATOM      6  C   UNL     1      36.142 -21.582 -19.549  0.00  0.00    -0.075 C 
ATOM      7  H   UNL     1      35.239 -19.777 -19.343  0.00  0.00    -0.080 HD
ENDROOT
BRANCH   2   8
ATOM      8  C   UNL     1      33.517 -23.156 -17.114  0.00  0.00    +0.002 C 
ATOM      9  C   UNL     1      34.379 -23.623 -16.123  0.00  0.00    +0.002 C 
ATOM     10  C   UNL     1      32.141 -23.137 -16.893  0.00  0.00    -0.002 C 
ATOM     11  C   UNL     1      33.864 -24.075 -14.908  0.00  0.00    +0.071 C 
ATOM     12  C   UNL     1      31.626 -23.590 -15.677  0.00  0.00    -0.000 C 
ATOM     13  C   UNL     1      32.487 -24.059 -14.685  0.00  0.00    +0.004 C 
BRANCH  11  17
ATOM     14  F   UNL     1      34.148 -24.928 -12.691  0.00  0.00    -0.166 F 
ATOM     15  F   UNL     1      35.488 -25.688 -14.217  0.00  0.00    -0.166 F 
ATOM     16  F   UNL     1      35.721 -23.654 -13.485  0.00  0.00    -0.166 F 
ATOM     17  C   UNL     1      34.785 -24.578 -13.848  0.00  0.00    +0.419 C 
ENDBRANCH  11  17
ENDBRANCH   2   8
BRANCH   2  18
ATOM     18  O   UNL     1      34.045 -23.794 -19.323  0.00  0.00    -0.383 OA
ATOM     19  H   UNL     1      34.928 -23.940 -19.700  0.00  0.00    +0.211 HD
ENDBRANCH   2  18
BRANCH   1  20
ATOM     20  C   UNL     1      35.922 -19.897 -21.254  0.00  0.00    -0.077 C 
BRANCH  20  21
ATOM     21  C   UNL     1      34.991 -18.844 -21.858  0.00  0.00    -0.015 C 
BRANCH  21  22
ATOM     22  C   UNL     1      35.083 -17.500 -21.129  0.00  0.00    +0.067 C 
BRANCH  22  24
ATOM     23  O   UNL     1      35.498 -16.164 -23.096  0.00  0.00    -0.291 OA
ATOM     24  C   UNL     1      34.879 -16.301 -22.044  0.00  0.00    +0.173 C 
BRANCH  24  26
ATOM     25  F   UNL     1      31.124 -12.434 -20.585  0.00  0.00    -0.204 F 
ATOM     26  C   UNL     1      33.876 -15.269 -21.655  0.00  0.00    +0.035 C 
ATOM     27  C   UNL     1      33.380 -15.281 -20.370  0.00  0.00    +0.005 C 
ATOM     28  C   UNL     1      33.483 -14.342 -22.593  0.00  0.00    +0.005 C 
ATOM     29  C   UNL     1      32.441 -14.315 -20.006  0.00  0.00    +0.030 C 
ATOM     30  C   UNL     1      32.545 -13.376 -22.229  0.00  0.00    +0.030 C 
ATOM     31  C   UNL     1      32.024 -13.362 -20.935  0.00  0.00    +0.140 C 
ENDBRANCH  24  26
ENDBRANCH  22  24
ENDBRANCH  21  22
ENDBRANCH  20  21
ENDBRANCH   1  20
TORSDOF 8
ENDMDL
MODEL 4
REMARK VINA RESULT:     -11.1      3.281     10.387
REMARK  Name = 5567
REMARK  8 active torsions:
REMARK  status: ('A' for Active; 'I' for Inactive)
REMARK    1  A    between atoms: N_1  and  C_20
REMARK    2  A    between atoms: C_2  and  C_8
REMARK    3  A    between atoms: C_2  and  O_18
REMARK    4  A    between atoms: C_11  and  C_17
REMARK    5  A    between atoms: C_20  and  C_21
REMARK    6  A    between atoms: C_21  and  C_22
REMARK    7  A    between atoms: C_22  and  C_24
REMARK    8  A    between atoms: C_24  and  C_26
REMARK                            x       y       z     vdW  Elec       q    Type
REMARK                         _______ _______ _______ _____ _____    ______ ____
ROOT
ATOM      1  N   UNL     1      34.886 -15.415 -22.843  0.00  0.00    +0.387 N 
ATOM      2  C   UNL     1      32.791 -13.812 -21.477  0.00  0.00    +0.103 C 
ATOM      3  C   UNL     1      33.039 -13.783 -23.002  0.00  0.00    +0.008 C 
ATOM      4  C   UNL     1      34.080 -14.301 -20.778  0.00  0.00    +0.008 C 
ATOM      5  C   UNL     1      33.636 -15.089 -23.539  0.00  0.00    -0.075 C 
ATOM      6  C   UNL     1      34.663 -15.575 -21.403  0.00  0.00    -0.075 C 
ATOM      7  H   UNL     1      35.532 -14.637 -22.978  0.00  0.00    -0.080 HD
ENDROOT
BRANCH   2   8
ATOM      8  C   UNL     1      32.324 -12.486 -20.874  0.00  0.00    +0.002 C 
ATOM      9  C   UNL     1      32.361 -11.322 -21.640  0.00  0.00    +0.002 C 
ATOM     10  C   UNL     1      31.858 -12.446 -19.561  0.00  0.00    -0.002 C 
ATOM     11  C   UNL     1      31.933 -10.113 -21.090  0.00  0.00    +0.071 C 
ATOM     12  C   UNL     1      31.430 -11.237 -19.012  0.00  0.00    -0.000 C 
ATOM     13  C   UNL     1      31.468 -10.071 -19.776  0.00  0.00    +0.004 C 
BRANCH  11  17
ATOM     14  F   UNL     1      33.231  -8.343 -22.043  0.00  0.00    -0.166 F 
ATOM     15  F   UNL     1      31.520  -9.033 -23.183  0.00  0.00    -0.166 F 
ATOM     16  F   UNL     1      31.217  -7.864 -21.375  0.00  0.00    -0.166 F 
ATOM     17  C   UNL     1      31.975  -8.866 -21.907  0.00  0.00    +0.419 C 
ENDBRANCH  11  17
ENDBRANCH   2   8
BRANCH   2  18
ATOM     18  O   UNL     1      31.728 -14.743 -21.223  0.00  0.00    -0.383 OA
ATOM     19  H   UNL     1      31.066 -14.678 -21.930  0.00  0.00    +0.211 HD
ENDBRANCH   2  18
BRANCH   1  20
ATOM     20  C   UNL     1      35.486 -16.624 -23.407  0.00  0.00    -0.077 C 
BRANCH  20  21
ATOM     21  C   UNL     1      34.793 -17.869 -22.850  0.00  0.00    -0.015 C 
BRANCH  21  22
ATOM     22  C   UNL     1      35.763 -19.039 -22.664  0.00  0.00    +0.067 C 
BRANCH  22  24
ATOM     23  O   UNL     1      37.023 -18.718 -20.630  0.00  0.00    -0.291 OA
ATOM     24  C   UNL     1      36.113 -19.308 -21.206  0.00  0.00    +0.173 C 
BRANCH  24  26
ATOM     25  F   UNL     1      33.085 -23.047 -18.373  0.00  0.00    -0.204 F 
ATOM     26  C   UNL     1      35.304 -20.306 -20.451  0.00  0.00    +0.035 C 
ATOM     27  C   UNL     1      35.961 -21.273 -19.722  0.00  0.00    +0.005 C 
ATOM     28  C   UNL     1      33.932 -20.225 -20.509  0.00  0.00    +0.005 C 
ATOM     29  C   UNL     1      35.204 -22.207 -19.014  0.00  0.00    +0.030 C 
ATOM     30  C   UNL     1      33.175 -21.160 -19.801  0.00  0.00    +0.030 C 
ATOM     31  C   UNL     1      33.811 -22.150 -19.053  0.00  0.00    +0.140 C 
ENDBRANCH  24  26
ENDBRANCH  22  24
ENDBRANCH  21  22
ENDBRANCH  20  21
ENDBRANCH   1  20
TORSDOF 8
ENDMDL
MODEL 5
REMARK VINA RESULT:     -11.1      2.497      3.184
REMARK  Name = 5567
REMARK  8 active torsions:
REMARK  status: ('A' for Active; 'I' for Inactive)
REMARK    1  A    between atoms: N_1  and  C_20
REMARK    2  A    between atoms: C_2  and  C_8
REMARK    3  A    between atoms: C_2  and  O_18
REMARK    4  A    between atoms: C_11  and  C_17
REMARK    5  A    between atoms: C_20  and  C_21
REMARK    6  A    between atoms: C_21  and  C_22
REMARK    7  A    between atoms: C_22  and  C_24
REMARK    8  A    between atoms: C_24  and  C_26
REMARK                            x       y       z     vdW  Elec       q    Type
REMARK                         _______ _______ _______ _____ _____    ______ ____
ROOT
ATOM      1  N   UNL     1      35.112 -20.676 -19.993  0.00  0.00    +0.387 N 
ATOM      2  C   UNL     1      33.948 -22.804 -18.277  0.00  0.00    +0.103 C 
ATOM      3  C   UNL     1      33.119 -21.674 -18.928  0.00  0.00    +0.008 C 
ATOM      4  C   UNL     1      35.420 -22.342 -18.179  0.00  0.00    +0.008 C 
ATOM      5  C   UNL     1      33.740 -21.143 -20.225  0.00  0.00    -0.075 C 
ATOM      6  C   UNL     1      35.961 -21.761 -19.492  0.00  0.00    -0.075 C 
ATOM      7  H   UNL     1      35.079 -19.947 -19.280  0.00  0.00    -0.080 HD
ENDROOT
BRANCH   2   8
ATOM      8  C   UNL     1      33.441 -23.273 -16.913  0.00  0.00    +0.002 C 
ATOM      9  C   UNL     1      34.346 -23.711 -15.947  0.00  0.00    +0.002 C 
ATOM     10  C   UNL     1      32.075 -23.258 -16.636  0.00  0.00    -0.002 C 
ATOM     11  C   UNL     1      33.883 -24.137 -14.701  0.00  0.00    +0.071 C 
ATOM     12  C   UNL     1      31.612 -23.685 -15.391  0.00  0.00    -0.000 C 
ATOM     13  C   UNL     1      32.517 -24.124 -14.424  0.00  0.00    +0.004 C 
BRANCH  11  17
ATOM     14  F   UNL     1      35.636 -25.644 -14.087  0.00  0.00    -0.166 F 
ATOM     15  F   UNL     1      35.723 -23.643 -13.256  0.00  0.00    -0.166 F 
ATOM     16  F   UNL     1      34.233 -25.053 -12.535  0.00  0.00    -0.166 F 
ATOM     17  C   UNL     1      34.850 -24.608 -13.668  0.00  0.00    +0.419 C 
ENDBRANCH  11  17
ENDBRANCH   2   8
BRANCH   2  18
ATOM     18  O   UNL     1      33.865 -23.955 -19.131  0.00  0.00    -0.383 OA
ATOM     19  H   UNL     1      34.658 -24.502 -19.014  0.00  0.00    +0.211 HD
ENDBRANCH   2  18
BRANCH   1  20
ATOM     20  C   UNL     1      35.674 -20.106 -21.217  0.00  0.00    -0.077 C 
BRANCH  20  21
ATOM     21  C   UNL     1      35.415 -18.599 -21.267  0.00  0.00    -0.015 C 
BRANCH  21  22
ATOM     22  C   UNL     1      35.974 -17.956 -22.539  0.00  0.00    +0.067 C 
BRANCH  22  24
ATOM     23  O   UNL     1      34.398 -18.671 -24.221  0.00  0.00    -0.291 OA
ATOM     24  C   UNL     1      34.922 -17.739 -23.618  0.00  0.00    +0.173 C 
BRANCH  24  26
ATOM     25  F   UNL     1      33.347 -12.514 -24.802  0.00  0.00    -0.204 F 
ATOM     26  C   UNL     1      34.503 -16.344 -23.935  0.00  0.00    +0.035 C 
ATOM     27  C   UNL     1      33.929 -16.087 -25.160  0.00  0.00    +0.005 C 
ATOM     28  C   UNL     1      34.702 -15.363 -22.990  0.00  0.00    +0.005 C 
ATOM     29  C   UNL     1      33.536 -14.782 -25.456  0.00  0.00    +0.030 C 
ATOM     30  C   UNL     1      34.309 -14.058 -23.285  0.00  0.00    +0.030 C 
ATOM     31  C   UNL     1      33.725 -13.767 -24.518  0.00  0.00    +0.140 C 
ENDBRANCH  24  26
ENDBRANCH  22  24
ENDBRANCH  21  22
ENDBRANCH  20  21
ENDBRANCH   1  20
TORSDOF 8
ENDMDL
MODEL 6
REMARK VINA RESULT:     -11.1      3.176     11.058
REMARK  Name = 5567
REMARK  8 active torsions:
REMARK  status: ('A' for Active; 'I' for Inactive)
REMARK    1  A    between atoms: N_1  and  C_20
REMARK    2  A    between atoms: C_2  and  C_8
REMARK    3  A    between atoms: C_2  and  O_18
REMARK    4  A    between atoms: C_11  and  C_17
REMARK    5  A    between atoms: C_20  and  C_21
REMARK    6  A    between atoms: C_21  and  C_22
REMARK    7  A    between atoms: C_22  and  C_24
REMARK    8  A    between atoms: C_24  and  C_26
REMARK                            x       y       z     vdW  Elec       q    Type
REMARK                         _______ _______ _______ _____ _____    ______ ____
ROOT
ATOM      1  N   UNL     1      34.572 -16.008 -24.147  0.00  0.00    +0.387 N 
ATOM      2  C   UNL     1      33.439 -13.343 -23.483  0.00  0.00    +0.103 C 
ATOM      3  C   UNL     1      33.479 -13.929 -24.912  0.00  0.00    +0.008 C 
ATOM      4  C   UNL     1      34.525 -14.043 -22.633  0.00  0.00    +0.008 C 
ATOM      5  C   UNL     1      33.460 -15.462 -24.934  0.00  0.00    -0.075 C 
ATOM      6  C   UNL     1      34.493 -15.573 -22.750  0.00  0.00    -0.075 C 
ATOM      7  H   UNL     1      35.441 -15.649 -24.541  0.00  0.00    -0.080 HD
ENDROOT
BRANCH   2   8
ATOM      8  C   UNL     1      33.593 -11.824 -23.404  0.00  0.00    +0.002 C 
ATOM      9  C   UNL     1      32.709 -11.074 -22.629  0.00  0.00    +0.002 C 
ATOM     10  C   UNL     1      34.618 -11.191 -24.104  0.00  0.00    -0.002 C 
ATOM     11  C   UNL     1      32.849  -9.688 -22.555  0.00  0.00    +0.071 C 
ATOM     12  C   UNL     1      34.759  -9.805 -24.031  0.00  0.00    -0.000 C 
ATOM     13  C   UNL     1      33.874  -9.054 -23.257  0.00  0.00    +0.004 C 
BRANCH  11  17
ATOM     14  F   UNL     1      31.327  -9.594 -20.713  0.00  0.00    -0.166 F 
ATOM     15  F   UNL     1      32.483  -7.806 -21.126  0.00  0.00    -0.166 F 
ATOM     16  F   UNL     1      30.865  -8.383 -22.458  0.00  0.00    -0.166 F 
ATOM     17  C   UNL     1      31.903  -8.885 -21.729  0.00  0.00    +0.419 C 
ENDBRANCH  11  17
ENDBRANCH   2   8
BRANCH   2  18
ATOM     18  O   UNL     1      32.145 -13.626 -22.929  0.00  0.00    -0.383 OA
ATOM     19  H   UNL     1      32.243 -14.199 -22.153  0.00  0.00    +0.211 HD
ENDBRANCH   2  18
BRANCH   1  20
ATOM     20  C   UNL     1      34.589 -17.468 -24.230  0.00  0.00    -0.077 C 
BRANCH  20  21
ATOM     21  C   UNL     1      35.569 -18.044 -23.205  0.00  0.00    -0.015 C 
BRANCH  21  22
ATOM     22  C   UNL     1      35.045 -19.332 -22.562  0.00  0.00    +0.067 C 
BRANCH  22  24
ATOM     23  O   UNL     1      36.582 -18.975 -20.735  0.00  0.00    -0.291 OA
ATOM     24  C   UNL     1      35.608 -19.583 -21.169  0.00  0.00    +0.173 C 
BRANCH  24  26
ATOM     25  F   UNL     1      33.089 -23.350 -17.908  0.00  0.00    -0.204 F 
ATOM     26  C   UNL     1      34.936 -20.590 -20.300  0.00  0.00    +0.035 C 
ATOM     27  C   UNL     1      35.714 -21.486 -19.601  0.00  0.00    +0.005 C 
ATOM     28  C   UNL     1      33.561 -20.586 -20.225  0.00  0.00    +0.005 C 
ATOM     29  C   UNL     1      35.084 -22.427 -18.786  0.00  0.00    +0.030 C 
ATOM     30  C   UNL     1      32.931 -21.527 -19.411  0.00  0.00    +0.030 C 
ATOM     31  C   UNL     1      33.693 -22.447 -18.690  0.00  0.00    +0.140 C 
ENDBRANCH  24  26
ENDBRANCH  22  24
ENDBRANCH  21  22
ENDBRANCH  20  21
ENDBRANCH   1  20
TORSDOF 8
ENDMDL
MODEL 7
REMARK VINA RESULT:     -11.0      3.416     10.631
REMARK  Name = 5567
REMARK  8 active torsions:
REMARK  status: ('A' for Active; 'I' for Inactive)
REMARK    1  A    between atoms: N_1  and  C_20
REMARK    2  A    between atoms: C_2  and  C_8
REMARK    3  A    between atoms: C_2  and  O_18
REMARK    4  A    between atoms: C_11  and  C_17
REMARK    5  A    between atoms: C_20  and  C_21
REMARK    6  A    between atoms: C_21  and  C_22
REMARK    7  A    between atoms: C_22  and  C_24
REMARK    8  A    between atoms: C_24  and  C_26
REMARK                            x       y       z     vdW  Elec       q    Type
REMARK                         _______ _______ _______ _____ _____    ______ ____
ROOT
ATOM      1  N   UNL     1      34.204 -16.210 -23.754  0.00  0.00    +0.387 N 
ATOM      2  C   UNL     1      33.573 -13.438 -22.893  0.00  0.00    +0.103 C 
ATOM      3  C   UNL     1      34.376 -14.442 -22.037  0.00  0.00    +0.008 C 
ATOM      4  C   UNL     1      32.718 -14.228 -23.910  0.00  0.00    +0.008 C 
ATOM      5  C   UNL     1      35.128 -15.481 -22.878  0.00  0.00    -0.075 C 
ATOM      6  C   UNL     1      33.515 -15.296 -24.671  0.00  0.00    -0.075 C 
ATOM      7  H   UNL     1      33.500 -16.657 -23.167  0.00  0.00    -0.080 HD
ENDROOT
BRANCH   2   8
ATOM      8  C   UNL     1      32.699 -12.466 -22.098  0.00  0.00    +0.002 C 
ATOM      9  C   UNL     1      32.615 -11.130 -22.485  0.00  0.00    +0.002 C 
ATOM     10  C   UNL     1      31.987 -12.920 -20.990  0.00  0.00    -0.002 C 
ATOM     11  C   UNL     1      31.816 -10.244 -21.761  0.00  0.00    +0.071 C 
ATOM     12  C   UNL     1      31.188 -12.034 -20.265  0.00  0.00    -0.000 C 
ATOM     13  C   UNL     1      31.104 -10.696 -20.651  0.00  0.00    +0.004 C 
BRANCH  11  17
ATOM     14  F   UNL     1      30.667  -8.545 -22.992  0.00  0.00    -0.166 F 
ATOM     15  F   UNL     1      31.592  -7.950 -21.123  0.00  0.00    -0.166 F 
ATOM     16  F   UNL     1      32.832  -8.393 -22.853  0.00  0.00    -0.166 F 
ATOM     17  C   UNL     1      31.727  -8.813 -22.172  0.00  0.00    +0.419 C 
ENDBRANCH  11  17
ENDBRANCH   2   8
BRANCH   2  18
ATOM     18  O   UNL     1      34.514 -12.614 -23.600  0.00  0.00    -0.383 OA
ATOM     19  H   UNL     1      34.035 -12.000 -24.178  0.00  0.00    +0.211 HD
ENDBRANCH   2  18
BRANCH   1  20
ATOM     20  C   UNL     1      34.916 -17.246 -24.501  0.00  0.00    -0.077 C 
BRANCH  20  21
ATOM     21  C   UNL     1      34.550 -18.632 -23.964  0.00  0.00    -0.015 C 
BRANCH  21  22
ATOM     22  C   UNL     1      35.515 -19.105 -22.873  0.00  0.00    +0.067 C 
BRANCH  22  24
ATOM     23  O   UNL     1      34.717 -17.807 -21.001  0.00  0.00    -0.291 OA
ATOM     24  C   UNL     1      34.973 -18.916 -21.463  0.00  0.00    +0.173 C 
BRANCH  24  26
ATOM     25  F   UNL     1      34.045 -23.444 -18.331  0.00  0.00    -0.204 F 
ATOM     26  C   UNL     1      34.725 -20.124 -20.626  0.00  0.00    +0.035 C 
ATOM     27  C   UNL     1      33.429 -20.435 -20.280  0.00  0.00    +0.005 C 
ATOM     28  C   UNL     1      35.801 -20.886 -20.231  0.00  0.00    +0.005 C 
ATOM     29  C   UNL     1      33.197 -21.566 -19.498  0.00  0.00    +0.030 C 
ATOM     30  C   UNL     1      35.570 -22.017 -19.448  0.00  0.00    +0.030 C 
ATOM     31  C   UNL     1      34.268 -22.358 -19.082  0.00  0.00    +0.140 C 
ENDBRANCH  24  26
ENDBRANCH  22  24
ENDBRANCH  21  22
ENDBRANCH  20  21
ENDBRANCH   1  20
TORSDOF 8
ENDMDL
MODEL 8
REMARK VINA RESULT:     -11.0      3.377     10.117
REMARK  Name = 5567
REMARK  8 active torsions:
REMARK  status: ('A' for Active; 'I' for Inactive)
REMARK    1  A    between atoms: N_1  and  C_20
REMARK    2  A    between atoms: C_2  and  C_8
REMARK    3  A    between atoms: C_2  and  O_18
REMARK    4  A    between atoms: C_11  and  C_17
REMARK    5  A    between atoms: C_20  and  C_21
REMARK    6  A    between atoms: C_21  and  C_22
REMARK    7  A    between atoms: C_22  and  C_24
REMARK    8  A    between atoms: C_24  and  C_26
REMARK                            x       y       z     vdW  Elec       q    Type
REMARK                         _______ _______ _______ _____ _____    ______ ____
ROOT
ATOM      1  N   UNL     1      34.140 -16.263 -24.038  0.00  0.00    +0.387 N 
ATOM      2  C   UNL     1      33.845 -13.341 -23.592  0.00  0.00    +0.103 C 
ATOM      3  C   UNL     1      34.579 -14.290 -22.619  0.00  0.00    +0.008 C 
ATOM      4  C   UNL     1      32.864 -14.175 -24.447  0.00  0.00    +0.008 C 
ATOM      5  C   UNL     1      35.177 -15.519 -23.314  0.00  0.00    -0.075 C 
ATOM      6  C   UNL     1      33.506 -15.426 -25.061  0.00  0.00    -0.075 C 
ATOM      7  H   UNL     1      33.423 -16.537 -23.366  0.00  0.00    -0.080 HD
ENDROOT
BRANCH   2   8
ATOM      8  C   UNL     1      33.117 -12.171 -22.928  0.00  0.00    +0.002 C 
ATOM      9  C   UNL     1      32.362 -12.386 -21.776  0.00  0.00    +0.002 C 
ATOM     10  C   UNL     1      33.214 -10.892 -23.474  0.00  0.00    -0.002 C 
ATOM     11  C   UNL     1      31.699 -11.318 -21.169  0.00  0.00    +0.071 C 
ATOM     12  C   UNL     1      32.551  -9.825 -22.866  0.00  0.00    -0.000 C 
ATOM     13  C   UNL     1      31.794 -10.038 -21.714  0.00  0.00    +0.004 C 
BRANCH  11  17
ATOM     14  F   UNL     1      31.353 -12.569 -19.159  0.00  0.00    -0.166 F 
ATOM     15  F   UNL     1      30.837 -10.463 -19.109  0.00  0.00    -0.166 F 
ATOM     16  F   UNL     1      29.590 -11.859 -20.215  0.00  0.00    -0.166 F 
ATOM     17  C   UNL     1      30.888 -11.547 -19.938  0.00  0.00    +0.419 C 
ENDBRANCH  11  17
ENDBRANCH   2   8
BRANCH   2  18
ATOM     18  O   UNL     1      34.831 -12.741 -24.447  0.00  0.00    -0.383 OA
ATOM     19  H   UNL     1      35.375 -13.436 -24.850  0.00  0.00    +0.211 HD
ENDBRANCH   2  18
BRANCH   1  20
ATOM     20  C   UNL     1      34.702 -17.472 -24.640  0.00  0.00    -0.077 C 
BRANCH  20  21
ATOM     21  C   UNL     1      34.369 -18.694 -23.781  0.00  0.00    -0.015 C 
BRANCH  21  22
ATOM     22  C   UNL     1      35.511 -19.065 -22.830  0.00  0.00    +0.067 C 
BRANCH  22  24
ATOM     23  O   UNL     1      35.101 -17.807 -20.811  0.00  0.00    -0.291 OA
ATOM     24  C   UNL     1      35.148 -18.904 -21.360  0.00  0.00    +0.173 C 
BRANCH  24  26
ATOM     25  F   UNL     1      33.914 -23.473 -18.396  0.00  0.00    -0.204 F 
ATOM     26  C   UNL     1      34.819 -20.125 -20.570  0.00  0.00    +0.035 C 
ATOM     27  C   UNL     1      35.850 -20.911 -20.107  0.00  0.00    +0.005 C 
ATOM     28  C   UNL     1      33.496 -20.419 -20.331  0.00  0.00    +0.005 C 
ATOM     29  C   UNL     1      35.542 -22.053 -19.367  0.00  0.00    +0.030 C 
ATOM     30  C   UNL     1      33.187 -21.561 -19.590  0.00  0.00    +0.030 C 
ATOM     31  C   UNL     1      34.210 -22.377 -19.107  0.00  0.00    +0.140 C 
ENDBRANCH  24  26
ENDBRANCH  22  24
ENDBRANCH  21  22
ENDBRANCH  20  21
ENDBRANCH   1  20
TORSDOF 8
ENDMDL
MODEL 9
REMARK VINA RESULT:     -10.9      6.429      9.539
REMARK  Name = 5567
REMARK  8 active torsions:
REMARK  status: ('A' for Active; 'I' for Inactive)
REMARK    1  A    between atoms: N_1  and  C_20
REMARK    2  A    between atoms: C_2  and  C_8
REMARK    3  A    between atoms: C_2  and  O_18
REMARK    4  A    between atoms: C_11  and  C_17
REMARK    5  A    between atoms: C_20  and  C_21
REMARK    6  A    between atoms: C_21  and  C_22
REMARK    7  A    between atoms: C_22  and  C_24
REMARK    8  A    between atoms: C_24  and  C_26
REMARK                            x       y       z     vdW  Elec       q    Type
REMARK                         _______ _______ _______ _____ _____    ______ ____
ROOT
ATOM      1  N   UNL     1      31.616 -12.407 -21.385  0.00  0.00    +0.387 N 
ATOM      2  C   UNL     1      33.770 -14.253 -22.268  0.00  0.00    +0.103 C 
ATOM      3  C   UNL     1      33.153 -13.159 -23.167  0.00  0.00    +0.008 C 
ATOM      4  C   UNL     1      32.763 -14.594 -21.145  0.00  0.00    +0.008 C 
ATOM      5  C   UNL     1      32.607 -11.966 -22.373  0.00  0.00    -0.075 C 
ATOM      6  C   UNL     1      32.204 -13.355 -20.434  0.00  0.00    -0.075 C 
ATOM      7  H   UNL     1      30.867 -12.886 -21.885  0.00  0.00    -0.080 HD
ENDROOT
BRANCH   2   8
ATOM      8  C   UNL     1      34.206 -15.522 -23.002  0.00  0.00    +0.002 C 
ATOM      9  C   UNL     1      34.793 -16.569 -22.293  0.00  0.00    +0.002 C 
ATOM     10  C   UNL     1      34.013 -15.630 -24.378  0.00  0.00    -0.002 C 
ATOM     11  C   UNL     1      35.189 -17.728 -22.963  0.00  0.00    +0.071 C 
ATOM     12  C   UNL     1      34.409 -16.788 -25.047  0.00  0.00    -0.000 C 
ATOM     13  C   UNL     1      34.997 -17.836 -24.340  0.00  0.00    +0.004 C 
BRANCH  11  17
ATOM     14  F   UNL     1      37.161 -18.974 -22.433  0.00  0.00    -0.166 F 
ATOM     15  F   UNL     1      35.697 -18.729 -20.851  0.00  0.00    -0.166 F 
ATOM     16  F   UNL     1      35.279 -20.061 -22.518  0.00  0.00    -0.166 F 
ATOM     17  C   UNL     1      35.819 -18.848 -22.206  0.00  0.00    +0.419 C 
ENDBRANCH  11  17
ENDBRANCH   2   8
BRANCH   2  18
ATOM     18  O   UNL     1      34.969 -13.718 -21.686  0.00  0.00    -0.383 OA
ATOM     19  H   UNL     1      34.893 -12.753 -21.620  0.00  0.00    +0.211 HD
ENDBRANCH   2  18
BRANCH   1  20
ATOM     20  C   UNL     1      31.048 -11.258 -20.681  0.00  0.00    -0.077 C 
BRANCH  20  21
ATOM     21  C   UNL     1      31.894 -10.009 -20.938  0.00  0.00    -0.015 C 
BRANCH  21  22
ATOM     22  C   UNL     1      31.984  -9.105 -19.705  0.00  0.00    +0.067 C 
BRANCH  22  24
ATOM     23  O   UNL     1      33.198  -7.102 -19.123  0.00  0.00    -0.291 OA
ATOM     24  C   UNL     1      32.626  -7.755 -19.992  0.00  0.00    +0.173 C 
BRANCH  24  26
ATOM     25  F   UNL     1      32.435  -5.754 -25.201  0.00  0.00    -0.204 F 
ATOM     26  C   UNL     1      32.575  -7.222 -21.383  0.00  0.00    +0.035 C 
ATOM     27  C   UNL     1      31.399  -6.666 -21.836  0.00  0.00    +0.005 C 
ATOM     28  C   UNL     1      33.706  -7.303 -22.164  0.00  0.00    +0.005 C 
ATOM     29  C   UNL     1      31.351  -6.166 -23.137  0.00  0.00    +0.030 C 
ATOM     30  C   UNL     1      33.658  -6.803 -23.466  0.00  0.00    +0.030 C 
ATOM     31  C   UNL     1      32.481  -6.234 -23.952  0.00  0.00    +0.140 C 
ENDBRANCH  24  26
ENDBRANCH  22  24
ENDBRANCH  21  22
ENDBRANCH  20  21
ENDBRANCH   1  20
TORSDOF 8
ENDMDL
