MODEL 1
REMARK VINA RESULT:     -11.9      0.000      0.000
REMARK  Name = 42628063
REMARK  6 active torsions:
REMARK  status: ('A' for Active; 'I' for Inactive)
REMARK    1  A    between atoms: C_1  and  N_3
REMARK    2  A    between atoms: C_1  and  C_21
REMARK    3  A    between atoms: C_4  and  N_10
REMARK    4  A    between atoms: C_11  and  C_15
REMARK    5  A    between atoms: N_20  and  C_24
REMARK    6  A    between atoms: C_27  and  N_31
REMARK                            x       y       z     vdW  Elec       q    Type
REMARK                         _______ _______ _______ _____ _____    ______ ____
ROOT
ATOM      1  C   UNL     1      35.433 -21.664 -20.115  0.00  0.00    +0.010 C 
ENDROOT
BRANCH   1   3
ATOM      2  F   UNL     1      33.200 -23.069 -16.498  0.00  0.00    -0.238 F 
ATOM      3  N   UNL     1      35.045 -21.944 -18.741  0.00  0.00    +0.396 N 
ATOM      4  C   UNL     1      35.524 -22.769 -16.629  0.00  0.00    +0.082 C 
ATOM      5  C   UNL     1      34.302 -23.513 -17.159  0.00  0.00    +0.156 C 
ATOM      6  C   UNL     1      36.196 -22.212 -17.878  0.00  0.00    -0.054 C 
ATOM      7  C   UNL     1      34.194 -23.133 -18.630  0.00  0.00    -0.039 C 
ATOM      8  H   UNL     1      34.548 -21.103 -18.449  0.00  0.00    -0.079 HD
BRANCH   4  10
ATOM      9  O   UNL     1      35.257 -23.480 -13.860  0.00  0.00    -0.270 OA
ATOM     10  N   UNL     1      36.408 -23.611 -15.871  0.00  0.00    -0.302 N 
ATOM     11  C   UNL     1      36.198 -23.902 -14.527  0.00  0.00    +0.252 C 
ATOM     12  H   UNL     1      37.193 -23.998 -16.320  0.00  0.00    +0.150 HD
BRANCH  11  15
ATOM     13 CL   UNL     1      40.812 -26.774 -13.498  0.00  0.00    -0.075 Cl
ATOM     14  S   UNL     1      38.695 -25.068 -14.689  0.00  0.00    -0.071 S 
ATOM     15  C   UNL     1      37.217 -24.768 -13.878  0.00  0.00    +0.084 C 
ATOM     16  C   UNL     1      37.158 -25.403 -12.657  0.00  0.00    +0.012 C 
ATOM     17  C   UNL     1      38.343 -26.147 -12.384  0.00  0.00    +0.019 C 
ATOM     18  C   UNL     1      39.261 -26.051 -13.407  0.00  0.00    +0.087 C 
ENDBRANCH  11  15
ENDBRANCH   4  10
ENDBRANCH   1   3
BRANCH   1  21
ATOM     19  O   UNL     1      33.542 -20.173 -20.252  0.00  0.00    -0.277 OA
ATOM     20  N   UNL     1      35.480 -19.714 -21.496  0.00  0.00    -0.284 N 
ATOM     21  C   UNL     1      34.683 -20.440 -20.613  0.00  0.00    +0.205 C 
ATOM     22  H   UNL     1      36.378 -20.075 -21.669  0.00  0.00    +0.155 HD
BRANCH  20  24
ATOM     23  F   UNL     1      34.902 -19.693 -24.223  0.00  0.00    -0.203 F 
ATOM     24  C   UNL     1      35.146 -18.517 -22.173  0.00  0.00    +0.078 C 
ATOM     25  C   UNL     1      34.862 -18.540 -23.539  0.00  0.00    +0.155 C 
ATOM     26  C   UNL     1      35.103 -17.311 -21.472  0.00  0.00    +0.018 C 
ATOM     27  C   UNL     1      34.490 -16.154 -23.502  0.00  0.00    +0.061 C 
ATOM     28  C   UNL     1      34.534 -17.359 -24.203  0.00  0.00    +0.046 C 
ATOM     29  C   UNL     1      34.774 -16.130 -22.137  0.00  0.00    +0.017 C 
BRANCH  27  31
ATOM     30  O   UNL     1      33.499 -15.980 -26.214  0.00  0.00    -0.269 OA
ATOM     31  N   UNL     1      34.148 -14.925 -24.193  0.00  0.00    -0.233 N 
ATOM     32  C   UNL     1      33.709 -14.971 -25.542  0.00  0.00    +0.257 C 
ATOM     33  C   UNL     1      34.228 -13.696 -23.535  0.00  0.00    +0.072 C 
ATOM     34  C   UNL     1      33.422 -13.656 -26.194  0.00  0.00    +0.059 C 
ATOM     35  C   UNL     1      33.934 -12.535 -24.130  0.00  0.00    +0.017 C 
ATOM     36  C   UNL     1      33.526 -12.518 -25.502  0.00  0.00    +0.006 C 
ENDBRANCH  27  31
ENDBRANCH  20  24
ENDBRANCH   1  21
TORSDOF 6
ENDMDL
MODEL 2
REMARK VINA RESULT:     -11.9      0.841      1.189
REMARK  Name = 42628063
REMARK  6 active torsions:
REMARK  status: ('A' for Active; 'I' for Inactive)
REMARK    1  A    between atoms: C_1  and  N_3
REMARK    2  A    between atoms: C_1  and  C_21
REMARK    3  A    between atoms: C_4  and  N_10
REMARK    4  A    between atoms: C_11  and  C_15
REMARK    5  A    between atoms: N_20  and  C_24
REMARK    6  A    between atoms: C_27  and  N_31
REMARK                            x       y       z     vdW  Elec       q    Type
REMARK                         _______ _______ _______ _____ _____    ______ ____
ROOT
ATOM      1  C   UNL     1      35.474 -21.539 -20.202  0.00  0.00    +0.010 C 
ENDROOT
BRANCH   1   3
ATOM      2  F   UNL     1      33.166 -23.002 -16.655  0.00  0.00    -0.238 F 
ATOM      3  N   UNL     1      35.057 -21.841 -18.841  0.00  0.00    +0.396 N 
ATOM      4  C   UNL     1      35.492 -22.699 -16.733  0.00  0.00    +0.082 C 
ATOM      5  C   UNL     1      34.282 -23.435 -17.301  0.00  0.00    +0.156 C 
ATOM      6  C   UNL     1      36.190 -22.122 -17.958  0.00  0.00    -0.054 C 
ATOM      7  C   UNL     1      34.204 -23.032 -18.767  0.00  0.00    -0.039 C 
ATOM      8  H   UNL     1      34.553 -21.005 -18.546  0.00  0.00    -0.079 HD
BRANCH   4  10
ATOM      9  O   UNL     1      35.084 -23.584 -14.032  0.00  0.00    -0.270 OA
ATOM     10  N   UNL     1      36.360 -23.553 -15.970  0.00  0.00    -0.302 N 
ATOM     11  C   UNL     1      36.080 -23.931 -14.661  0.00  0.00    +0.252 C 
ATOM     12  H   UNL     1      37.185 -23.884 -16.390  0.00  0.00    +0.150 HD
BRANCH  11  15
ATOM     13 CL   UNL     1      40.714 -26.733 -13.534  0.00  0.00    -0.075 Cl
ATOM     14  S   UNL     1      38.609 -25.033 -14.755  0.00  0.00    -0.071 S 
ATOM     15  C   UNL     1      37.090 -24.798 -14.000  0.00  0.00    +0.084 C 
ATOM     16  C   UNL     1      36.994 -25.479 -12.807  0.00  0.00    +0.012 C 
ATOM     17  C   UNL     1      38.184 -26.206 -12.508  0.00  0.00    +0.019 C 
ATOM     18  C   UNL     1      39.143 -26.050 -13.485  0.00  0.00    +0.087 C 
ENDBRANCH  11  15
ENDBRANCH   4  10
ENDBRANCH   1   3
BRANCH   1  21
ATOM     19  O   UNL     1      33.565 -20.071 -20.356  0.00  0.00    -0.277 OA
ATOM     20  N   UNL     1      35.510 -19.586 -21.579  0.00  0.00    -0.284 N 
ATOM     21  C   UNL     1      34.713 -20.324 -20.706  0.00  0.00    +0.205 C 
ATOM     22  H   UNL     1      36.415 -19.936 -21.743  0.00  0.00    +0.155 HD
BRANCH  20  24
ATOM     23  F   UNL     1      35.231 -17.168 -20.221  0.00  0.00    -0.203 F 
ATOM     24  C   UNL     1      35.169 -18.392 -22.257  0.00  0.00    +0.078 C 
ATOM     25  C   UNL     1      35.037 -17.197 -21.548  0.00  0.00    +0.155 C 
ATOM     26  C   UNL     1      34.964 -18.409 -23.636  0.00  0.00    +0.018 C 
ATOM     27  C   UNL     1      34.497 -16.039 -23.597  0.00  0.00    +0.061 C 
ATOM     28  C   UNL     1      34.701 -16.022 -22.218  0.00  0.00    +0.046 C 
ATOM     29  C   UNL     1      34.628 -17.233 -24.307  0.00  0.00    +0.017 C 
BRANCH  27  31
ATOM     30  O   UNL     1      33.452 -15.890 -26.290  0.00  0.00    -0.269 OA
ATOM     31  N   UNL     1      34.147 -14.816 -24.294  0.00  0.00    -0.233 N 
ATOM     32  C   UNL     1      33.680 -14.874 -25.633  0.00  0.00    +0.257 C 
ATOM     33  C   UNL     1      34.245 -13.581 -23.651  0.00  0.00    +0.072 C 
ATOM     34  C   UNL     1      33.386 -13.565 -26.294  0.00  0.00    +0.059 C 
ATOM     35  C   UNL     1      33.945 -12.425 -24.253  0.00  0.00    +0.017 C 
ATOM     36  C   UNL     1      33.509 -12.420 -25.617  0.00  0.00    +0.006 C 
ENDBRANCH  27  31
ENDBRANCH  20  24
ENDBRANCH   1  21
TORSDOF 6
ENDMDL
MODEL 3
REMARK VINA RESULT:     -11.4      4.856     12.090
REMARK  Name = 42628063
REMARK  6 active torsions:
REMARK  status: ('A' for Active; 'I' for Inactive)
REMARK    1  A    between atoms: C_1  and  N_3
REMARK    2  A    between atoms: C_1  and  C_21
REMARK    3  A    between atoms: C_4  and  N_10
REMARK    4  A    between atoms: C_11  and  C_15
REMARK    5  A    between atoms: N_20  and  C_24
REMARK    6  A    between atoms: C_27  and  N_31
REMARK                            x       y       z     vdW  Elec       q    Type
REMARK                         _______ _______ _______ _____ _____    ______ ____
ROOT
ATOM      1  C   UNL     1      33.586 -21.041 -20.446  0.00  0.00    +0.010 C 
ENDROOT
BRANCH   1   3
ATOM      2  F   UNL     1      37.385 -18.749 -21.040  0.00  0.00    -0.238 F 
ATOM      3  N   UNL     1      34.569 -19.971 -20.515  0.00  0.00    +0.396 N 
ATOM      4  C   UNL     1      35.220 -17.862 -21.222  0.00  0.00    +0.082 C 
ATOM      5  C   UNL     1      36.234 -18.871 -21.753  0.00  0.00    +0.156 C 
ATOM      6  C   UNL     1      33.979 -18.696 -20.926  0.00  0.00    -0.054 C 
ATOM      7  C   UNL     1      35.625 -20.243 -21.496  0.00  0.00    -0.039 C 
ATOM      8  H   UNL     1      34.945 -19.919 -19.569  0.00  0.00    -0.079 HD
BRANCH   4  10
ATOM      9  O   UNL     1      34.122 -15.283 -20.600  0.00  0.00    -0.270 OA
ATOM     10  N   UNL     1      34.948 -16.799 -22.149  0.00  0.00    -0.302 N 
ATOM     11  C   UNL     1      34.413 -15.577 -21.756  0.00  0.00    +0.252 C 
ATOM     12  H   UNL     1      35.149 -16.941 -23.102  0.00  0.00    +0.150 HD
BRANCH  11  15
ATOM     13 CL   UNL     1      33.285 -13.288 -26.663  0.00  0.00    -0.075 Cl
ATOM     14  S   UNL     1      33.803 -15.156 -24.414  0.00  0.00    -0.071 S 
ATOM     15  C   UNL     1      34.167 -14.591 -22.840  0.00  0.00    +0.084 C 
ATOM     16  C   UNL     1      34.183 -13.215 -22.774  0.00  0.00    +0.012 C 
ATOM     17  C   UNL     1      33.895 -12.616 -24.035  0.00  0.00    +0.019 C 
ATOM     18  C   UNL     1      33.667 -13.558 -25.015  0.00  0.00    +0.087 C 
ENDBRANCH  11  15
ENDBRANCH   4  10
ENDBRANCH   1   3
BRANCH   1  21
ATOM     19  O   UNL     1      32.621 -21.933 -18.422  0.00  0.00    -0.277 OA
ATOM     20  N   UNL     1      34.952 -21.927 -18.696  0.00  0.00    -0.284 N 
ATOM     21  C   UNL     1      33.633 -21.682 -19.068  0.00  0.00    +0.205 C 
ATOM     22  H   UNL     1      35.643 -21.664 -19.345  0.00  0.00    +0.155 HD
BRANCH  20  24
ATOM     23  F   UNL     1      37.527 -21.448 -17.739  0.00  0.00    -0.203 F 
ATOM     24  C   UNL     1      35.415 -22.510 -17.493  0.00  0.00    +0.078 C 
ATOM     25  C   UNL     1      36.710 -22.251 -17.041  0.00  0.00    +0.155 C 
ATOM     26  C   UNL     1      34.575 -23.347 -16.757  0.00  0.00    +0.018 C 
ATOM     27  C   UNL     1      36.323 -23.662 -15.120  0.00  0.00    +0.061 C 
ATOM     28  C   UNL     1      37.163 -22.826 -15.855  0.00  0.00    +0.046 C 
ATOM     29  C   UNL     1      35.029 -23.922 -15.571  0.00  0.00    +0.017 C 
BRANCH  27  31
ATOM     30  O   UNL     1      37.217 -26.396 -14.824  0.00  0.00    -0.269 OA
ATOM     31  N   UNL     1      36.795 -24.261 -13.886  0.00  0.00    -0.233 N 
ATOM     32  C   UNL     1      37.169 -25.630 -13.862  0.00  0.00    +0.257 C 
ATOM     33  C   UNL     1      36.904 -23.496 -12.723  0.00  0.00    +0.072 C 
ATOM     34  C   UNL     1      37.600 -26.180 -12.540  0.00  0.00    +0.059 C 
ATOM     35  C   UNL     1      37.324 -24.003 -11.559  0.00  0.00    +0.017 C 
ATOM     36  C   UNL     1      37.675 -25.388 -11.467  0.00  0.00    +0.006 C 
ENDBRANCH  27  31
ENDBRANCH  20  24
ENDBRANCH   1  21
TORSDOF 6
ENDMDL
MODEL 4
REMARK VINA RESULT:     -11.3      5.003     12.190
REMARK  Name = 42628063
REMARK  6 active torsions:
REMARK  status: ('A' for Active; 'I' for Inactive)
REMARK    1  A    between atoms: C_1  and  N_3
REMARK    2  A    between atoms: C_1  and  C_21
REMARK    3  A    between atoms: C_4  and  N_10
REMARK    4  A    between atoms: C_11  and  C_15
REMARK    5  A    between atoms: N_20  and  C_24
REMARK    6  A    between atoms: C_27  and  N_31
REMARK                            x       y       z     vdW  Elec       q    Type
REMARK                         _______ _______ _______ _____ _____    ______ ____
ROOT
ATOM      1  C   UNL     1      34.897 -20.748 -21.022  0.00  0.00    +0.010 C 
ENDROOT
BRANCH   1   3
ATOM      2  F   UNL     1      35.872 -17.477 -23.920  0.00  0.00    -0.238 F 
ATOM      3  N   UNL     1      35.270 -19.465 -21.599  0.00  0.00    +0.396 N 
ATOM      4  C   UNL     1      35.023 -17.166 -21.755  0.00  0.00    +0.082 C 
ATOM      5  C   UNL     1      34.793 -17.759 -23.142  0.00  0.00    +0.156 C 
ATOM      6  C   UNL     1      34.792 -18.333 -20.804  0.00  0.00    -0.054 C 
ATOM      7  C   UNL     1      34.701 -19.265 -22.936  0.00  0.00    -0.039 C 
ATOM      8  H   UNL     1      36.289 -19.494 -21.630  0.00  0.00    -0.079 HD
BRANCH   4  10
ATOM      9  O   UNL     1      34.977 -14.633 -23.106  0.00  0.00    -0.270 OA
ATOM     10  N   UNL     1      34.155 -16.057 -21.469  0.00  0.00    -0.302 N 
ATOM     11  C   UNL     1      34.204 -14.862 -22.180  0.00  0.00    +0.252 C 
ATOM     12  H   UNL     1      33.499 -16.146 -20.742  0.00  0.00    +0.150 HD
BRANCH  11  15
ATOM     13 CL   UNL     1      31.250 -10.193 -21.929  0.00  0.00    -0.075 Cl
ATOM     14  S   UNL     1      33.111 -12.379 -22.685  0.00  0.00    -0.071 S 
ATOM     15  C   UNL     1      33.257 -13.803 -21.746  0.00  0.00    +0.084 C 
ATOM     16  C   UNL     1      32.428 -13.785 -20.646  0.00  0.00    +0.012 C 
ATOM     17  C   UNL     1      31.663 -12.585 -20.572  0.00  0.00    +0.019 C 
ATOM     18  C   UNL     1      31.936 -11.732 -21.620  0.00  0.00    +0.087 C 
ENDBRANCH  11  15
ENDBRANCH   4  10
ENDBRANCH   1   3
BRANCH   1  21
ATOM     19  O   UNL     1      36.859 -20.503 -19.640  0.00  0.00    -0.277 OA
ATOM     20  N   UNL     1      35.117 -21.916 -18.949  0.00  0.00    -0.284 N 
ATOM     21  C   UNL     1      35.761 -21.024 -19.803  0.00  0.00    +0.205 C 
ATOM     22  H   UNL     1      34.231 -22.232 -19.237  0.00  0.00    +0.155 HD
BRANCH  20  24
ATOM     23  F   UNL     1      33.430 -23.264 -17.186  0.00  0.00    -0.203 F 
ATOM     24  C   UNL     1      35.588 -22.420 -17.714  0.00  0.00    +0.078 C 
ATOM     25  C   UNL     1      34.718 -23.091 -16.853  0.00  0.00    +0.155 C 
ATOM     26  C   UNL     1      36.925 -22.247 -17.356  0.00  0.00    +0.018 C 
ATOM     27  C   UNL     1      36.522 -23.414 -15.280  0.00  0.00    +0.061 C 
ATOM     28  C   UNL     1      35.184 -23.588 -15.637  0.00  0.00    +0.046 C 
ATOM     29  C   UNL     1      37.392 -22.744 -16.139  0.00  0.00    +0.017 C 
BRANCH  27  31
ATOM     30  O   UNL     1      37.478 -26.106 -14.829  0.00  0.00    -0.269 OA
ATOM     31  N   UNL     1      37.007 -23.931 -14.015  0.00  0.00    -0.233 N 
ATOM     32  C   UNL     1      37.413 -25.287 -13.913  0.00  0.00    +0.257 C 
ATOM     33  C   UNL     1      37.100 -23.098 -12.898  0.00  0.00    +0.072 C 
ATOM     34  C   UNL     1      37.856 -25.750 -12.562  0.00  0.00    +0.059 C 
ATOM     35  C   UNL     1      37.532 -23.527 -11.707  0.00  0.00    +0.017 C 
ATOM     36  C   UNL     1      37.914 -24.897 -11.536  0.00  0.00    +0.006 C 
ENDBRANCH  27  31
ENDBRANCH  20  24
ENDBRANCH   1  21
TORSDOF 6
ENDMDL
MODEL 5
REMARK VINA RESULT:     -11.2      7.445     13.754
REMARK  Name = 42628063
REMARK  6 active torsions:
REMARK  status: ('A' for Active; 'I' for Inactive)
REMARK    1  A    between atoms: C_1  and  N_3
REMARK    2  A    between atoms: C_1  and  C_21
REMARK    3  A    between atoms: C_4  and  N_10
REMARK    4  A    between atoms: C_11  and  C_15
REMARK    5  A    between atoms: N_20  and  C_24
REMARK    6  A    between atoms: C_27  and  N_31
REMARK                            x       y       z     vdW  Elec       q    Type
REMARK                         _______ _______ _______ _____ _____    ______ ____
ROOT
ATOM      1  C   UNL     1      33.520 -13.109 -24.765  0.00  0.00    +0.010 C 
ENDROOT
BRANCH   1   3
ATOM      2  F   UNL     1      36.292  -9.706 -23.881  0.00  0.00    -0.238 F 
ATOM      3  N   UNL     1      34.147 -11.948 -24.150  0.00  0.00    +0.396 N 
ATOM      4  C   UNL     1      34.025  -9.804 -23.279  0.00  0.00    +0.082 C 
ATOM      5  C   UNL     1      35.044  -9.794 -24.415  0.00  0.00    +0.156 C 
ATOM      6  C   UNL     1      33.172 -11.037 -23.551  0.00  0.00    -0.054 C 
ATOM      7  C   UNL     1      34.892 -11.136 -25.119  0.00  0.00    -0.039 C 
ATOM      8  H   UNL     1      34.767 -12.347 -23.446  0.00  0.00    -0.079 HD
BRANCH   4  10
ATOM      9  O   UNL     1      32.977  -8.554 -20.917  0.00  0.00    -0.270 OA
ATOM     10  N   UNL     1      33.238  -8.604 -23.222  0.00  0.00    -0.302 N 
ATOM     11  C   UNL     1      32.771  -8.069 -22.026  0.00  0.00    +0.252 C 
ATOM     12  H   UNL     1      33.021  -8.141 -24.062  0.00  0.00    +0.150 HD
BRANCH  11  15
ATOM     13 CL   UNL     1      30.598  -3.310 -23.822  0.00  0.00    -0.075 Cl
ATOM     14  S   UNL     1      32.181  -5.798 -23.480  0.00  0.00    -0.071 S 
ATOM     15  C   UNL     1      31.949  -6.836 -22.138  0.00  0.00    +0.084 C 
ATOM     16  C   UNL     1      30.973  -6.370 -21.286  0.00  0.00    +0.012 C 
ATOM     17  C   UNL     1      30.407  -5.142 -21.740  0.00  0.00    +0.019 C 
ATOM     18  C   UNL     1      30.973  -4.719 -22.923  0.00  0.00    +0.087 C 
ENDBRANCH  11  15
ENDBRANCH   4  10
ENDBRANCH   1   3
BRANCH   1  21
ATOM     19  O   UNL     1      32.421 -14.256 -22.949  0.00  0.00    -0.277 OA
ATOM     20  N   UNL     1      34.428 -15.107 -23.820  0.00  0.00    -0.284 N 
ATOM     21  C   UNL     1      33.367 -14.209 -23.728  0.00  0.00    +0.205 C 
ATOM     22  H   UNL     1      35.101 -14.917 -24.512  0.00  0.00    +0.155 HD
BRANCH  20  24
ATOM     23  F   UNL     1      34.788 -17.615 -24.983  0.00  0.00    -0.203 F 
ATOM     24  C   UNL     1      34.650 -16.263 -23.034  0.00  0.00    +0.078 C 
ATOM     25  C   UNL     1      34.826 -17.505 -23.647  0.00  0.00    +0.155 C 
ATOM     26  C   UNL     1      34.691 -16.161 -21.643  0.00  0.00    +0.018 C 
ATOM     27  C   UNL     1      35.087 -18.539 -21.481  0.00  0.00    +0.061 C 
ATOM     28  C   UNL     1      35.045 -18.641 -22.871  0.00  0.00    +0.046 C 
ATOM     29  C   UNL     1      34.910 -17.299 -20.867  0.00  0.00    +0.017 C 
BRANCH  27  31
ATOM     30  O   UNL     1      37.630 -19.329 -20.351  0.00  0.00    -0.269 OA
ATOM     31  N   UNL     1      35.314 -19.722 -20.673  0.00  0.00    -0.233 N 
ATOM     32  C   UNL     1      36.622 -20.021 -20.209  0.00  0.00    +0.257 C 
ATOM     33  C   UNL     1      34.252 -20.560 -20.328  0.00  0.00    +0.072 C 
ATOM     34  C   UNL     1      36.777 -21.284 -19.422  0.00  0.00    +0.059 C 
ATOM     35  C   UNL     1      34.410 -21.666 -19.594  0.00  0.00    +0.017 C 
ATOM     36  C   UNL     1      35.714 -22.040 -19.135  0.00  0.00    +0.006 C 
ENDBRANCH  27  31
ENDBRANCH  20  24
ENDBRANCH   1  21
TORSDOF 6
ENDMDL
MODEL 6
REMARK VINA RESULT:     -10.8      2.064      2.413
REMARK  Name = 42628063
REMARK  6 active torsions:
REMARK  status: ('A' for Active; 'I' for Inactive)
REMARK    1  A    between atoms: C_1  and  N_3
REMARK    2  A    between atoms: C_1  and  C_21
REMARK    3  A    between atoms: C_4  and  N_10
REMARK    4  A    between atoms: C_11  and  C_15
REMARK    5  A    between atoms: N_20  and  C_24
REMARK    6  A    between atoms: C_27  and  N_31
REMARK                            x       y       z     vdW  Elec       q    Type
REMARK                         _______ _______ _______ _____ _____    ______ ____
ROOT
ATOM      1  C   UNL     1      36.547 -20.802 -20.564  0.00  0.00    +0.010 C 
ENDROOT
BRANCH   1   3
ATOM      2  F   UNL     1      33.163 -22.266 -18.025  0.00  0.00    -0.238 F 
ATOM      3  N   UNL     1      35.724 -21.180 -19.425  0.00  0.00    +0.396 N 
ATOM      4  C   UNL     1      35.431 -22.317 -17.427  0.00  0.00    +0.082 C 
ATOM      5  C   UNL     1      34.358 -22.794 -18.402  0.00  0.00    +0.156 C 
ATOM      6  C   UNL     1      36.514 -21.725 -18.321  0.00  0.00    -0.054 C 
ATOM      7  C   UNL     1      34.753 -22.228 -19.759  0.00  0.00    -0.039 C 
ATOM      8  H   UNL     1      35.259 -20.314 -19.158  0.00  0.00    -0.079 HD
BRANCH   4  10
ATOM      9  O   UNL     1      34.207 -23.352 -15.045  0.00  0.00    -0.270 OA
ATOM     10  N   UNL     1      35.937 -23.371 -16.591  0.00  0.00    -0.302 N 
ATOM     11  C   UNL     1      35.273 -23.809 -15.451  0.00  0.00    +0.252 C 
ATOM     12  H   UNL     1      36.787 -23.800 -16.836  0.00  0.00    +0.150 HD
BRANCH  11  15
ATOM     13 CL   UNL     1      38.051 -26.581 -11.554  0.00  0.00    -0.075 Cl
ATOM     14  S   UNL     1      36.693 -24.510 -13.191  0.00  0.00    -0.071 S 
ATOM     15  C   UNL     1      35.939 -24.890 -14.680  0.00  0.00    +0.084 C 
ATOM     16  C   UNL     1      36.051 -26.228 -14.990  0.00  0.00    +0.012 C 
ATOM     17  C   UNL     1      36.767 -26.951 -13.992  0.00  0.00    +0.019 C 
ATOM     18  C   UNL     1      37.174 -26.137 -12.957  0.00  0.00    +0.087 C 
ENDBRANCH  11  15
ENDBRANCH   4  10
ENDBRANCH   1   3
BRANCH   1  21
ATOM     19  O   UNL     1      37.476 -18.582 -20.392  0.00  0.00    -0.277 OA
ATOM     20  N   UNL     1      35.322 -18.878 -21.278  0.00  0.00    -0.284 N 
ATOM     21  C   UNL     1      36.530 -19.290 -20.720  0.00  0.00    +0.205 C 
ATOM     22  H   UNL     1      34.673 -19.588 -21.486  0.00  0.00    +0.155 HD
BRANCH  20  24
ATOM     23  F   UNL     1      35.247 -17.941 -23.902  0.00  0.00    -0.203 F 
ATOM     24  C   UNL     1      34.919 -17.555 -21.581  0.00  0.00    +0.078 C 
ATOM     25  C   UNL     1      34.892 -17.117 -22.905  0.00  0.00    +0.155 C 
ATOM     26  C   UNL     1      34.548 -16.689 -20.553  0.00  0.00    +0.018 C 
ATOM     27  C   UNL     1      34.123 -14.948 -22.173  0.00  0.00    +0.061 C 
ATOM     28  C   UNL     1      34.495 -15.814 -23.201  0.00  0.00    +0.046 C 
ATOM     29  C   UNL     1      34.150 -15.385 -20.849  0.00  0.00    +0.017 C 
BRANCH  27  31
ATOM     30  O   UNL     1      32.135 -13.435 -20.716  0.00  0.00    -0.269 OA
ATOM     31  N   UNL     1      33.710 -13.592 -22.481  0.00  0.00    -0.233 N 
ATOM     32  C   UNL     1      32.692 -12.972 -21.711  0.00  0.00    +0.257 C 
ATOM     33  C   UNL     1      34.321 -12.882 -23.516  0.00  0.00    +0.072 C 
ATOM     34  C   UNL     1      32.293 -11.591 -22.125  0.00  0.00    +0.059 C 
ATOM     35  C   UNL     1      33.970 -11.635 -23.845  0.00  0.00    +0.017 C 
ATOM     36  C   UNL     1      32.919 -10.975 -23.130  0.00  0.00    +0.006 C 
ENDBRANCH  27  31
ENDBRANCH  20  24
ENDBRANCH   1  21
TORSDOF 6
ENDMDL
MODEL 7
REMARK VINA RESULT:     -10.6      6.585     10.201
REMARK  Name = 42628063
REMARK  6 active torsions:
REMARK  status: ('A' for Active; 'I' for Inactive)
REMARK    1  A    between atoms: C_1  and  N_3
REMARK    2  A    between atoms: C_1  and  C_21
REMARK    3  A    between atoms: C_4  and  N_10
REMARK    4  A    between atoms: C_11  and  C_15
REMARK    5  A    between atoms: N_20  and  C_24
REMARK    6  A    between atoms: C_27  and  N_31
REMARK                            x       y       z     vdW  Elec       q    Type
REMARK                         _______ _______ _______ _____ _____    ______ ____
ROOT
ATOM      1  C   UNL     1      32.001 -12.507 -20.419  0.00  0.00    +0.010 C 
ENDROOT
BRANCH   1   3
ATOM      2  F   UNL     1      34.535 -14.273 -23.660  0.00  0.00    -0.238 F 
ATOM      3  N   UNL     1      32.598 -13.432 -21.370  0.00  0.00    +0.396 N 
ATOM      4  C   UNL     1      33.601 -15.461 -21.865  0.00  0.00    +0.082 C 
ATOM      5  C   UNL     1      34.550 -14.349 -22.302  0.00  0.00    +0.156 C 
ATOM      6  C   UNL     1      32.684 -14.795 -20.846  0.00  0.00    -0.054 C 
ATOM      7  C   UNL     1      33.975 -13.064 -21.720  0.00  0.00    -0.039 C 
ATOM      8  H   UNL     1      31.984 -13.382 -22.182  0.00  0.00    -0.079 HD
BRANCH   4  10
ATOM      9  O   UNL     1      34.904 -17.557 -23.332  0.00  0.00    -0.270 OA
ATOM     10  N   UNL     1      34.286 -16.597 -21.313  0.00  0.00    -0.302 N 
ATOM     11  C   UNL     1      34.891 -17.568 -22.105  0.00  0.00    +0.252 C 
ATOM     12  H   UNL     1      34.330 -16.692 -20.334  0.00  0.00    +0.150 HD
BRANCH  11  15
ATOM     13 CL   UNL     1      35.737 -22.281 -19.337  0.00  0.00    -0.075 Cl
ATOM     14  S   UNL     1      34.566 -19.973 -20.791  0.00  0.00    -0.071 S 
ATOM     15  C   UNL     1      35.538 -18.693 -21.381  0.00  0.00    +0.084 C 
ATOM     16  C   UNL     1      36.872 -18.882 -21.096  0.00  0.00    +0.012 C 
ATOM     17  C   UNL     1      37.100 -20.094 -20.381  0.00  0.00    +0.019 C 
ATOM     18  C   UNL     1      35.930 -20.785 -20.150  0.00  0.00    +0.087 C 
ENDBRANCH  11  15
ENDBRANCH   4  10
ENDBRANCH   1   3
BRANCH   1  21
ATOM     19  O   UNL     1      30.332 -11.336 -21.709  0.00  0.00    -0.277 OA
ATOM     20  N   UNL     1      32.325 -10.244 -21.117  0.00  0.00    -0.284 N 
ATOM     21  C   UNL     1      31.432 -11.312 -21.165  0.00  0.00    +0.205 C 
ATOM     22  H   UNL     1      33.164 -10.400 -20.629  0.00  0.00    +0.155 HD
BRANCH  20  24
ATOM     23  F   UNL     1      33.346  -7.962 -19.884  0.00  0.00    -0.203 F 
ATOM     24  C   UNL     1      32.164  -8.959 -21.689  0.00  0.00    +0.078 C 
ATOM     25  C   UNL     1      32.688  -7.836 -21.046  0.00  0.00    +0.155 C 
ATOM     26  C   UNL     1      31.481  -8.815 -22.896  0.00  0.00    +0.018 C 
ATOM     27  C   UNL     1      31.846  -6.428 -22.819  0.00  0.00    +0.061 C 
ATOM     28  C   UNL     1      32.529  -6.572 -21.611  0.00  0.00    +0.046 C 
ATOM     29  C   UNL     1      31.323  -7.550 -23.462  0.00  0.00    +0.017 C 
BRANCH  27  31
ATOM     30  O   UNL     1      29.980  -4.414 -21.911  0.00  0.00    -0.269 OA
ATOM     31  N   UNL     1      31.681  -5.113 -23.407  0.00  0.00    -0.233 N 
ATOM     32  C   UNL     1      30.699  -4.227 -22.892  0.00  0.00    +0.257 C 
ATOM     33  C   UNL     1      32.496  -4.701 -24.463  0.00  0.00    +0.072 C 
ATOM     34  C   UNL     1      30.562  -2.909 -23.586  0.00  0.00    +0.059 C 
ATOM     35  C   UNL     1      32.377  -3.503 -25.046  0.00  0.00    +0.017 C 
ATOM     36  C   UNL     1      31.374  -2.585 -24.595  0.00  0.00    +0.006 C 
ENDBRANCH  27  31
ENDBRANCH  20  24
ENDBRANCH   1  21
TORSDOF 6
ENDMDL
MODEL 8
REMARK VINA RESULT:     -10.2      2.961      4.644
REMARK  Name = 42628063
REMARK  6 active torsions:
REMARK  status: ('A' for Active; 'I' for Inactive)
REMARK    1  A    between atoms: C_1  and  N_3
REMARK    2  A    between atoms: C_1  and  C_21
REMARK    3  A    between atoms: C_4  and  N_10
REMARK    4  A    between atoms: C_11  and  C_15
REMARK    5  A    between atoms: N_20  and  C_24
REMARK    6  A    between atoms: C_27  and  N_31
REMARK                            x       y       z     vdW  Elec       q    Type
REMARK                         _______ _______ _______ _____ _____    ______ ____
ROOT
ATOM      1  C   UNL     1      31.936 -24.129 -15.979  0.00  0.00    +0.010 C 
ENDROOT
BRANCH   1   3
ATOM      2  F   UNL     1      34.080 -23.847 -12.059  0.00  0.00    -0.238 F 
ATOM      3  N   UNL     1      32.937 -23.865 -14.956  0.00  0.00    +0.396 N 
ATOM      4  C   UNL     1      35.109 -24.010 -14.162  0.00  0.00    +0.082 C 
ATOM      5  C   UNL     1      34.189 -24.668 -13.138  0.00  0.00    +0.156 C 
ATOM      6  C   UNL     1      34.303 -24.023 -15.455  0.00  0.00    -0.054 C 
ATOM      7  C   UNL     1      32.831 -24.785 -13.819  0.00  0.00    -0.039 C 
ATOM      8  H   UNL     1      32.752 -22.903 -14.673  0.00  0.00    -0.079 HD
BRANCH   4  10
ATOM      9  O   UNL     1      37.646 -23.151 -13.130  0.00  0.00    -0.270 OA
ATOM     10  N   UNL     1      36.367 -24.690 -14.303  0.00  0.00    -0.302 N 
ATOM     11  C   UNL     1      37.551 -24.196 -13.767  0.00  0.00    +0.252 C 
ATOM     12  H   UNL     1      36.391 -25.539 -14.799  0.00  0.00    +0.150 HD
BRANCH  11  15
ATOM     13 CL   UNL     1      41.701 -27.814 -13.232  0.00  0.00    -0.075 Cl
ATOM     14  S   UNL     1      39.285 -26.134 -12.840  0.00  0.00    -0.071 S 
ATOM     15  C   UNL     1      38.772 -25.005 -14.021  0.00  0.00    +0.084 C 
ATOM     16  C   UNL     1      39.602 -24.992 -15.120  0.00  0.00    +0.012 C 
ATOM     17  C   UNL     1      40.676 -25.920 -14.991  0.00  0.00    +0.019 C 
ATOM     18  C   UNL     1      40.623 -26.608 -13.798  0.00  0.00    +0.087 C 
ENDBRANCH  11  15
ENDBRANCH   4  10
ENDBRANCH   1   3
BRANCH   1  21
ATOM     19  O   UNL     1      30.972 -22.217 -17.089  0.00  0.00    -0.277 OA
ATOM     20  N   UNL     1      33.113 -22.961 -17.700  0.00  0.00    -0.284 N 
ATOM     21  C   UNL     1      31.921 -22.985 -16.979  0.00  0.00    +0.205 C 
ATOM     22  H   UNL     1      33.772 -23.655 -17.475  0.00  0.00    +0.155 HD
BRANCH  20  24
ATOM     23  F   UNL     1      35.768 -22.678 -18.501  0.00  0.00    -0.203 F 
ATOM     24  C   UNL     1      33.486 -22.053 -18.720  0.00  0.00    +0.078 C 
ATOM     25  C   UNL     1      34.824 -21.934 -19.098  0.00  0.00    +0.155 C 
ATOM     26  C   UNL     1      32.513 -21.274 -19.347  0.00  0.00    +0.018 C 
ATOM     27  C   UNL     1      34.216 -20.261 -20.730  0.00  0.00    +0.061 C 
ATOM     28  C   UNL     1      35.189 -21.039 -20.102  0.00  0.00    +0.046 C 
ATOM     29  C   UNL     1      32.879 -20.378 -20.352  0.00  0.00    +0.017 C 
BRANCH  27  31
ATOM     30  O   UNL     1      35.191 -17.573 -20.300  0.00  0.00    -0.269 OA
ATOM     31  N   UNL     1      34.596 -19.330 -21.775  0.00  0.00    -0.233 N 
ATOM     32  C   UNL     1      35.023 -18.020 -21.434  0.00  0.00    +0.257 C 
ATOM     33  C   UNL     1      34.565 -19.718 -23.116  0.00  0.00    +0.072 C 
ATOM     34  C   UNL     1      35.351 -17.109 -22.573  0.00  0.00    +0.059 C 
ATOM     35  C   UNL     1      34.895 -18.895 -24.116  0.00  0.00    +0.017 C 
ATOM     36  C   UNL     1      35.293 -17.548 -23.833  0.00  0.00    +0.006 C 
ENDBRANCH  27  31
ENDBRANCH  20  24
ENDBRANCH   1  21
TORSDOF 6
ENDMDL
MODEL 9
REMARK VINA RESULT:     -10.1      5.301     11.578
REMARK  Name = 42628063
REMARK  6 active torsions:
REMARK  status: ('A' for Active; 'I' for Inactive)
REMARK    1  A    between atoms: C_1  and  N_3
REMARK    2  A    between atoms: C_1  and  C_21
REMARK    3  A    between atoms: C_4  and  N_10
REMARK    4  A    between atoms: C_11  and  C_15
REMARK    5  A    between atoms: N_20  and  C_24
REMARK    6  A    between atoms: C_27  and  N_31
REMARK                            x       y       z     vdW  Elec       q    Type
REMARK                         _______ _______ _______ _____ _____    ______ ____
ROOT
ATOM      1  C   UNL     1      36.669 -20.048 -21.648  0.00  0.00    +0.010 C 
ENDROOT
BRANCH   1   3
ATOM      2  F   UNL     1      34.977 -17.482 -24.902  0.00  0.00    -0.238 F 
ATOM      3  N   UNL     1      36.291 -18.903 -22.463  0.00  0.00    +0.396 N 
ATOM      4  C   UNL     1      35.341 -16.802 -22.686  0.00  0.00    +0.082 C 
ATOM      5  C   UNL     1      34.604 -17.753 -23.623  0.00  0.00    +0.156 C 
ATOM      6  C   UNL     1      35.995 -17.717 -21.659  0.00  0.00    -0.054 C 
ATOM      7  C   UNL     1      35.077 -19.151 -23.247  0.00  0.00    -0.039 C 
ATOM      8  H   UNL     1      37.099 -18.753 -23.067  0.00  0.00    -0.079 HD
BRANCH   4  10
ATOM      9  O   UNL     1      34.357 -14.382 -23.877  0.00  0.00    -0.270 OA
ATOM     10  N   UNL     1      34.473 -15.835 -22.072  0.00  0.00    -0.302 N 
ATOM     11  C   UNL     1      34.045 -14.686 -22.729  0.00  0.00    +0.252 C 
ATOM     12  H   UNL     1      34.168 -15.992 -21.150  0.00  0.00    +0.150 HD
BRANCH  11  15
ATOM     13 CL   UNL     1      31.137 -10.280 -21.078  0.00  0.00    -0.075 Cl
ATOM     14  S   UNL     1      32.872 -12.195 -22.540  0.00  0.00    -0.071 S 
ATOM     15  C   UNL     1      33.170 -13.774 -21.948  0.00  0.00    +0.084 C 
ATOM     16  C   UNL     1      32.520 -14.011 -20.757  0.00  0.00    +0.012 C 
ATOM     17  C   UNL     1      31.769 -12.880 -20.323  0.00  0.00    +0.019 C 
ATOM     18  C   UNL     1      31.872 -11.823 -21.200  0.00  0.00    +0.087 C 
ENDBRANCH  11  15
ENDBRANCH   4  10
ENDBRANCH   1   3
BRANCH   1  21
ATOM     19  O   UNL     1      34.580 -19.619 -20.521  0.00  0.00    -0.277 OA
ATOM     20  N   UNL     1      35.905 -21.442 -19.864  0.00  0.00    -0.284 N 
ATOM     21  C   UNL     1      35.583 -20.319 -20.621  0.00  0.00    +0.205 C 
ATOM     22  H   UNL     1      36.754 -21.888 -20.086  0.00  0.00    +0.155 HD
BRANCH  20  24
ATOM     23  F   UNL     1      37.112 -22.257 -17.487  0.00  0.00    -0.203 F 
ATOM     24  C   UNL     1      35.154 -22.018 -18.812  0.00  0.00    +0.078 C 
ATOM     25  C   UNL     1      35.788 -22.416 -17.634  0.00  0.00    +0.155 C 
ATOM     26  C   UNL     1      33.777 -22.189 -18.953  0.00  0.00    +0.018 C 
ATOM     27  C   UNL     1      33.669 -23.152 -16.740  0.00  0.00    +0.061 C 
ATOM     28  C   UNL     1      35.046 -22.983 -16.599  0.00  0.00    +0.046 C 
ATOM     29  C   UNL     1      33.034 -22.755 -17.917  0.00  0.00    +0.017 C 
BRANCH  27  31
ATOM     30  O   UNL     1      30.786 -23.085 -16.519  0.00  0.00    -0.269 OA
ATOM     31  N   UNL     1      32.897 -23.742 -15.663  0.00  0.00    -0.233 N 
ATOM     32  C   UNL     1      31.484 -23.605 -15.649  0.00  0.00    +0.257 C 
ATOM     33  C   UNL     1      33.530 -24.464 -14.649  0.00  0.00    +0.072 C 
ATOM     34  C   UNL     1      30.769 -24.203 -14.479  0.00  0.00    +0.059 C 
ATOM     35  C   UNL     1      32.865 -25.018 -13.630  0.00  0.00    +0.017 C 
ATOM     36  C   UNL     1      31.443 -24.875 -13.542  0.00  0.00    +0.006 C 
ENDBRANCH  27  31
ENDBRANCH  20  24
ENDBRANCH   1  21
TORSDOF 6
ENDMDL
