MODEL 1
REMARK VINA RESULT:     -11.5      0.000      0.000
REMARK  Name = 24779675
REMARK  4 active torsions:
REMARK  status: ('A' for Active; 'I' for Inactive)
REMARK    1  A    between atoms: N_1  and  C_22
REMARK    2  A    between atoms: N_5  and  C_14
REMARK    3  A    between atoms: C_10  and  C_21
REMARK    4  A    between atoms: C_22  and  C_23
REMARK                            x       y       z     vdW  Elec       q    Type
REMARK                         _______ _______ _______ _____ _____    ______ ____
ROOT
ATOM      1  N   UNL     1      34.530 -23.187 -17.988  0.00  0.00    -0.259 N 
ATOM      2  N   UNL     1      32.553 -23.265 -16.819  0.00  0.00    -0.314 NA
ATOM      3  N   UNL     1      34.568 -24.075 -15.824  0.00  0.00    -0.295 NA
ATOM      4  N   UNL     1      32.608 -24.160 -14.643  0.00  0.00    -0.123 N 
ATOM      5  N   UNL     1      34.581 -24.970 -13.629  0.00  0.00    -0.274 N 
ATOM      6  N   UNL     1      31.859 -24.448 -13.565  0.00  0.00    -0.170 NA
ATOM      7  C   UNL     1      33.845 -23.504 -16.869  0.00  0.00    +0.203 C 
ATOM      8  C   UNL     1      31.913 -23.600 -15.675  0.00  0.00    +0.219 C 
ATOM      9  C   UNL     1      33.971 -24.405 -14.716  0.00  0.00    +0.279 C 
ATOM     10  C   UNL     1      30.611 -23.514 -15.237  0.00  0.00    +0.203 C 
ATOM     11  C   UNL     1      30.638 -24.050 -13.933  0.00  0.00    +0.116 C 
ATOM     12  H   UNL     1      35.496 -23.371 -18.012  0.00  0.00    +0.160 HD
ATOM     13  H   UNL     1      34.006 -25.169 -12.855  0.00  0.00    +0.156 HD
ENDROOT
BRANCH   5  14
ATOM     14  C   UNL     1      35.933 -25.293 -13.501  0.00  0.00    +0.051 C 
ATOM     15  C   UNL     1      36.482 -26.315 -14.275  0.00  0.00    +0.015 C 
ATOM     16  C   UNL     1      36.735 -24.593 -12.599  0.00  0.00    +0.015 C 
ATOM     17  C   UNL     1      37.833 -26.640 -14.147  0.00  0.00    +0.001 C 
ATOM     18  C   UNL     1      38.086 -24.918 -12.471  0.00  0.00    +0.001 C 
ATOM     19  C   UNL     1      38.635 -25.940 -13.245  0.00  0.00    +0.000 C 
ENDBRANCH   5  14
BRANCH  10  21
ATOM     20  N   UNL     1      28.598 -22.573 -16.551  0.00  0.00    -0.195 NA
ATOM     21  C   UNL     1      29.502 -22.996 -15.959  0.00  0.00    +0.087 C 
ENDBRANCH  10  21
BRANCH   1  22
ATOM     22  C   UNL     1      33.916 -22.593 -19.146  0.00  0.00    +0.099 C 
BRANCH  22  23
ATOM     23  C   UNL     1      34.595 -21.261 -19.462  0.00  0.00    +0.020 C 
ATOM     24  C   UNL     1      36.079 -21.475 -19.787  0.00  0.00    +0.002 C 
ATOM     25  C   UNL     1      33.880 -20.549 -20.617  0.00  0.00    +0.002 C 
ATOM     26  C   UNL     1      36.770 -20.164 -20.159  0.00  0.00    +0.000 C 
ATOM     27  C   UNL     1      34.573 -19.240 -20.988  0.00  0.00    +0.000 C 
ATOM     28  C   UNL     1      36.051 -19.454 -21.302  0.00  0.00    +0.000 C 
ENDBRANCH  22  23
ENDBRANCH   1  22
TORSDOF 4
ENDMDL
MODEL 2
REMARK VINA RESULT:     -10.8      1.393      5.580
REMARK  Name = 24779675
REMARK  4 active torsions:
REMARK  status: ('A' for Active; 'I' for Inactive)
REMARK    1  A    between atoms: N_1  and  C_22
REMARK    2  A    between atoms: N_5  and  C_14
REMARK    3  A    between atoms: C_10  and  C_21
REMARK    4  A    between atoms: C_22  and  C_23
REMARK                            x       y       z     vdW  Elec       q    Type
REMARK                         _______ _______ _______ _____ _____    ______ ____
ROOT
ATOM      1  N   UNL     1      34.414 -22.794 -17.682  0.00  0.00    -0.259 N 
ATOM      2  N   UNL     1      35.352 -23.553 -15.727  0.00  0.00    -0.314 NA
ATOM      3  N   UNL     1      32.978 -23.507 -15.979  0.00  0.00    -0.295 NA
ATOM      4  N   UNL     1      33.895 -24.267 -14.023  0.00  0.00    -0.123 N 
ATOM      5  N   UNL     1      31.543 -24.235 -14.238  0.00  0.00    -0.274 N 
ATOM      6  N   UNL     1      33.838 -24.766 -12.776  0.00  0.00    -0.170 NA
ATOM      7  C   UNL     1      34.276 -23.295 -16.436  0.00  0.00    +0.203 C 
ATOM      8  C   UNL     1      35.161 -24.054 -14.485  0.00  0.00    +0.219 C 
ATOM      9  C   UNL     1      32.772 -23.987 -14.787  0.00  0.00    +0.279 C 
ATOM     10  C   UNL     1      35.995 -24.445 -13.462  0.00  0.00    +0.203 C 
ATOM     11  C   UNL     1      35.127 -24.873 -12.439  0.00  0.00    +0.116 C 
ATOM     12  H   UNL     1      33.600 -22.606 -18.203  0.00  0.00    +0.160 HD
ATOM     13  H   UNL     1      31.535 -24.600 -13.324  0.00  0.00    +0.156 HD
ENDROOT
BRANCH   5  14
ATOM     14  C   UNL     1      30.300 -24.026 -14.837  0.00  0.00    +0.051 C 
ATOM     15  C   UNL     1      29.639 -22.809 -14.664  0.00  0.00    +0.015 C 
ATOM     16  C   UNL     1      29.718 -25.033 -15.608  0.00  0.00    +0.015 C 
ATOM     17  C   UNL     1      28.395 -22.600 -15.262  0.00  0.00    +0.001 C 
ATOM     18  C   UNL     1      28.476 -24.822 -16.206  0.00  0.00    +0.001 C 
ATOM     19  C   UNL     1      27.814 -23.607 -16.033  0.00  0.00    +0.000 C 
ENDBRANCH   5  14
BRANCH  10  21
ATOM     20  N   UNL     1      38.576 -24.387 -13.465  0.00  0.00    -0.195 NA
ATOM     21  C   UNL     1      37.416 -24.412 -13.464  0.00  0.00    +0.087 C 
ENDBRANCH  10  21
BRANCH   1  22
ATOM     22  C   UNL     1      35.692 -22.524 -18.286  0.00  0.00    +0.099 C 
BRANCH  22  23
ATOM     23  C   UNL     1      35.492 -21.738 -19.581  0.00  0.00    +0.020 C 
ATOM     24  C   UNL     1      34.077 -21.148 -19.644  0.00  0.00    +0.002 C 
ATOM     25  C   UNL     1      36.550 -20.635 -19.714  0.00  0.00    +0.002 C 
ATOM     26  C   UNL     1      33.870 -20.312 -20.905  0.00  0.00    +0.000 C 
ATOM     27  C   UNL     1      36.339 -19.801 -20.976  0.00  0.00    +0.000 C 
ATOM     28  C   UNL     1      34.928 -19.223 -21.039  0.00  0.00    +0.000 C 
ENDBRANCH  22  23
ENDBRANCH   1  22
TORSDOF 4
ENDMDL
MODEL 3
REMARK VINA RESULT:     -10.3      1.635      7.304
REMARK  Name = 24779675
REMARK  4 active torsions:
REMARK  status: ('A' for Active; 'I' for Inactive)
REMARK    1  A    between atoms: N_1  and  C_22
REMARK    2  A    between atoms: N_5  and  C_14
REMARK    3  A    between atoms: C_10  and  C_21
REMARK    4  A    between atoms: C_22  and  C_23
REMARK                            x       y       z     vdW  Elec       q    Type
REMARK                         _______ _______ _______ _____ _____    ______ ____
ROOT
ATOM      1  N   UNL     1      32.714 -23.160 -14.558  0.00  0.00    -0.259 N 
ATOM      2  N   UNL     1      34.695 -24.102 -13.875  0.00  0.00    -0.314 NA
ATOM      3  N   UNL     1      34.573 -22.944 -15.961  0.00  0.00    -0.295 NA
ATOM      4  N   UNL     1      36.556 -23.876 -15.297  0.00  0.00    -0.123 N 
ATOM      5  N   UNL     1      36.472 -22.738 -17.365  0.00  0.00    -0.274 N 
ATOM      6  N   UNL     1      37.859 -24.175 -15.442  0.00  0.00    -0.170 NA
ATOM      7  C   UNL     1      34.020 -23.421 -14.775  0.00  0.00    +0.203 C 
ATOM      8  C   UNL     1      36.001 -24.337 -14.139  0.00  0.00    +0.219 C 
ATOM      9  C   UNL     1      35.827 -23.161 -16.234  0.00  0.00    +0.279 C 
ATOM     10  C   UNL     1      37.018 -24.986 -13.477  0.00  0.00    +0.203 C 
ATOM     11  C   UNL     1      38.136 -24.854 -14.325  0.00  0.00    +0.116 C 
ATOM     12  H   UNL     1      32.220 -22.650 -15.239  0.00  0.00    +0.160 HD
ATOM     13  H   UNL     1      37.425 -22.973 -17.442  0.00  0.00    +0.156 HD
ENDROOT
BRANCH   5  14
ATOM     14  C   UNL     1      35.922 -22.010 -18.421  0.00  0.00    +0.051 C 
ATOM     15  C   UNL     1      36.738 -21.194 -19.205  0.00  0.00    +0.015 C 
ATOM     16  C   UNL     1      34.556 -22.098 -18.692  0.00  0.00    +0.015 C 
ATOM     17  C   UNL     1      36.188 -20.464 -20.260  0.00  0.00    +0.001 C 
ATOM     18  C   UNL     1      34.007 -21.369 -19.748  0.00  0.00    +0.001 C 
ATOM     19  C   UNL     1      34.822 -20.552 -20.531  0.00  0.00    +0.000 C 
ENDBRANCH   5  14
BRANCH  10  21
ATOM     20  N   UNL     1      36.862 -26.172 -11.189  0.00  0.00    -0.195 NA
ATOM     21  C   UNL     1      36.933 -25.638 -12.217  0.00  0.00    +0.087 C 
ENDBRANCH  10  21
BRANCH   1  22
ATOM     22  C   UNL     1      32.009 -23.590 -13.380  0.00  0.00    +0.099 C 
BRANCH  22  23
ATOM     23  C   UNL     1      30.563 -23.928 -13.740  0.00  0.00    +0.020 C 
ATOM     24  C   UNL     1      30.054 -23.006 -14.856  0.00  0.00    +0.002 C 
ATOM     25  C   UNL     1      30.436 -25.402 -14.147  0.00  0.00    +0.002 C 
ATOM     26  C   UNL     1      28.627 -23.359 -15.272  0.00  0.00    +0.000 C 
ATOM     27  C   UNL     1      29.009 -25.750 -14.564  0.00  0.00    +0.000 C 
ATOM     28  C   UNL     1      28.503 -24.827 -15.668  0.00  0.00    +0.000 C 
ENDBRANCH  22  23
ENDBRANCH   1  22
TORSDOF 4
ENDMDL
MODEL 4
REMARK VINA RESULT:     -10.3      1.910      5.587
REMARK  Name = 24779675
REMARK  4 active torsions:
REMARK  status: ('A' for Active; 'I' for Inactive)
REMARK    1  A    between atoms: N_1  and  C_22
REMARK    2  A    between atoms: N_5  and  C_14
REMARK    3  A    between atoms: C_10  and  C_21
REMARK    4  A    between atoms: C_22  and  C_23
REMARK                            x       y       z     vdW  Elec       q    Type
REMARK                         _______ _______ _______ _____ _____    ______ ____
ROOT
ATOM      1  N   UNL     1      35.831 -22.636 -17.019  0.00  0.00    -0.259 N 
ATOM      2  N   UNL     1      37.200 -23.846 -15.626  0.00  0.00    -0.314 NA
ATOM      3  N   UNL     1      34.841 -23.806 -15.253  0.00  0.00    -0.295 NA
ATOM      4  N   UNL     1      36.189 -25.018 -13.854  0.00  0.00    -0.123 N 
ATOM      5  N   UNL     1      33.861 -25.002 -13.456  0.00  0.00    -0.274 N 
ATOM      6  N   UNL     1      36.427 -25.825 -12.805  0.00  0.00    -0.170 NA
ATOM      7  C   UNL     1      35.991 -23.445 -15.951  0.00  0.00    +0.203 C 
ATOM      8  C   UNL     1      37.306 -24.657 -14.548  0.00  0.00    +0.219 C 
ATOM      9  C   UNL     1      34.922 -24.584 -14.213  0.00  0.00    +0.279 C 
ATOM     10  C   UNL     1      38.355 -25.274 -13.904  0.00  0.00    +0.203 C 
ATOM     11  C   UNL     1      37.754 -25.978 -12.841  0.00  0.00    +0.116 C 
ATOM     12  H   UNL     1      34.921 -22.343 -17.252  0.00  0.00    +0.160 HD
ATOM     13  H   UNL     1      34.068 -25.591 -12.694  0.00  0.00    +0.156 HD
ENDROOT
BRANCH   5  14
ATOM     14  C   UNL     1      32.516 -24.681 -13.648  0.00  0.00    +0.051 C 
ATOM     15  C   UNL     1      32.163 -23.425 -14.142  0.00  0.00    +0.015 C 
ATOM     16  C   UNL     1      31.526 -25.616 -13.347  0.00  0.00    +0.015 C 
ATOM     17  C   UNL     1      30.819 -23.103 -14.334  0.00  0.00    +0.001 C 
ATOM     18  C   UNL     1      30.182 -25.294 -13.540  0.00  0.00    +0.001 C 
ATOM     19  C   UNL     1      29.829 -24.038 -14.033  0.00  0.00    +0.000 C 
ENDBRANCH   5  14
BRANCH  10  21
ATOM     20  N   UNL     1      40.853 -25.140 -14.539  0.00  0.00    -0.195 NA
ATOM     21  C   UNL     1      39.730 -25.201 -14.254  0.00  0.00    +0.087 C 
ENDBRANCH  10  21
BRANCH   1  22
ATOM     22  C   UNL     1      36.927 -22.181 -17.834  0.00  0.00    +0.099 C 
BRANCH  22  23
ATOM     23  C   UNL     1      36.398 -21.692 -19.181  0.00  0.00    +0.020 C 
ATOM     24  C   UNL     1      34.869 -21.560 -19.146  0.00  0.00    +0.002 C 
ATOM     25  C   UNL     1      37.052 -20.359 -19.569  0.00  0.00    +0.002 C 
ATOM     26  C   UNL     1      34.319 -21.021 -20.465  0.00  0.00    +0.000 C 
ATOM     27  C   UNL     1      36.499 -19.822 -20.887  0.00  0.00    +0.000 C 
ATOM     28  C   UNL     1      34.978 -19.701 -20.852  0.00  0.00    +0.000 C 
ENDBRANCH  22  23
ENDBRANCH   1  22
TORSDOF 4
ENDMDL
MODEL 5
REMARK VINA RESULT:     -10.1      1.177      6.752
REMARK  Name = 24779675
REMARK  4 active torsions:
REMARK  status: ('A' for Active; 'I' for Inactive)
REMARK    1  A    between atoms: N_1  and  C_22
REMARK    2  A    between atoms: N_5  and  C_14
REMARK    3  A    between atoms: C_10  and  C_21
REMARK    4  A    between atoms: C_22  and  C_23
REMARK                            x       y       z     vdW  Elec       q    Type
REMARK                         _______ _______ _______ _____ _____    ______ ____
ROOT
ATOM      1  N   UNL     1      35.443 -24.486 -15.755  0.00  0.00    -0.259 N 
ATOM      2  N   UNL     1      33.203 -24.425 -15.247  0.00  0.00    -0.314 NA
ATOM      3  N   UNL     1      34.046 -23.178 -17.101  0.00  0.00    -0.295 NA
ATOM      4  N   UNL     1      31.811 -23.106 -16.611  0.00  0.00    -0.123 N 
ATOM      5  N   UNL     1      32.611 -21.861 -18.451  0.00  0.00    -0.274 N 
ATOM      6  N   UNL     1      30.544 -22.703 -16.807  0.00  0.00    -0.170 NA
ATOM      7  C   UNL     1      34.196 -24.038 -16.015  0.00  0.00    +0.203 C 
ATOM      8  C   UNL     1      31.973 -23.949 -15.550  0.00  0.00    +0.219 C 
ATOM      9  C   UNL     1      32.872 -22.708 -17.409  0.00  0.00    +0.279 C 
ATOM     10  C   UNL     1      30.716 -24.110 -15.013  0.00  0.00    +0.203 C 
ATOM     11  C   UNL     1      29.878 -23.321 -15.827  0.00  0.00    +0.116 C 
ATOM     12  H   UNL     1      36.177 -24.188 -16.337  0.00  0.00    +0.160 HD
ATOM     13  H   UNL     1      31.673 -21.584 -18.568  0.00  0.00    +0.156 HD
ENDROOT
BRANCH   5  14
ATOM     14  C   UNL     1      33.532 -21.348 -19.366  0.00  0.00    +0.051 C 
ATOM     15  C   UNL     1      34.880 -21.695 -19.267  0.00  0.00    +0.015 C 
ATOM     16  C   UNL     1      33.105 -20.488 -20.378  0.00  0.00    +0.015 C 
ATOM     17  C   UNL     1      35.801 -21.182 -20.180  0.00  0.00    +0.001 C 
ATOM     18  C   UNL     1      34.027 -19.976 -21.292  0.00  0.00    +0.001 C 
ATOM     19  C   UNL     1      35.375 -20.322 -21.193  0.00  0.00    +0.000 C 
ENDBRANCH   5  14
BRANCH  10  21
ATOM     20  N   UNL     1      30.084 -25.548 -12.965  0.00  0.00    -0.195 NA
ATOM     21  C   UNL     1      30.367 -24.901 -13.886  0.00  0.00    +0.087 C 
ENDBRANCH  10  21
BRANCH   1  22
ATOM     22  C   UNL     1      35.748 -25.377 -14.667  0.00  0.00    +0.099 C 
BRANCH  22  23
ATOM     23  C   UNL     1      36.844 -24.766 -13.794  0.00  0.00    +0.020 C 
ATOM     24  C   UNL     1      36.249 -23.747 -12.814  0.00  0.00    +0.002 C 
ATOM     25  C   UNL     1      37.612 -25.862 -13.044  0.00  0.00    +0.002 C 
ATOM     26  C   UNL     1      37.317 -23.160 -11.893  0.00  0.00    +0.000 C 
ATOM     27  C   UNL     1      38.678 -25.272 -12.122  0.00  0.00    +0.000 C 
ATOM     28  C   UNL     1      38.085 -24.252 -11.155  0.00  0.00    +0.000 C 
ENDBRANCH  22  23
ENDBRANCH   1  22
TORSDOF 4
ENDMDL
MODEL 6
REMARK VINA RESULT:      -8.9      1.762      7.426
REMARK  Name = 24779675
REMARK  4 active torsions:
REMARK  status: ('A' for Active; 'I' for Inactive)
REMARK    1  A    between atoms: N_1  and  C_22
REMARK    2  A    between atoms: N_5  and  C_14
REMARK    3  A    between atoms: C_10  and  C_21
REMARK    4  A    between atoms: C_22  and  C_23
REMARK                            x       y       z     vdW  Elec       q    Type
REMARK                         _______ _______ _______ _____ _____    ______ ____
ROOT
ATOM      1  N   UNL     1      32.413 -23.175 -17.343  0.00  0.00    -0.259 N 
ATOM      2  N   UNL     1      34.279 -23.633 -16.084  0.00  0.00    -0.314 NA
ATOM      3  N   UNL     1      34.454 -22.266 -18.035  0.00  0.00    -0.295 NA
ATOM      4  N   UNL     1      36.325 -22.711 -16.793  0.00  0.00    -0.123 N 
ATOM      5  N   UNL     1      36.535 -21.356 -18.715  0.00  0.00    -0.274 N 
ATOM      6  N   UNL     1      37.636 -22.623 -16.509  0.00  0.00    -0.170 NA
ATOM      7  C   UNL     1      33.738 -23.040 -17.125  0.00  0.00    +0.203 C 
ATOM      8  C   UNL     1      35.610 -23.466 -15.908  0.00  0.00    +0.219 C 
ATOM      9  C   UNL     1      35.736 -22.094 -17.885  0.00  0.00    +0.279 C 
ATOM     10  C   UNL     1      36.524 -23.903 -14.976  0.00  0.00    +0.203 C 
ATOM     11  C   UNL     1      37.752 -23.353 -15.396  0.00  0.00    +0.116 C 
ATOM     12  H   UNL     1      32.020 -22.726 -18.126  0.00  0.00    +0.160 HD
ATOM     13  H   UNL     1      37.490 -21.311 -18.481  0.00  0.00    +0.156 HD
ENDROOT
BRANCH   5  14
ATOM     14  C   UNL     1      36.139 -20.661 -19.859  0.00  0.00    +0.051 C 
ATOM     15  C   UNL     1      34.846 -20.818 -20.358  0.00  0.00    +0.015 C 
ATOM     16  C   UNL     1      37.037 -19.809 -20.504  0.00  0.00    +0.015 C 
ATOM     17  C   UNL     1      34.450 -20.124 -21.502  0.00  0.00    +0.001 C 
ATOM     18  C   UNL     1      36.641 -19.115 -21.647  0.00  0.00    +0.001 C 
ATOM     19  C   UNL     1      35.348 -19.273 -22.147  0.00  0.00    +0.000 C 
ENDBRANCH   5  14
BRANCH  10  21
ATOM     20  N   UNL     1      36.044 -25.399 -12.928  0.00  0.00    -0.195 NA
ATOM     21  C   UNL     1      36.260 -24.726 -13.848  0.00  0.00    +0.087 C 
ENDBRANCH  10  21
BRANCH   1  22
ATOM     22  C   UNL     1      31.547 -23.943 -16.488  0.00  0.00    +0.099 C 
BRANCH  22  23
ATOM     23  C   UNL     1      30.267 -23.158 -16.213  0.00  0.00    +0.020 C 
ATOM     24  C   UNL     1      29.086 -23.758 -16.988  0.00  0.00    +0.002 C 
ATOM     25  C   UNL     1      29.968 -23.117 -14.709  0.00  0.00    +0.002 C 
ATOM     26  C   UNL     1      27.782 -23.023 -16.689  0.00  0.00    +0.000 C 
ATOM     27  C   UNL     1      28.662 -22.383 -14.413  0.00  0.00    +0.000 C 
ATOM     28  C   UNL     1      27.492 -22.977 -15.192  0.00  0.00    +0.000 C 
ENDBRANCH  22  23
ENDBRANCH   1  22
TORSDOF 4
ENDMDL
