MODEL 1
REMARK VINA RESULT:     -11.3      0.000      0.000
REMARK  Name = 25052630
REMARK  6 active torsions:
REMARK  status: ('A' for Active; 'I' for Inactive)
REMARK    1  A    between atoms: N_2  and  C_11
REMARK    2  A    between atoms: C_4  and  C_20
REMARK    3  A    between atoms: C_20  and  C_21
REMARK    4  A    between atoms: C_21  and  N_22
REMARK    5  A    between atoms: N_22  and  C_25
REMARK    6  A    between atoms: C_25  and  C_26
REMARK                            x       y       z     vdW  Elec       q    Type
REMARK                         _______ _______ _______ _____ _____    ______ ____
ROOT
ATOM      1  S   UNL     1      37.198 -27.275 -13.552  0.00  0.00    -0.018 S 
ATOM      2  N   UNL     1      36.466 -24.823 -14.687  0.00  0.00    -0.270 N 
ATOM      3  N   UNL     1      38.662 -25.309 -14.746  0.00  0.00    -0.294 N 
ATOM      4  C   UNL     1      37.160 -23.785 -15.306  0.00  0.00    +0.043 C 
ATOM      5  C   UNL     1      37.416 -25.819 -14.316  0.00  0.00    +0.142 C 
ATOM      6  C   UNL     1      38.467 -24.088 -15.335  0.00  0.00    +0.074 C 
ATOM      7  H   UNL     1      39.531 -25.759 -14.639  0.00  0.00    +0.154 HD
ENDROOT
BRANCH   2  11
ATOM      8  F   UNL     1      30.673 -24.042 -12.276  0.00  0.00    -0.201 F 
ATOM      9  F   UNL     1      29.752 -22.771 -16.736  0.00  0.00    -0.204 F 
ATOM     10  O   UNL     1      33.266 -24.417 -12.840  0.00  0.00    -0.472 OA
ATOM     11  C   UNL     1      35.040 -24.835 -14.482  0.00  0.00    +0.127 C 
ATOM     12  C   UNL     1      34.322 -24.013 -15.550  0.00  0.00    +0.054 C 
ATOM     13  C   UNL     1      34.667 -24.288 -13.108  0.00  0.00    +0.226 C 
ATOM     14  C   UNL     1      32.882 -23.804 -15.173  0.00  0.00    +0.018 C 
ATOM     15  C   UNL     1      32.446 -24.005 -13.857  0.00  0.00    +0.162 C 
ATOM     16  C   UNL     1      31.963 -23.377 -16.141  0.00  0.00    +0.029 C 
ATOM     17  C   UNL     1      31.101 -23.818 -13.526  0.00  0.00    +0.176 C 
ATOM     18  C   UNL     1      30.623 -23.180 -15.804  0.00  0.00    +0.142 C 
ATOM     19  C   UNL     1      30.192 -23.404 -14.499  0.00  0.00    +0.062 C 
ENDBRANCH   2  11
BRANCH   4  20
ATOM     20  C   UNL     1      36.492 -22.568 -15.828  0.00  0.00    +0.019 C 
BRANCH  20  21
ATOM     21  C   UNL     1      37.508 -21.539 -16.324  0.00  0.00    -0.075 C 
BRANCH  21  22
ATOM     22  N   UNL     1      37.140 -21.055 -17.650  0.00  0.00    +0.387 N 
ATOM     23  H   UNL     1      37.983 -20.760 -18.143  0.00  0.00    -0.084 HD
ATOM     24  H   UNL     1      36.497 -20.271 -17.544  0.00  0.00    -0.084 HD
BRANCH  22  25
ATOM     25  C   UNL     1      36.478 -22.099 -18.418  0.00  0.00    -0.054 C 
BRANCH  25  26
ATOM     26  C   UNL     1      35.279 -21.575 -19.162  0.00  0.00    -0.044 C 
ATOM     27  C   UNL     1      35.451 -20.685 -20.224  0.00  0.00    -0.006 C 
ATOM     28  C   UNL     1      33.997 -21.979 -18.791  0.00  0.00    -0.006 C 
ATOM     29  C   UNL     1      34.339 -20.200 -20.912  0.00  0.00    -0.000 C 
ATOM     30  C   UNL     1      32.886 -21.492 -19.481  0.00  0.00    -0.000 C 
ATOM     31  C   UNL     1      33.057 -20.603 -20.541  0.00  0.00    -0.000 C 
ENDBRANCH  25  26
ENDBRANCH  22  25
ENDBRANCH  21  22
ENDBRANCH  20  21
ENDBRANCH   4  20
TORSDOF 6
ENDMDL
MODEL 2
REMARK VINA RESULT:     -10.9      8.447     11.914
REMARK  Name = 25052630
REMARK  6 active torsions:
REMARK  status: ('A' for Active; 'I' for Inactive)
REMARK    1  A    between atoms: N_2  and  C_11
REMARK    2  A    between atoms: C_4  and  C_20
REMARK    3  A    between atoms: C_20  and  C_21
REMARK    4  A    between atoms: C_21  and  N_22
REMARK    5  A    between atoms: N_22  and  C_25
REMARK    6  A    between atoms: C_25  and  C_26
REMARK                            x       y       z     vdW  Elec       q    Type
REMARK                         _______ _______ _______ _____ _____    ______ ____
ROOT
ATOM      1  S   UNL     1      33.056 -14.337 -26.252  0.00  0.00    -0.018 S 
ATOM      2  N   UNL     1      34.116 -14.945 -23.733  0.00  0.00    -0.270 N 
ATOM      3  N   UNL     1      34.256 -16.581 -25.271  0.00  0.00    -0.294 N 
ATOM      4  C   UNL     1      34.736 -16.062 -23.175  0.00  0.00    +0.043 C 
ATOM      5  C   UNL     1      33.797 -15.257 -25.086  0.00  0.00    +0.142 C 
ATOM      6  C   UNL     1      34.813 -17.029 -24.103  0.00  0.00    +0.074 C 
ATOM      7  H   UNL     1      34.187 -17.099 -26.106  0.00  0.00    +0.154 HD
ENDROOT
BRANCH   2  11
ATOM      8  F   UNL     1      32.775  -8.942 -22.269  0.00  0.00    -0.201 F 
ATOM      9  F   UNL     1      30.114 -11.073 -18.992  0.00  0.00    -0.204 F 
ATOM     10  O   UNL     1      33.546 -11.301 -23.282  0.00  0.00    -0.472 OA
ATOM     11  C   UNL     1      33.866 -13.719 -23.021  0.00  0.00    +0.127 C 
ATOM     12  C   UNL     1      32.635 -13.840 -22.126  0.00  0.00    +0.054 C 
ATOM     13  C   UNL     1      33.664 -12.547 -23.977  0.00  0.00    +0.226 C 
ATOM     14  C   UNL     1      32.224 -12.491 -21.608  0.00  0.00    +0.018 C 
ATOM     15  C   UNL     1      32.688 -11.315 -22.214  0.00  0.00    +0.162 C 
ATOM     16  C   UNL     1      31.345 -12.398 -20.521  0.00  0.00    +0.029 C 
ATOM     17  C   UNL     1      32.307 -10.067 -21.713  0.00  0.00    +0.176 C 
ATOM     18  C   UNL     1      30.956 -11.151 -20.032  0.00  0.00    +0.142 C 
ATOM     19  C   UNL     1      31.440  -9.987 -20.624  0.00  0.00    +0.062 C 
ENDBRANCH   2  11
BRANCH   4  20
ATOM     20  C   UNL     1      35.211 -16.103 -21.770  0.00  0.00    +0.019 C 
BRANCH  20  21
ATOM     21  C   UNL     1      34.644 -17.308 -21.021  0.00  0.00    -0.075 C 
BRANCH  21  22
ATOM     22  N   UNL     1      35.686 -18.300 -20.783  0.00  0.00    +0.387 N 
ATOM     23  H   UNL     1      35.786 -18.444 -19.778  0.00  0.00    -0.084 HD
ATOM     24  H   UNL     1      36.559 -17.956 -21.182  0.00  0.00    -0.084 HD
BRANCH  22  25
ATOM     25  C   UNL     1      35.351 -19.567 -21.417  0.00  0.00    -0.054 C 
BRANCH  25  26
ATOM     26  C   UNL     1      34.926 -20.602 -20.410  0.00  0.00    -0.044 C 
ATOM     27  C   UNL     1      35.887 -21.379 -19.760  0.00  0.00    -0.006 C 
ATOM     28  C   UNL     1      33.574 -20.784 -20.125  0.00  0.00    -0.006 C 
ATOM     29  C   UNL     1      35.494 -22.338 -18.827  0.00  0.00    -0.000 C 
ATOM     30  C   UNL     1      33.181 -21.744 -19.190  0.00  0.00    -0.000 C 
ATOM     31  C   UNL     1      34.141 -22.520 -18.542  0.00  0.00    -0.000 C 
ENDBRANCH  25  26
ENDBRANCH  22  25
ENDBRANCH  21  22
ENDBRANCH  20  21
ENDBRANCH   4  20
TORSDOF 6
ENDMDL
MODEL 3
REMARK VINA RESULT:     -10.2      8.546     12.058
REMARK  Name = 25052630
REMARK  6 active torsions:
REMARK  status: ('A' for Active; 'I' for Inactive)
REMARK    1  A    between atoms: N_2  and  C_11
REMARK    2  A    between atoms: C_4  and  C_20
REMARK    3  A    between atoms: C_20  and  C_21
REMARK    4  A    between atoms: C_21  and  N_22
REMARK    5  A    between atoms: N_22  and  C_25
REMARK    6  A    between atoms: C_25  and  C_26
REMARK                            x       y       z     vdW  Elec       q    Type
REMARK                         _______ _______ _______ _____ _____    ______ ____
ROOT
ATOM      1  S   UNL     1      33.078 -14.617 -26.531  0.00  0.00    -0.018 S 
ATOM      2  N   UNL     1      33.709 -14.901 -23.818  0.00  0.00    -0.270 N 
ATOM      3  N   UNL     1      34.696 -16.370 -25.209  0.00  0.00    -0.294 N 
ATOM      4  C   UNL     1      34.520 -15.767 -23.088  0.00  0.00    +0.043 C 
ATOM      5  C   UNL     1      33.807 -15.271 -25.192  0.00  0.00    +0.142 C 
ATOM      6  C   UNL     1      35.102 -16.637 -23.929  0.00  0.00    +0.074 C 
ATOM      7  H   UNL     1      34.978 -16.864 -26.013  0.00  0.00    +0.154 HD
ENDROOT
BRANCH   2  11
ATOM      8  F   UNL     1      30.649 -11.133 -19.767  0.00  0.00    -0.201 F 
ATOM      9  F   UNL     1      32.785  -7.797 -22.349  0.00  0.00    -0.204 F 
ATOM     10  O   UNL     1      31.817 -13.084 -21.186  0.00  0.00    -0.472 OA
ATOM     11  C   UNL     1      32.930 -13.838 -23.238  0.00  0.00    +0.127 C 
ATOM     12  C   UNL     1      33.610 -12.485 -23.432  0.00  0.00    +0.054 C 
ATOM     13  C   UNL     1      32.700 -14.062 -21.747  0.00  0.00    +0.226 C 
ATOM     14  C   UNL     1      32.941 -11.434 -22.594  0.00  0.00    +0.018 C 
ATOM     15  C   UNL     1      32.103 -11.788 -21.528  0.00  0.00    +0.162 C 
ATOM     16  C   UNL     1      33.173 -10.078 -22.859  0.00  0.00    +0.029 C 
ATOM     17  C   UNL     1      31.478 -10.798 -20.765  0.00  0.00    +0.176 C 
ATOM     18  C   UNL     1      32.556  -9.091 -22.088  0.00  0.00    +0.142 C 
ATOM     19  C   UNL     1      31.706  -9.451 -21.045  0.00  0.00    +0.062 C 
ENDBRANCH   2  11
BRANCH   4  20
ATOM     20  C   UNL     1      34.669 -15.682 -21.614  0.00  0.00    +0.019 C 
BRANCH  20  21
ATOM     21  C   UNL     1      34.283 -16.994 -20.934  0.00  0.00    -0.075 C 
BRANCH  21  22
ATOM     22  N   UNL     1      35.449 -17.858 -20.789  0.00  0.00    +0.387 N 
ATOM     23  H   UNL     1      35.597 -18.055 -19.800  0.00  0.00    -0.084 HD
ATOM     24  H   UNL     1      36.259 -17.381 -21.182  0.00  0.00    -0.084 HD
BRANCH  22  25
ATOM     25  C   UNL     1      35.256 -19.113 -21.502  0.00  0.00    -0.054 C 
BRANCH  25  26
ATOM     26  C   UNL     1      34.904 -20.241 -20.569  0.00  0.00    -0.044 C 
ATOM     27  C   UNL     1      35.916 -20.991 -19.969  0.00  0.00    -0.006 C 
ATOM     28  C   UNL     1      33.567 -20.533 -20.302  0.00  0.00    -0.006 C 
ATOM     29  C   UNL     1      35.590 -22.035 -19.104  0.00  0.00    -0.000 C 
ATOM     30  C   UNL     1      33.241 -21.578 -19.436  0.00  0.00    -0.000 C 
ATOM     31  C   UNL     1      34.253 -22.328 -18.837  0.00  0.00    -0.000 C 
ENDBRANCH  25  26
ENDBRANCH  22  25
ENDBRANCH  21  22
ENDBRANCH  20  21
ENDBRANCH   4  20
TORSDOF 6
ENDMDL
MODEL 4
REMARK VINA RESULT:     -10.0      1.065      2.189
REMARK  Name = 25052630
REMARK  6 active torsions:
REMARK  status: ('A' for Active; 'I' for Inactive)
REMARK    1  A    between atoms: N_2  and  C_11
REMARK    2  A    between atoms: C_4  and  C_20
REMARK    3  A    between atoms: C_20  and  C_21
REMARK    4  A    between atoms: C_21  and  N_22
REMARK    5  A    between atoms: N_22  and  C_25
REMARK    6  A    between atoms: C_25  and  C_26
REMARK                            x       y       z     vdW  Elec       q    Type
REMARK                         _______ _______ _______ _____ _____    ______ ____
ROOT
ATOM      1  S   UNL     1      36.401 -26.957 -14.525  0.00  0.00    -0.018 S 
ATOM      2  N   UNL     1      36.474 -24.204 -15.030  0.00  0.00    -0.270 N 
ATOM      3  N   UNL     1      38.467 -25.248 -15.027  0.00  0.00    -0.294 N 
ATOM      4  C   UNL     1      37.486 -23.282 -15.291  0.00  0.00    +0.043 C 
ATOM      5  C   UNL     1      37.083 -25.481 -14.856  0.00  0.00    +0.142 C 
ATOM      6  C   UNL     1      38.668 -23.918 -15.286  0.00  0.00    +0.074 C 
ATOM      7  H   UNL     1      39.173 -25.932 -14.968  0.00  0.00    +0.154 HD
ENDROOT
BRANCH   2  11
ATOM      8  F   UNL     1      30.353 -23.380 -16.386  0.00  0.00    -0.201 F 
ATOM      9  F   UNL     1      29.871 -25.178 -12.040  0.00  0.00    -0.204 F 
ATOM     10  O   UNL     1      33.019 -23.636 -16.276  0.00  0.00    -0.472 OA
ATOM     11  C   UNL     1      35.075 -23.870 -14.958  0.00  0.00    +0.127 C 
ATOM     12  C   UNL     1      34.362 -24.699 -13.892  0.00  0.00    +0.054 C 
ATOM     13  C   UNL     1      34.377 -24.089 -16.297  0.00  0.00    +0.226 C 
ATOM     14  C   UNL     1      32.873 -24.546 -14.014  0.00  0.00    +0.018 C 
ATOM     15  C   UNL     1      32.294 -24.042 -15.186  0.00  0.00    +0.162 C 
ATOM     16  C   UNL     1      32.042 -24.937 -12.956  0.00  0.00    +0.029 C 
ATOM     17  C   UNL     1      30.907 -23.894 -15.280  0.00  0.00    +0.176 C 
ATOM     18  C   UNL     1      30.657 -24.801 -13.057  0.00  0.00    +0.142 C 
ATOM     19  C   UNL     1      30.091 -24.276 -14.216  0.00  0.00    +0.062 C 
ENDBRANCH   2  11
BRANCH   4  20
ATOM     20  C   UNL     1      37.224 -21.842 -15.527  0.00  0.00    +0.019 C 
BRANCH  20  21
ATOM     21  C   UNL     1      37.521 -21.447 -16.974  0.00  0.00    -0.075 C 
BRANCH  21  22
ATOM     22  N   UNL     1      36.832 -22.340 -17.899  0.00  0.00    +0.387 N 
ATOM     23  H   UNL     1      35.874 -22.476 -17.580  0.00  0.00    -0.084 HD
ATOM     24  H   UNL     1      37.329 -23.230 -17.925  0.00  0.00    -0.084 HD
BRANCH  22  25
ATOM     25  C   UNL     1      36.813 -21.779 -19.243  0.00  0.00    -0.054 C 
BRANCH  25  26
ATOM     26  C   UNL     1      35.430 -21.340 -19.647  0.00  0.00    -0.044 C 
ATOM     27  C   UNL     1      34.311 -21.917 -19.045  0.00  0.00    -0.006 C 
ATOM     28  C   UNL     1      35.268 -20.357 -20.622  0.00  0.00    -0.006 C 
ATOM     29  C   UNL     1      33.031 -21.510 -19.419  0.00  0.00    -0.000 C 
ATOM     30  C   UNL     1      33.987 -19.950 -20.996  0.00  0.00    -0.000 C 
ATOM     31  C   UNL     1      32.869 -20.527 -20.394  0.00  0.00    -0.000 C 
ENDBRANCH  25  26
ENDBRANCH  22  25
ENDBRANCH  21  22
ENDBRANCH  20  21
ENDBRANCH   4  20
TORSDOF 6
ENDMDL
MODEL 5
REMARK VINA RESULT:      -9.5      6.476      9.289
REMARK  Name = 25052630
REMARK  6 active torsions:
REMARK  status: ('A' for Active; 'I' for Inactive)
REMARK    1  A    between atoms: N_2  and  C_11
REMARK    2  A    between atoms: C_4  and  C_20
REMARK    3  A    between atoms: C_20  and  C_21
REMARK    4  A    between atoms: C_21  and  N_22
REMARK    5  A    between atoms: N_22  and  C_25
REMARK    6  A    between atoms: C_25  and  C_26
REMARK                            x       y       z     vdW  Elec       q    Type
REMARK                         _______ _______ _______ _____ _____    ______ ____
ROOT
ATOM      1  S   UNL     1      34.960 -20.131 -24.266  0.00  0.00    -0.018 S 
ATOM      2  N   UNL     1      34.782 -18.209 -22.239  0.00  0.00    -0.270 N 
ATOM      3  N   UNL     1      35.086 -17.408 -24.319  0.00  0.00    -0.294 N 
ATOM      4  C   UNL     1      34.837 -16.817 -22.202  0.00  0.00    +0.043 C 
ATOM      5  C   UNL     1      34.939 -18.614 -23.596  0.00  0.00    +0.142 C 
ATOM      6  C   UNL     1      35.018 -16.353 -23.448  0.00  0.00    +0.074 C 
ATOM      7  H   UNL     1      35.215 -17.337 -25.293  0.00  0.00    +0.154 HD
ENDROOT
BRANCH   2  11
ATOM      8  F   UNL     1      32.874 -22.739 -18.262  0.00  0.00    -0.201 F 
ATOM      9  F   UNL     1      37.492 -22.817 -17.249  0.00  0.00    -0.204 F 
ATOM     10  O   UNL     1      33.241 -20.853 -20.131  0.00  0.00    -0.472 OA
ATOM     11  C   UNL     1      34.596 -19.042 -21.079  0.00  0.00    +0.127 C 
ATOM     12  C   UNL     1      35.898 -19.734 -20.682  0.00  0.00    +0.054 C 
ATOM     13  C   UNL     1      33.529 -20.105 -21.317  0.00  0.00    +0.226 C 
ATOM     14  C   UNL     1      35.637 -20.801 -19.657  0.00  0.00    +0.018 C 
ATOM     15  C   UNL     1      34.344 -21.300 -19.451  0.00  0.00    +0.162 C 
ATOM     16  C   UNL     1      36.699 -21.328 -18.912  0.00  0.00    +0.029 C 
ATOM     17  C   UNL     1      34.114 -22.284 -18.485  0.00  0.00    +0.176 C 
ATOM     18  C   UNL     1      36.469 -22.320 -17.957  0.00  0.00    +0.142 C 
ATOM     19  C   UNL     1      35.177 -22.793 -17.741  0.00  0.00    +0.062 C 
ENDBRANCH   2  11
BRANCH   4  20
ATOM     20  C   UNL     1      34.708 -16.038 -20.946  0.00  0.00    +0.019 C 
BRANCH  20  21
ATOM     21  C   UNL     1      34.197 -14.622 -21.214  0.00  0.00    -0.075 C 
BRANCH  21  22
ATOM     22  N   UNL     1      32.739 -14.606 -21.266  0.00  0.00    +0.387 N 
ATOM     23  H   UNL     1      32.371 -14.584 -20.315  0.00  0.00    -0.084 HD
ATOM     24  H   UNL     1      32.421 -15.445 -21.751  0.00  0.00    -0.084 HD
BRANCH  22  25
ATOM     25  C   UNL     1      32.259 -13.439 -21.992  0.00  0.00    -0.054 C 
BRANCH  25  26
ATOM     26  C   UNL     1      31.961 -12.288 -21.068  0.00  0.00    -0.044 C 
ATOM     27  C   UNL     1      31.707 -12.526 -19.717  0.00  0.00    -0.006 C 
ATOM     28  C   UNL     1      31.942 -10.984 -21.563  0.00  0.00    -0.006 C 
ATOM     29  C   UNL     1      31.432 -11.459 -18.861  0.00  0.00    -0.000 C 
ATOM     30  C   UNL     1      31.667  -9.917 -20.706  0.00  0.00    -0.000 C 
ATOM     31  C   UNL     1      31.413 -10.155 -19.355  0.00  0.00    -0.000 C 
ENDBRANCH  25  26
ENDBRANCH  22  25
ENDBRANCH  21  22
ENDBRANCH  20  21
ENDBRANCH   4  20
TORSDOF 6
ENDMDL
MODEL 6
REMARK VINA RESULT:      -9.4      2.646      5.508
REMARK  Name = 25052630
REMARK  6 active torsions:
REMARK  status: ('A' for Active; 'I' for Inactive)
REMARK    1  A    between atoms: N_2  and  C_11
REMARK    2  A    between atoms: C_4  and  C_20
REMARK    3  A    between atoms: C_20  and  C_21
REMARK    4  A    between atoms: C_21  and  N_22
REMARK    5  A    between atoms: N_22  and  C_25
REMARK    6  A    between atoms: C_25  and  C_26
REMARK                            x       y       z     vdW  Elec       q    Type
REMARK                         _______ _______ _______ _____ _____    ______ ____
ROOT
ATOM      1  S   UNL     1      39.756 -25.540 -14.798  0.00  0.00    -0.018 S 
ATOM      2  N   UNL     1      37.460 -24.394 -13.676  0.00  0.00    -0.270 N 
ATOM      3  N   UNL     1      38.499 -25.938 -12.411  0.00  0.00    -0.294 N 
ATOM      4  C   UNL     1      36.774 -24.553 -12.473  0.00  0.00    +0.043 C 
ATOM      5  C   UNL     1      38.578 -25.278 -13.658  0.00  0.00    +0.142 C 
ATOM      6  C   UNL     1      37.404 -25.476 -11.729  0.00  0.00    +0.074 C 
ATOM      7  H   UNL     1      39.128 -26.621 -12.084  0.00  0.00    +0.154 HD
ENDROOT
BRANCH   2  11
ATOM      8  F   UNL     1      37.319 -20.860 -18.917  0.00  0.00    -0.201 F 
ATOM      9  F   UNL     1      32.910 -22.558 -19.099  0.00  0.00    -0.204 F 
ATOM     10  O   UNL     1      37.852 -22.274 -16.703  0.00  0.00    -0.472 OA
ATOM     11  C   UNL     1      37.065 -23.483 -14.719  0.00  0.00    +0.127 C 
ATOM     12  C   UNL     1      35.822 -23.984 -15.448  0.00  0.00    +0.054 C 
ATOM     13  C   UNL     1      38.182 -23.278 -15.737  0.00  0.00    +0.226 C 
ATOM     14  C   UNL     1      35.583 -23.181 -16.696  0.00  0.00    +0.018 C 
ATOM     15  C   UNL     1      36.601 -22.393 -17.250  0.00  0.00    +0.162 C 
ATOM     16  C   UNL     1      34.338 -23.238 -17.335  0.00  0.00    +0.029 C 
ATOM     17  C   UNL     1      36.360 -21.642 -18.404  0.00  0.00    +0.176 C 
ATOM     18  C   UNL     1      34.104 -22.497 -18.495  0.00  0.00    +0.142 C 
ATOM     19  C   UNL     1      35.113 -21.697 -19.026  0.00  0.00    +0.062 C 
ENDBRANCH   2  11
BRANCH   4  20
ATOM     20  C   UNL     1      35.549 -23.789 -12.137  0.00  0.00    +0.019 C 
BRANCH  20  21
ATOM     21  C   UNL     1      34.305 -24.676 -12.176  0.00  0.00    -0.075 C 
BRANCH  21  22
ATOM     22  N   UNL     1      33.327 -24.145 -13.120  0.00  0.00    +0.387 N 
ATOM     23  H   UNL     1      33.797 -23.923 -13.997  0.00  0.00    -0.084 HD
ATOM     24  H   UNL     1      32.909 -23.307 -12.718  0.00  0.00    -0.084 HD
BRANCH  22  25
ATOM     25  C   UNL     1      32.273 -25.116 -13.375  0.00  0.00    -0.054 C 
BRANCH  25  26
ATOM     26  C   UNL     1      31.232 -24.578 -14.320  0.00  0.00    -0.044 C 
ATOM     27  C   UNL     1      29.943 -25.114 -14.318  0.00  0.00    -0.006 C 
ATOM     28  C   UNL     1      31.554 -23.542 -15.196  0.00  0.00    -0.006 C 
ATOM     29  C   UNL     1      28.979 -24.615 -15.192  0.00  0.00    -0.000 C 
ATOM     30  C   UNL     1      30.588 -23.043 -16.071  0.00  0.00    -0.000 C 
ATOM     31  C   UNL     1      29.301 -23.580 -16.069  0.00  0.00    -0.000 C 
ENDBRANCH  25  26
ENDBRANCH  22  25
ENDBRANCH  21  22
ENDBRANCH  20  21
ENDBRANCH   4  20
TORSDOF 6
ENDMDL
MODEL 7
REMARK VINA RESULT:      -9.3      3.439      6.750
REMARK  Name = 25052630
REMARK  6 active torsions:
REMARK  status: ('A' for Active; 'I' for Inactive)
REMARK    1  A    between atoms: N_2  and  C_11
REMARK    2  A    between atoms: C_4  and  C_20
REMARK    3  A    between atoms: C_20  and  C_21
REMARK    4  A    between atoms: C_21  and  N_22
REMARK    5  A    between atoms: N_22  and  C_25
REMARK    6  A    between atoms: C_25  and  C_26
REMARK                            x       y       z     vdW  Elec       q    Type
REMARK                         _______ _______ _______ _____ _____    ______ ____
ROOT
ATOM      1  S   UNL     1      29.720 -23.176 -16.110  0.00  0.00    -0.018 S 
ATOM      2  N   UNL     1      32.161 -24.019 -15.029  0.00  0.00    -0.270 N 
ATOM      3  N   UNL     1      30.321 -24.943 -14.122  0.00  0.00    -0.294 N 
ATOM      4  C   UNL     1      32.531 -24.909 -14.023  0.00  0.00    +0.043 C 
ATOM      5  C   UNL     1      30.738 -24.024 -15.112  0.00  0.00    +0.142 C 
ATOM      6  C   UNL     1      31.425 -25.452 -13.491  0.00  0.00    +0.074 C 
ATOM      7  H   UNL     1      29.387 -25.178 -13.918  0.00  0.00    +0.154 HD
ENDROOT
BRANCH   2  11
ATOM      8  F   UNL     1      37.213 -22.162 -18.348  0.00  0.00    -0.201 F 
ATOM      9  F   UNL     1      33.841 -20.500 -21.216  0.00  0.00    -0.204 F 
ATOM     10  O   UNL     1      35.387 -23.203 -16.684  0.00  0.00    -0.472 OA
ATOM     11  C   UNL     1      33.094 -23.253 -15.816  0.00  0.00    +0.127 C 
ATOM     12  C   UNL     1      32.509 -22.907 -17.183  0.00  0.00    +0.054 C 
ATOM     13  C   UNL     1      34.405 -24.005 -16.019  0.00  0.00    +0.226 C 
ATOM     14  C   UNL     1      33.576 -22.357 -18.088  0.00  0.00    +0.018 C 
ATOM     15  C   UNL     1      34.934 -22.544 -17.797  0.00  0.00    +0.162 C 
ATOM     16  C   UNL     1      33.215 -21.670 -19.254  0.00  0.00    +0.029 C 
ATOM     17  C   UNL     1      35.914 -22.015 -18.641  0.00  0.00    +0.176 C 
ATOM     18  C   UNL     1      34.196 -21.155 -20.103  0.00  0.00    +0.142 C 
ATOM     19  C   UNL     1      35.544 -21.324 -19.794  0.00  0.00    +0.062 C 
ENDBRANCH   2  11
BRANCH   4  20
ATOM     20  C   UNL     1      33.944 -25.166 -13.654  0.00  0.00    +0.019 C 
BRANCH  20  21
ATOM     21  C   UNL     1      34.250 -24.685 -12.236  0.00  0.00    -0.075 C 
BRANCH  21  22
ATOM     22  N   UNL     1      35.248 -23.621 -12.260  0.00  0.00    +0.387 N 
ATOM     23  H   UNL     1      34.887 -22.814 -11.751  0.00  0.00    -0.084 HD
ATOM     24  H   UNL     1      35.436 -23.374 -13.231  0.00  0.00    -0.084 HD
BRANCH  22  25
ATOM     25  C   UNL     1      36.490 -24.061 -11.642  0.00  0.00    -0.054 C 
BRANCH  25  26
ATOM     26  C   UNL     1      37.477 -24.563 -12.661  0.00  0.00    -0.044 C 
ATOM     27  C   UNL     1      38.348 -25.604 -12.335  0.00  0.00    -0.006 C 
ATOM     28  C   UNL     1      37.520 -23.991 -13.932  0.00  0.00    -0.006 C 
ATOM     29  C   UNL     1      39.262 -26.070 -13.279  0.00  0.00    -0.000 C 
ATOM     30  C   UNL     1      38.435 -24.458 -14.877  0.00  0.00    -0.000 C 
ATOM     31  C   UNL     1      39.305 -25.497 -14.550  0.00  0.00    -0.000 C 
ENDBRANCH  25  26
ENDBRANCH  22  25
ENDBRANCH  21  22
ENDBRANCH  20  21
ENDBRANCH   4  20
TORSDOF 6
ENDMDL
MODEL 8
REMARK VINA RESULT:      -9.2      9.291     12.870
REMARK  Name = 25052630
REMARK  6 active torsions:
REMARK  status: ('A' for Active; 'I' for Inactive)
REMARK    1  A    between atoms: N_2  and  C_11
REMARK    2  A    between atoms: C_4  and  C_20
REMARK    3  A    between atoms: C_20  and  C_21
REMARK    4  A    between atoms: C_21  and  N_22
REMARK    5  A    between atoms: N_22  and  C_25
REMARK    6  A    between atoms: C_25  and  C_26
REMARK                            x       y       z     vdW  Elec       q    Type
REMARK                         _______ _______ _______ _____ _____    ______ ____
ROOT
ATOM      1  S   UNL     1      33.836 -13.888 -26.883  0.00  0.00    -0.018 S 
ATOM      2  N   UNL     1      33.792 -14.003 -24.086  0.00  0.00    -0.270 N 
ATOM      3  N   UNL     1      33.772 -11.938 -24.978  0.00  0.00    -0.294 N 
ATOM      4  C   UNL     1      33.759 -13.053 -23.067  0.00  0.00    +0.043 C 
ATOM      5  C   UNL     1      33.801 -13.307 -25.329  0.00  0.00    +0.142 C 
ATOM      6  C   UNL     1      33.748 -11.827 -23.613  0.00  0.00    +0.074 C 
ATOM      7  H   UNL     1      33.771 -11.185 -25.612  0.00  0.00    +0.154 HD
ENDROOT
BRANCH   2  11
ATOM      8  F   UNL     1      34.536 -20.244 -24.781  0.00  0.00    -0.201 F 
ATOM      9  F   UNL     1      36.304 -19.810 -20.417  0.00  0.00    -0.204 F 
ATOM     10  O   UNL     1      34.123 -17.601 -24.956  0.00  0.00    -0.472 OA
ATOM     11  C   UNL     1      33.813 -15.426 -23.865  0.00  0.00    +0.127 C 
ATOM     12  C   UNL     1      34.770 -15.796 -22.734  0.00  0.00    +0.054 C 
ATOM     13  C   UNL     1      34.226 -16.183 -25.123  0.00  0.00    +0.226 C 
ATOM     14  C   UNL     1      34.993 -17.281 -22.696  0.00  0.00    +0.018 C 
ATOM     15  C   UNL     1      34.672 -18.085 -23.797  0.00  0.00    +0.162 C 
ATOM     16  C   UNL     1      35.554 -17.874 -21.557  0.00  0.00    +0.029 C 
ATOM     17  C   UNL     1      34.874 -19.467 -23.742  0.00  0.00    +0.176 C 
ATOM     18  C   UNL     1      35.767 -19.252 -21.510  0.00  0.00    +0.142 C 
ATOM     19  C   UNL     1      35.422 -20.048 -22.600  0.00  0.00    +0.062 C 
ENDBRANCH   2  11
BRANCH   4  20
ATOM     20  C   UNL     1      33.741 -13.413 -21.629  0.00  0.00    +0.019 C 
BRANCH  20  21
ATOM     21  C   UNL     1      32.313 -13.562 -21.105  0.00  0.00    -0.075 C 
BRANCH  21  22
ATOM     22  N   UNL     1      31.964 -12.439 -20.243  0.00  0.00    +0.387 N 
ATOM     23  H   UNL     1      32.813 -11.929 -20.000  0.00  0.00    -0.084 HD
ATOM     24  H   UNL     1      31.514 -12.801 -19.402  0.00  0.00    -0.084 HD
BRANCH  22  25
ATOM     25  C   UNL     1      31.039 -11.537 -20.914  0.00  0.00    -0.054 C 
BRANCH  25  26
ATOM     26  C   UNL     1      31.577 -10.133 -20.985  0.00  0.00    -0.044 C 
ATOM     27  C   UNL     1      31.600  -9.456 -22.206  0.00  0.00    -0.006 C 
ATOM     28  C   UNL     1      32.051  -9.509 -19.832  0.00  0.00    -0.006 C 
ATOM     29  C   UNL     1      32.097  -8.155 -22.271  0.00  0.00    -0.000 C 
ATOM     30  C   UNL     1      32.549  -8.206 -19.899  0.00  0.00    -0.000 C 
ATOM     31  C   UNL     1      32.572  -7.530 -21.119  0.00  0.00    -0.000 C 
ENDBRANCH  25  26
ENDBRANCH  22  25
ENDBRANCH  21  22
ENDBRANCH  20  21
ENDBRANCH   4  20
TORSDOF 6
ENDMDL
MODEL 9
REMARK VINA RESULT:      -9.1      1.903      2.837
REMARK  Name = 25052630
REMARK  6 active torsions:
REMARK  status: ('A' for Active; 'I' for Inactive)
REMARK    1  A    between atoms: N_2  and  C_11
REMARK    2  A    between atoms: C_4  and  C_20
REMARK    3  A    between atoms: C_20  and  C_21
REMARK    4  A    between atoms: C_21  and  N_22
REMARK    5  A    between atoms: N_22  and  C_25
REMARK    6  A    between atoms: C_25  and  C_26
REMARK                            x       y       z     vdW  Elec       q    Type
REMARK                         _______ _______ _______ _____ _____    ______ ____
ROOT
ATOM      1  S   UNL     1      37.012 -23.754 -13.707  0.00  0.00    -0.018 S 
ATOM      2  N   UNL     1      35.503 -23.207 -16.001  0.00  0.00    -0.270 N 
ATOM      3  N   UNL     1      37.595 -22.378 -15.989  0.00  0.00    -0.294 N 
ATOM      4  C   UNL     1      35.741 -22.517 -17.188  0.00  0.00    +0.043 C 
ATOM      5  C   UNL     1      36.686 -23.131 -15.210  0.00  0.00    +0.142 C 
ATOM      6  C   UNL     1      36.991 -22.029 -17.167  0.00  0.00    +0.074 C 
ATOM      7  H   UNL     1      38.514 -22.142 -15.726  0.00  0.00    +0.154 HD
ENDROOT
BRANCH   2  11
ATOM      8  F   UNL     1      30.599 -25.750 -12.924  0.00  0.00    -0.201 F 
ATOM      9  F   UNL     1      28.197 -23.419 -16.265  0.00  0.00    -0.204 F 
ATOM     10  O   UNL     1      32.936 -24.822 -13.853  0.00  0.00    -0.472 OA
ATOM     11  C   UNL     1      34.261 -23.862 -15.680  0.00  0.00    +0.127 C 
ATOM     12  C   UNL     1      33.067 -23.069 -16.204  0.00  0.00    +0.054 C 
ATOM     13  C   UNL     1      34.101 -24.055 -14.176  0.00  0.00    +0.226 C 
ATOM     14  C   UNL     1      31.785 -23.607 -15.632  0.00  0.00    +0.018 C 
ATOM     15  C   UNL     1      31.792 -24.431 -14.499  0.00  0.00    +0.162 C 
ATOM     16  C   UNL     1      30.560 -23.262 -16.219  0.00  0.00    +0.029 C 
ATOM     17  C   UNL     1      30.593 -24.934 -13.987  0.00  0.00    +0.176 C 
ATOM     18  C   UNL     1      29.364 -23.755 -15.697  0.00  0.00    +0.142 C 
ATOM     19  C   UNL     1      29.381 -24.594 -14.585  0.00  0.00    +0.062 C 
ENDBRANCH   2  11
BRANCH   4  20
ATOM     20  C   UNL     1      34.726 -22.386 -18.261  0.00  0.00    +0.019 C 
BRANCH  20  21
ATOM     21  C   UNL     1      35.335 -22.623 -19.643  0.00  0.00    -0.075 C 
BRANCH  21  22
ATOM     22  N   UNL     1      35.755 -21.361 -20.241  0.00  0.00    +0.387 N 
ATOM     23  H   UNL     1      36.074 -21.533 -21.194  0.00  0.00    -0.084 HD
ATOM     24  H   UNL     1      36.509 -20.969 -19.678  0.00  0.00    -0.084 HD
BRANCH  22  25
ATOM     25  C   UNL     1      34.653 -20.409 -20.270  0.00  0.00    -0.054 C 
BRANCH  25  26
ATOM     26  C   UNL     1      34.818 -19.394 -21.370  0.00  0.00    -0.044 C 
ATOM     27  C   UNL     1      34.985 -18.045 -21.053  0.00  0.00    -0.006 C 
ATOM     28  C   UNL     1      34.806 -19.802 -22.703  0.00  0.00    -0.006 C 
ATOM     29  C   UNL     1      35.139 -17.105 -22.072  0.00  0.00    -0.000 C 
ATOM     30  C   UNL     1      34.960 -18.860 -23.721  0.00  0.00    -0.000 C 
ATOM     31  C   UNL     1      35.127 -17.512 -23.405  0.00  0.00    -0.000 C 
ENDBRANCH  25  26
ENDBRANCH  22  25
ENDBRANCH  21  22
ENDBRANCH  20  21
ENDBRANCH   4  20
TORSDOF 6
ENDMDL
