MODEL 1
REMARK VINA RESULT:     -11.8      0.000      0.000
REMARK  Name = 11633167
REMARK  7 active torsions:
REMARK  status: ('A' for Active; 'I' for Inactive)
REMARK    1  A    between atoms: C_1  and  C_8
REMARK    2  A    between atoms: C_2  and  C_25
REMARK    3  A    between atoms: C_4  and  O_17
REMARK    4  A    between atoms: O_17  and  C_18
REMARK    5  A    between atoms: C_18  and  C_20
REMARK    6  A    between atoms: C_25  and  N_26
REMARK    7  A    between atoms: N_26  and  C_29
REMARK                            x       y       z     vdW  Elec       q    Type
REMARK                         _______ _______ _______ _____ _____    ______ ____
ROOT
ATOM      1  C   UNL     1      34.579 -22.220 -18.281  0.00  0.00    -0.000 C 
ATOM      2  C   UNL     1      35.629 -23.109 -16.296  0.00  0.00    +0.031 C 
ATOM      3  C   UNL     1      35.658 -22.255 -17.399  0.00  0.00    +0.000 C 
ATOM      4  C   UNL     1      34.522 -23.928 -16.077  0.00  0.00    +0.137 C 
ATOM      5  C   UNL     1      33.471 -23.038 -18.062  0.00  0.00    +0.003 C 
ATOM      6  C   UNL     1      33.442 -23.892 -16.959  0.00  0.00    +0.037 C 
ENDROOT
BRANCH   1   8
ATOM      7  N   UNL     1      36.850 -19.332 -21.621  0.00  0.00    -0.312 N 
ATOM      8  C   UNL     1      34.608 -21.334 -19.425  0.00  0.00    +0.001 C 
ATOM      9  C   UNL     1      35.816 -19.972 -20.976  0.00  0.00    +0.048 C 
ATOM     10  C   UNL     1      34.638 -19.623 -21.642  0.00  0.00    +0.015 C 
ATOM     11  C   UNL     1      35.832 -20.824 -19.867  0.00  0.00    +0.015 C 
ATOM     12  C   UNL     1      33.418 -21.004 -20.069  0.00  0.00    +0.000 C 
ATOM     13  C   UNL     1      33.416 -20.150 -21.178  0.00  0.00    +0.001 C 
ATOM     14  C   UNL     1      35.002 -18.754 -22.708  0.00  0.00    +0.017 C 
ATOM     15  C   UNL     1      36.369 -18.593 -22.669  0.00  0.00    +0.062 C 
ATOM     16  H   UNL     1      37.799 -19.395 -21.366  0.00  0.00    +0.152 HD
ENDBRANCH   1   8
BRANCH   4  17
ATOM     17  O   UNL     1      34.477 -24.768 -15.005  0.00  0.00    -0.469 OA
BRANCH  17  18
ATOM     18  C   UNL     1      33.866 -24.271 -13.817  0.00  0.00    +0.251 C 
BRANCH  18  20
ATOM     19  N   UNL     1      31.862 -25.628 -13.882  0.00  0.00    -0.244 NA
ATOM     20  C   UNL     1      32.376 -24.383 -13.948  0.00  0.00    +0.103 C 
ATOM     21  C   UNL     1      31.629 -23.235 -14.125  0.00  0.00    +0.018 C 
ATOM     22  C   UNL     1      30.251 -23.373 -14.243  0.00  0.00    +0.003 C 
ATOM     23  C   UNL     1      30.520 -25.723 -14.000  0.00  0.00    +0.099 C 
ATOM     24  C   UNL     1      29.677 -24.638 -14.180  0.00  0.00    +0.021 C 
ENDBRANCH  18  20
ENDBRANCH  17  18
ENDBRANCH   4  17
BRANCH   2  25
ATOM     25  C   UNL     1      36.793 -23.134 -15.361  0.00  0.00    +0.117 C 
BRANCH  25  26
ATOM     26  N   UNL     1      37.455 -24.439 -15.332  0.00  0.00    -0.327 N 
ATOM     27  H   UNL     1      37.892 -24.762 -16.153  0.00  0.00    +0.147 HD
BRANCH  26  29
ATOM     28  N   UNL     1      37.152 -27.404 -13.134  0.00  0.00    -0.228 NA
ATOM     29  C   UNL     1      37.494 -25.236 -14.212  0.00  0.00    +0.077 C 
ATOM     30  C   UNL     1      37.127 -26.590 -14.213  0.00  0.00    +0.139 C 
ATOM     31  C   UNL     1      37.916 -24.720 -12.973  0.00  0.00    +0.019 C 
ATOM     32  C   UNL     1      37.956 -25.526 -11.840  0.00  0.00    +0.022 C 
ATOM     33  C   UNL     1      37.567 -26.850 -11.973  0.00  0.00    +0.100 C 
ATOM     34  N   UNL     1      36.696 -27.143 -15.445  0.00  0.00    -0.342 N 
ATOM     35  H   UNL     1      36.429 -28.089 -15.493  0.00  0.00    +0.144 HD
ATOM     36  H   UNL     1      36.664 -26.580 -16.253  0.00  0.00    +0.144 HD
ENDBRANCH  26  29
ENDBRANCH  25  26
ENDBRANCH   2  25
TORSDOF 7
ENDMDL
MODEL 2
REMARK VINA RESULT:     -11.8      1.803      5.158
REMARK  Name = 11633167
REMARK  7 active torsions:
REMARK  status: ('A' for Active; 'I' for Inactive)
REMARK    1  A    between atoms: C_1  and  C_8
REMARK    2  A    between atoms: C_2  and  C_25
REMARK    3  A    between atoms: C_4  and  O_17
REMARK    4  A    between atoms: O_17  and  C_18
REMARK    5  A    between atoms: C_18  and  C_20
REMARK    6  A    between atoms: C_25  and  N_26
REMARK    7  A    between atoms: N_26  and  C_29
REMARK                            x       y       z     vdW  Elec       q    Type
REMARK                         _______ _______ _______ _____ _____    ______ ____
ROOT
ATOM      1  C   UNL     1      35.262 -20.547 -20.306  0.00  0.00    -0.000 C 
ATOM      2  C   UNL     1      34.295 -22.082 -18.712  0.00  0.00    +0.031 C 
ATOM      3  C   UNL     1      34.148 -21.206 -19.789  0.00  0.00    +0.000 C 
ATOM      4  C   UNL     1      35.555 -22.296 -18.155  0.00  0.00    +0.137 C 
ATOM      5  C   UNL     1      36.522 -20.760 -19.749  0.00  0.00    +0.003 C 
ATOM      6  C   UNL     1      36.669 -21.637 -18.673  0.00  0.00    +0.037 C 
ENDROOT
BRANCH   1   8
ATOM      7  N   UNL     1      35.050 -16.042 -22.386  0.00  0.00    -0.312 N 
ATOM      8  C   UNL     1      35.110 -19.637 -21.422  0.00  0.00    +0.001 C 
ATOM      9  C   UNL     1      35.028 -17.416 -22.305  0.00  0.00    +0.048 C 
ATOM     10  C   UNL     1      34.814 -17.899 -23.599  0.00  0.00    +0.015 C 
ATOM     11  C   UNL     1      35.180 -18.259 -21.199  0.00  0.00    +0.015 C 
ATOM     12  C   UNL     1      34.898 -20.148 -22.701  0.00  0.00    +0.000 C 
ATOM     13  C   UNL     1      34.748 -19.293 -23.799  0.00  0.00    +0.001 C 
ATOM     14  C   UNL     1      34.711 -16.769 -24.456  0.00  0.00    +0.017 C 
ATOM     15  C   UNL     1      34.859 -15.641 -23.681  0.00  0.00    +0.062 C 
ATOM     16  H   UNL     1      35.184 -15.434 -21.623  0.00  0.00    +0.152 HD
ENDBRANCH   1   8
BRANCH   4  17
ATOM     17  O   UNL     1      35.716 -23.148 -17.104  0.00  0.00    -0.469 OA
BRANCH  17  18
ATOM     18  C   UNL     1      36.637 -22.757 -16.088  0.00  0.00    +0.251 C 
BRANCH  18  20
ATOM     19  N   UNL     1      36.030 -24.820 -14.976  0.00  0.00    -0.244 NA
ATOM     20  C   UNL     1      37.025 -23.964 -15.287  0.00  0.00    +0.103 C 
ATOM     21  C   UNL     1      38.347 -24.132 -14.921  0.00  0.00    +0.018 C 
ATOM     22  C   UNL     1      38.673 -25.261 -14.180  0.00  0.00    +0.003 C 
ATOM     23  C   UNL     1      36.385 -25.906 -14.254  0.00  0.00    +0.099 C 
ATOM     24  C   UNL     1      37.679 -26.171 -13.836  0.00  0.00    +0.021 C 
ENDBRANCH  18  20
ENDBRANCH  17  18
ENDBRANCH   4  17
BRANCH   2  25
ATOM     25  C   UNL     1      33.092 -22.781 -18.170  0.00  0.00    +0.117 C 
BRANCH  25  26
ATOM     26  N   UNL     1      33.234 -23.110 -16.752  0.00  0.00    -0.327 N 
ATOM     27  H   UNL     1      34.139 -23.245 -16.388  0.00  0.00    +0.147 HD
BRANCH  26  29
ATOM     28  N   UNL     1      31.262 -23.571 -13.650  0.00  0.00    -0.228 NA
ATOM     29  C   UNL     1      32.161 -23.241 -15.901  0.00  0.00    +0.077 C 
ATOM     30  C   UNL     1      32.290 -23.438 -14.517  0.00  0.00    +0.139 C 
ATOM     31  C   UNL     1      30.842 -23.183 -16.387  0.00  0.00    +0.019 C 
ATOM     32  C   UNL     1      29.757 -23.316 -15.526  0.00  0.00    +0.022 C 
ATOM     33  C   UNL     1      30.019 -23.506 -14.178  0.00  0.00    +0.100 C 
ATOM     34  N   UNL     1      33.606 -23.502 -13.993  0.00  0.00    -0.342 N 
ATOM     35  H   UNL     1      33.745 -23.639 -13.029  0.00  0.00    +0.144 HD
ATOM     36  H   UNL     1      34.381 -23.410 -14.595  0.00  0.00    +0.144 HD
ENDBRANCH  26  29
ENDBRANCH  25  26
ENDBRANCH   2  25
TORSDOF 7
ENDMDL
MODEL 3
REMARK VINA RESULT:     -11.4      1.059      1.542
REMARK  Name = 11633167
REMARK  7 active torsions:
REMARK  status: ('A' for Active; 'I' for Inactive)
REMARK    1  A    between atoms: C_1  and  C_8
REMARK    2  A    between atoms: C_2  and  C_25
REMARK    3  A    between atoms: C_4  and  O_17
REMARK    4  A    between atoms: O_17  and  C_18
REMARK    5  A    between atoms: C_18  and  C_20
REMARK    6  A    between atoms: C_25  and  N_26
REMARK    7  A    between atoms: N_26  and  C_29
REMARK                            x       y       z     vdW  Elec       q    Type
REMARK                         _______ _______ _______ _____ _____    ______ ____
ROOT
ATOM      1  C   UNL     1      35.007 -21.747 -18.838  0.00  0.00    -0.000 C 
ATOM      2  C   UNL     1      35.604 -22.879 -16.790  0.00  0.00    +0.031 C 
ATOM      3  C   UNL     1      35.938 -22.017 -17.836  0.00  0.00    +0.000 C 
ATOM      4  C   UNL     1      34.341 -23.468 -16.749  0.00  0.00    +0.137 C 
ATOM      5  C   UNL     1      33.744 -22.336 -18.797  0.00  0.00    +0.003 C 
ATOM      6  C   UNL     1      33.410 -23.196 -17.751  0.00  0.00    +0.037 C 
ENDROOT
BRANCH   1   8
ATOM      7  N   UNL     1      34.087 -19.310 -23.067  0.00  0.00    -0.312 N 
ATOM      8  C   UNL     1      35.352 -20.853 -19.924  0.00  0.00    +0.001 C 
ATOM      9  C   UNL     1      34.790 -19.734 -21.962  0.00  0.00    +0.048 C 
ATOM     10  C   UNL     1      36.044 -19.120 -22.012  0.00  0.00    +0.015 C 
ATOM     11  C   UNL     1      34.416 -20.603 -20.931  0.00  0.00    +0.015 C 
ATOM     12  C   UNL     1      36.610 -20.255 -19.948  0.00  0.00    +0.000 C 
ATOM     13  C   UNL     1      36.971 -19.387 -20.985  0.00  0.00    +0.001 C 
ATOM     14  C   UNL     1      36.068 -18.313 -23.184  0.00  0.00    +0.017 C 
ATOM     15  C   UNL     1      34.851 -18.452 -23.812  0.00  0.00    +0.062 C 
ATOM     16  H   UNL     1      33.168 -19.584 -23.290  0.00  0.00    +0.152 HD
ENDBRANCH   1   8
BRANCH   4  17
ATOM     17  O   UNL     1      33.999 -24.312 -15.735  0.00  0.00    -0.469 OA
BRANCH  17  18
ATOM     18  C   UNL     1      33.334 -23.739 -14.611  0.00  0.00    +0.251 C 
BRANCH  18  20
ATOM     19  N   UNL     1      31.107 -24.006 -15.523  0.00  0.00    -0.244 NA
ATOM     20  C   UNL     1      31.951 -24.312 -14.516  0.00  0.00    +0.103 C 
ATOM     21  C   UNL     1      31.624 -25.102 -13.432  0.00  0.00    +0.018 C 
ATOM     22  C   UNL     1      30.334 -25.617 -13.374  0.00  0.00    +0.003 C 
ATOM     23  C   UNL     1      29.862 -24.525 -15.433  0.00  0.00    +0.099 C 
ATOM     24  C   UNL     1      29.430 -25.328 -14.390  0.00  0.00    +0.021 C 
ENDBRANCH  18  20
ENDBRANCH  17  18
ENDBRANCH   4  17
BRANCH   2  25
ATOM     25  C   UNL     1      36.612 -23.159 -15.725  0.00  0.00    +0.117 C 
BRANCH  25  26
ATOM     26  N   UNL     1      36.949 -24.580 -15.639  0.00  0.00    -0.327 N 
ATOM     27  H   UNL     1      37.010 -25.100 -16.472  0.00  0.00    +0.147 HD
BRANCH  26  29
ATOM     28  N   UNL     1      37.319 -27.284 -13.135  0.00  0.00    -0.228 NA
ATOM     29  C   UNL     1      37.187 -25.224 -14.447  0.00  0.00    +0.077 C 
ATOM     30  C   UNL     1      37.095 -26.615 -14.288  0.00  0.00    +0.139 C 
ATOM     31  C   UNL     1      37.543 -24.502 -13.294  0.00  0.00    +0.019 C 
ATOM     32  C   UNL     1      37.783 -25.154 -12.088  0.00  0.00    +0.022 C 
ATOM     33  C   UNL     1      37.658 -26.534 -12.063  0.00  0.00    +0.100 C 
ATOM     34  N   UNL     1      36.737 -27.374 -15.431  0.00  0.00    -0.342 N 
ATOM     35  H   UNL     1      36.661 -28.354 -15.366  0.00  0.00    +0.144 HD
ATOM     36  H   UNL     1      36.565 -26.922 -16.289  0.00  0.00    +0.144 HD
ENDBRANCH  26  29
ENDBRANCH  25  26
ENDBRANCH   2  25
TORSDOF 7
ENDMDL
MODEL 4
REMARK VINA RESULT:     -11.1      1.675      4.708
REMARK  Name = 11633167
REMARK  7 active torsions:
REMARK  status: ('A' for Active; 'I' for Inactive)
REMARK    1  A    between atoms: C_1  and  C_8
REMARK    2  A    between atoms: C_2  and  C_25
REMARK    3  A    between atoms: C_4  and  O_17
REMARK    4  A    between atoms: O_17  and  C_18
REMARK    5  A    between atoms: C_18  and  C_20
REMARK    6  A    between atoms: C_25  and  N_26
REMARK    7  A    between atoms: N_26  and  C_29
REMARK                            x       y       z     vdW  Elec       q    Type
REMARK                         _______ _______ _______ _____ _____    ______ ____
ROOT
ATOM      1  C   UNL     1      35.635 -21.723 -18.617  0.00  0.00    -0.000 C 
ATOM      2  C   UNL     1      34.293 -23.258 -17.323  0.00  0.00    +0.031 C 
ATOM      3  C   UNL     1      34.441 -22.416 -18.426  0.00  0.00    +0.000 C 
ATOM      4  C   UNL     1      35.339 -23.405 -16.414  0.00  0.00    +0.137 C 
ATOM      5  C   UNL     1      36.682 -21.870 -17.708  0.00  0.00    +0.003 C 
ATOM      6  C   UNL     1      36.534 -22.712 -16.606  0.00  0.00    +0.037 C 
ENDROOT
BRANCH   1   8
ATOM      7  N   UNL     1      34.087 -19.561 -22.812  0.00  0.00    -0.312 N 
ATOM      8  C   UNL     1      35.789 -20.849 -19.761  0.00  0.00    +0.001 C 
ATOM      9  C   UNL     1      34.930 -19.873 -21.769  0.00  0.00    +0.048 C 
ATOM     10  C   UNL     1      36.110 -19.151 -21.966  0.00  0.00    +0.015 C 
ATOM     11  C   UNL     1      34.741 -20.728 -20.678  0.00  0.00    +0.015 C 
ATOM     12  C   UNL     1      36.977 -20.142 -19.931  0.00  0.00    +0.000 C 
ATOM     13  C   UNL     1      37.153 -19.290 -21.028  0.00  0.00    +0.001 C 
ATOM     14  C   UNL     1      35.945 -18.397 -23.160  0.00  0.00    +0.017 C 
ATOM     15  C   UNL     1      34.692 -18.671 -23.659  0.00  0.00    +0.062 C 
ATOM     16  H   UNL     1      33.181 -19.927 -22.933  0.00  0.00    +0.152 HD
ENDBRANCH   1   8
BRANCH   4  17
ATOM     17  O   UNL     1      35.212 -24.223 -15.332  0.00  0.00    -0.469 OA
BRANCH  17  18
ATOM     18  C   UNL     1      36.404 -24.826 -14.831  0.00  0.00    +0.251 C 
BRANCH  18  20
ATOM     19  N   UNL     1      35.397 -24.979 -12.635  0.00  0.00    -0.244 NA
ATOM     20  C   UNL     1      36.478 -24.607 -13.349  0.00  0.00    +0.103 C 
ATOM     21  C   UNL     1      37.621 -24.051 -12.808  0.00  0.00    +0.018 C 
ATOM     22  C   UNL     1      37.658 -23.861 -11.432  0.00  0.00    +0.003 C 
ATOM     23  C   UNL     1      35.469 -24.780 -11.300  0.00  0.00    +0.099 C 
ATOM     24  C   UNL     1      36.565 -24.230 -10.655  0.00  0.00    +0.021 C 
ENDBRANCH  18  20
ENDBRANCH  17  18
ENDBRANCH   4  17
BRANCH   2  25
ATOM     25  C   UNL     1      33.008 -23.993 -17.133  0.00  0.00    +0.117 C 
BRANCH  25  26
ATOM     26  N   UNL     1      32.138 -23.347 -16.150  0.00  0.00    -0.327 N 
ATOM     27  H   UNL     1      32.032 -22.368 -16.188  0.00  0.00    +0.147 HD
BRANCH  26  29
ATOM     28  N   UNL     1      31.243 -24.774 -12.852  0.00  0.00    -0.228 NA
ATOM     29  C   UNL     1      31.461 -24.041 -15.175  0.00  0.00    +0.077 C 
ATOM     30  C   UNL     1      31.880 -24.103 -13.837  0.00  0.00    +0.139 C 
ATOM     31  C   UNL     1      30.280 -24.744 -15.476  0.00  0.00    +0.019 C 
ATOM     32  C   UNL     1      29.596 -25.446 -14.489  0.00  0.00    +0.022 C 
ATOM     33  C   UNL     1      30.115 -25.430 -13.204  0.00  0.00    +0.100 C 
ATOM     34  N   UNL     1      33.068 -23.406 -13.498  0.00  0.00    -0.342 N 
ATOM     35  H   UNL     1      33.400 -23.421 -12.572  0.00  0.00    +0.144 HD
ATOM     36  H   UNL     1      33.560 -22.906 -14.190  0.00  0.00    +0.144 HD
ENDBRANCH  26  29
ENDBRANCH  25  26
ENDBRANCH   2  25
TORSDOF 7
ENDMDL
MODEL 5
REMARK VINA RESULT:     -11.0      1.931      4.743
REMARK  Name = 11633167
REMARK  7 active torsions:
REMARK  status: ('A' for Active; 'I' for Inactive)
REMARK    1  A    between atoms: C_1  and  C_8
REMARK    2  A    between atoms: C_2  and  C_25
REMARK    3  A    between atoms: C_4  and  O_17
REMARK    4  A    between atoms: O_17  and  C_18
REMARK    5  A    between atoms: C_18  and  C_20
REMARK    6  A    between atoms: C_25  and  N_26
REMARK    7  A    between atoms: N_26  and  C_29
REMARK                            x       y       z     vdW  Elec       q    Type
REMARK                         _______ _______ _______ _____ _____    ______ ____
ROOT
ATOM      1  C   UNL     1      35.925 -22.051 -17.910  0.00  0.00    -0.000 C 
ATOM      2  C   UNL     1      35.420 -23.579 -16.109  0.00  0.00    +0.031 C 
ATOM      3  C   UNL     1      35.020 -22.881 -17.250  0.00  0.00    +0.000 C 
ATOM      4  C   UNL     1      36.723 -23.446 -15.631  0.00  0.00    +0.137 C 
ATOM      5  C   UNL     1      37.228 -21.917 -17.433  0.00  0.00    +0.003 C 
ATOM      6  C   UNL     1      37.628 -22.616 -16.293  0.00  0.00    +0.037 C 
ENDROOT
BRANCH   1   8
ATOM      7  N   UNL     1      36.709 -19.111 -21.835  0.00  0.00    -0.312 N 
ATOM      8  C   UNL     1      35.511 -21.326 -19.093  0.00  0.00    +0.001 C 
ATOM      9  C   UNL     1      36.015 -19.903 -20.949  0.00  0.00    +0.048 C 
ATOM     10  C   UNL     1      34.686 -19.934 -21.379  0.00  0.00    +0.015 C 
ATOM     11  C   UNL     1      36.457 -20.589 -19.811  0.00  0.00    +0.015 C 
ATOM     12  C   UNL     1      34.180 -21.375 -19.498  0.00  0.00    +0.000 C 
ATOM     13  C   UNL     1      33.751 -20.684 -20.638  0.00  0.00    +0.001 C 
ATOM     14  C   UNL     1      34.608 -19.135 -22.553  0.00  0.00    +0.017 C 
ATOM     15  C   UNL     1      35.867 -18.641 -22.808  0.00  0.00    +0.062 C 
ATOM     16  H   UNL     1      37.671 -18.910 -21.778  0.00  0.00    +0.152 HD
ENDBRANCH   1   8
BRANCH   4  17
ATOM     17  O   UNL     1      37.130 -24.119 -14.519  0.00  0.00    -0.469 OA
BRANCH  17  18
ATOM     18  C   UNL     1      37.587 -23.338 -13.418  0.00  0.00    +0.251 C 
BRANCH  18  20
ATOM     19  N   UNL     1      37.238 -23.167 -11.028  0.00  0.00    -0.244 NA
ATOM     20  C   UNL     1      36.919 -23.820 -12.164  0.00  0.00    +0.103 C 
ATOM     21  C   UNL     1      36.036 -24.880 -12.238  0.00  0.00    +0.018 C 
ATOM     22  C   UNL     1      35.435 -25.302 -11.058  0.00  0.00    +0.003 C 
ATOM     23  C   UNL     1      36.634 -23.605  -9.902  0.00  0.00    +0.099 C 
ATOM     24  C   UNL     1      35.734 -24.658  -9.863  0.00  0.00    +0.021 C 
ENDBRANCH  18  20
ENDBRANCH  17  18
ENDBRANCH   4  17
BRANCH   2  25
ATOM     25  C   UNL     1      34.439 -24.464 -15.414  0.00  0.00    +0.117 C 
BRANCH  25  26
ATOM     26  N   UNL     1      33.408 -23.703 -14.708  0.00  0.00    -0.327 N 
ATOM     27  H   UNL     1      33.689 -22.993 -14.087  0.00  0.00    +0.147 HD
BRANCH  26  29
ATOM     28  N   UNL     1      30.023 -25.140 -14.263  0.00  0.00    -0.228 NA
ATOM     29  C   UNL     1      32.061 -23.933 -14.872  0.00  0.00    +0.077 C 
ATOM     30  C   UNL     1      31.344 -24.885 -14.131  0.00  0.00    +0.139 C 
ATOM     31  C   UNL     1      31.314 -23.206 -15.815  0.00  0.00    +0.019 C 
ATOM     32  C   UNL     1      29.952 -23.439 -15.980  0.00  0.00    +0.022 C 
ATOM     33  C   UNL     1      29.360 -24.408 -15.186  0.00  0.00    +0.100 C 
ATOM     34  N   UNL     1      32.067 -25.636 -13.171  0.00  0.00    -0.342 N 
ATOM     35  H   UNL     1      31.605 -26.315 -12.628  0.00  0.00    +0.144 HD
ATOM     36  H   UNL     1      33.031 -25.479 -13.046  0.00  0.00    +0.144 HD
ENDBRANCH  26  29
ENDBRANCH  25  26
ENDBRANCH   2  25
TORSDOF 7
ENDMDL
MODEL 6
REMARK VINA RESULT:     -10.7      5.107     11.802
REMARK  Name = 11633167
REMARK  7 active torsions:
REMARK  status: ('A' for Active; 'I' for Inactive)
REMARK    1  A    between atoms: C_1  and  C_8
REMARK    2  A    between atoms: C_2  and  C_25
REMARK    3  A    between atoms: C_4  and  O_17
REMARK    4  A    between atoms: O_17  and  C_18
REMARK    5  A    between atoms: C_18  and  C_20
REMARK    6  A    between atoms: C_25  and  N_26
REMARK    7  A    between atoms: N_26  and  C_29
REMARK                            x       y       z     vdW  Elec       q    Type
REMARK                         _______ _______ _______ _____ _____    ______ ____
ROOT
ATOM      1  C   UNL     1      34.922 -19.507 -21.357  0.00  0.00    -0.000 C 
ATOM      2  C   UNL     1      34.832 -17.185 -22.017  0.00  0.00    +0.031 C 
ATOM      3  C   UNL     1      34.773 -18.161 -21.022  0.00  0.00    +0.000 C 
ATOM      4  C   UNL     1      35.040 -17.556 -23.345  0.00  0.00    +0.137 C 
ATOM      5  C   UNL     1      35.130 -19.878 -22.684  0.00  0.00    +0.003 C 
ATOM      6  C   UNL     1      35.190 -18.901 -23.680  0.00  0.00    +0.037 C 
ENDROOT
BRANCH   1   8
ATOM      7  N   UNL     1      32.539 -22.517 -18.207  0.00  0.00    -0.312 N 
ATOM      8  C   UNL     1      34.860 -20.520 -20.325  0.00  0.00    +0.001 C 
ATOM      9  C   UNL     1      33.599 -21.922 -18.852  0.00  0.00    +0.048 C 
ATOM     10  C   UNL     1      34.766 -22.482 -18.328  0.00  0.00    +0.015 C 
ATOM     11  C   UNL     1      33.614 -20.940 -19.850  0.00  0.00    +0.015 C 
ATOM     12  C   UNL     1      36.040 -21.061 -19.821  0.00  0.00    +0.000 C 
ATOM     13  C   UNL     1      36.010 -22.042 -18.823  0.00  0.00    +0.001 C 
ATOM     14  C   UNL     1      34.369 -23.434 -17.349  0.00  0.00    +0.017 C 
ATOM     15  C   UNL     1      32.994 -23.433 -17.296  0.00  0.00    +0.062 C 
ATOM     16  H   UNL     1      31.590 -22.315 -18.376  0.00  0.00    +0.152 HD
ENDBRANCH   1   8
BRANCH   4  17
ATOM     17  O   UNL     1      35.101 -16.616 -24.330  0.00  0.00    -0.469 OA
BRANCH  17  18
ATOM     18  C   UNL     1      33.978 -16.518 -25.203  0.00  0.00    +0.251 C 
BRANCH  18  20
ATOM     19  N   UNL     1      34.269 -14.170 -24.687  0.00  0.00    -0.244 NA
ATOM     20  C   UNL     1      33.742 -15.074 -25.538  0.00  0.00    +0.103 C 
ATOM     21  C   UNL     1      33.018 -14.757 -26.670  0.00  0.00    +0.018 C 
ATOM     22  C   UNL     1      32.817 -13.411 -26.951  0.00  0.00    +0.003 C 
ATOM     23  C   UNL     1      34.054 -12.872 -24.993  0.00  0.00    +0.099 C 
ATOM     24  C   UNL     1      33.342 -12.443 -26.102  0.00  0.00    +0.021 C 
ENDBRANCH  18  20
ENDBRANCH  17  18
ENDBRANCH   4  17
BRANCH   2  25
ATOM     25  C   UNL     1      34.671 -15.749 -21.642  0.00  0.00    +0.117 C 
BRANCH  25  26
ATOM     26  N   UNL     1      33.381 -15.206 -22.068  0.00  0.00    -0.327 N 
ATOM     27  H   UNL     1      32.914 -15.636 -22.820  0.00  0.00    +0.147 HD
BRANCH  26  29
ATOM     28  N   UNL     1      31.681 -13.101 -19.538  0.00  0.00    -0.228 NA
ATOM     29  C   UNL     1      32.788 -14.120 -21.466  0.00  0.00    +0.077 C 
ATOM     30  C   UNL     1      32.270 -14.145 -20.162  0.00  0.00    +0.139 C 
ATOM     31  C   UNL     1      32.668 -12.894 -22.145  0.00  0.00    +0.019 C 
ATOM     32  C   UNL     1      32.069 -11.796 -21.536  0.00  0.00    +0.022 C 
ATOM     33  C   UNL     1      31.596 -11.951 -20.242  0.00  0.00    +0.100 C 
ATOM     34  N   UNL     1      32.374 -15.366 -19.449  0.00  0.00    -0.342 N 
ATOM     35  H   UNL     1      32.024 -15.430 -18.531  0.00  0.00    +0.144 HD
ATOM     36  H   UNL     1      32.796 -16.149 -19.871  0.00  0.00    +0.144 HD
ENDBRANCH  26  29
ENDBRANCH  25  26
ENDBRANCH   2  25
TORSDOF 7
ENDMDL
MODEL 7
REMARK VINA RESULT:     -10.4      1.590      2.381
REMARK  Name = 11633167
REMARK  7 active torsions:
REMARK  status: ('A' for Active; 'I' for Inactive)
REMARK    1  A    between atoms: C_1  and  C_8
REMARK    2  A    between atoms: C_2  and  C_25
REMARK    3  A    between atoms: C_4  and  O_17
REMARK    4  A    between atoms: O_17  and  C_18
REMARK    5  A    between atoms: C_18  and  C_20
REMARK    6  A    between atoms: C_25  and  N_26
REMARK    7  A    between atoms: N_26  and  C_29
REMARK                            x       y       z     vdW  Elec       q    Type
REMARK                         _______ _______ _______ _____ _____    ______ ____
ROOT
ATOM      1  C   UNL     1      33.992 -22.820 -17.213  0.00  0.00    -0.000 C 
ATOM      2  C   UNL     1      34.083 -23.825 -15.019  0.00  0.00    +0.031 C 
ATOM      3  C   UNL     1      34.711 -23.148 -16.064  0.00  0.00    +0.000 C 
ATOM      4  C   UNL     1      32.737 -24.173 -15.123  0.00  0.00    +0.137 C 
ATOM      5  C   UNL     1      32.646 -23.168 -17.318  0.00  0.00    +0.003 C 
ATOM      6  C   UNL     1      32.017 -23.844 -16.271  0.00  0.00    +0.037 C 
ENDROOT
BRANCH   1   8
ATOM      7  N   UNL     1      34.037 -20.069 -21.347  0.00  0.00    -0.312 N 
ATOM      8  C   UNL     1      34.643 -22.118 -18.298  0.00  0.00    +0.001 C 
ATOM      9  C   UNL     1      34.534 -20.791 -20.286  0.00  0.00    +0.048 C 
ATOM     10  C   UNL     1      35.927 -20.766 -20.389  0.00  0.00    +0.015 C 
ATOM     11  C   UNL     1      33.865 -21.458 -19.253  0.00  0.00    +0.015 C 
ATOM     12  C   UNL     1      36.034 -22.110 -18.375  0.00  0.00    +0.000 C 
ATOM     13  C   UNL     1      36.691 -21.439 -19.414  0.00  0.00    +0.001 C 
ATOM     14  C   UNL     1      36.247 -20.003 -21.546  0.00  0.00    +0.017 C 
ATOM     15  C   UNL     1      35.065 -19.589 -22.115  0.00  0.00    +0.062 C 
ATOM     16  H   UNL     1      33.081 -19.919 -21.529  0.00  0.00    +0.152 HD
ENDBRANCH   1   8
BRANCH   4  17
ATOM     17  O   UNL     1      32.107 -24.834 -14.112  0.00  0.00    -0.469 OA
BRANCH  17  18
ATOM     18  C   UNL     1      30.939 -25.578 -14.451  0.00  0.00    +0.251 C 
BRANCH  18  20
ATOM     19  N   UNL     1      29.777 -23.472 -14.176  0.00  0.00    -0.244 NA
ATOM     20  C   UNL     1      29.856 -24.627 -14.868  0.00  0.00    +0.103 C 
ATOM     21  C   UNL     1      29.021 -24.976 -15.911  0.00  0.00    +0.018 C 
ATOM     22  C   UNL     1      28.028 -24.072 -16.271  0.00  0.00    +0.003 C 
ATOM     23  C   UNL     1      28.800 -22.619 -14.555  0.00  0.00    +0.099 C 
ATOM     24  C   UNL     1      27.908 -22.868 -15.586  0.00  0.00    +0.021 C 
ENDBRANCH  18  20
ENDBRANCH  17  18
ENDBRANCH   4  17
BRANCH   2  25
ATOM     25  C   UNL     1      34.867 -24.169 -13.796  0.00  0.00    +0.117 C 
BRANCH  25  26
ATOM     26  N   UNL     1      35.406 -25.528 -13.846  0.00  0.00    -0.327 N 
ATOM     27  H   UNL     1      34.777 -26.282 -13.914  0.00  0.00    +0.147 HD
BRANCH  26  29
ATOM     28  N   UNL     1      38.703 -27.017 -14.642  0.00  0.00    -0.228 NA
ATOM     29  C   UNL     1      36.753 -25.803 -13.801  0.00  0.00    +0.077 C 
ATOM     30  C   UNL     1      37.384 -26.720 -14.656  0.00  0.00    +0.139 C 
ATOM     31  C   UNL     1      37.591 -25.162 -12.871  0.00  0.00    +0.019 C 
ATOM     32  C   UNL     1      38.954 -25.441 -12.826  0.00  0.00    +0.022 C 
ATOM     33  C   UNL     1      39.455 -26.368 -13.726  0.00  0.00    +0.100 C 
ATOM     34  N   UNL     1      36.568 -27.385 -15.606  0.00  0.00    -0.342 N 
ATOM     35  H   UNL     1      36.968 -28.037 -16.226  0.00  0.00    +0.144 HD
ATOM     36  H   UNL     1      35.603 -27.195 -15.646  0.00  0.00    +0.144 HD
ENDBRANCH  26  29
ENDBRANCH  25  26
ENDBRANCH   2  25
TORSDOF 7
ENDMDL
MODEL 8
REMARK VINA RESULT:     -10.3      1.504      5.508
REMARK  Name = 11633167
REMARK  7 active torsions:
REMARK  status: ('A' for Active; 'I' for Inactive)
REMARK    1  A    between atoms: C_1  and  C_8
REMARK    2  A    between atoms: C_2  and  C_25
REMARK    3  A    between atoms: C_4  and  O_17
REMARK    4  A    between atoms: O_17  and  C_18
REMARK    5  A    between atoms: C_18  and  C_20
REMARK    6  A    between atoms: C_25  and  N_26
REMARK    7  A    between atoms: N_26  and  C_29
REMARK                            x       y       z     vdW  Elec       q    Type
REMARK                         _______ _______ _______ _____ _____    ______ ____
ROOT
ATOM      1  C   UNL     1      35.113 -22.237 -18.069  0.00  0.00    -0.000 C 
ATOM      2  C   UNL     1      33.838 -23.816 -16.760  0.00  0.00    +0.031 C 
ATOM      3  C   UNL     1      33.944 -22.971 -17.865  0.00  0.00    +0.000 C 
ATOM      4  C   UNL     1      34.898 -23.927 -15.862  0.00  0.00    +0.137 C 
ATOM      5  C   UNL     1      36.173 -22.348 -17.172  0.00  0.00    +0.003 C 
ATOM      6  C   UNL     1      36.067 -23.194 -16.067  0.00  0.00    +0.037 C 
ENDROOT
BRANCH   1   8
ATOM      7  N   UNL     1      37.609 -19.325 -21.223  0.00  0.00    -0.312 N 
ATOM      8  C   UNL     1      35.224 -21.359 -19.215  0.00  0.00    +0.001 C 
ATOM      9  C   UNL     1      36.536 -19.982 -20.666  0.00  0.00    +0.048 C 
ATOM     10  C   UNL     1      35.415 -19.665 -21.437  0.00  0.00    +0.015 C 
ATOM     11  C   UNL     1      36.472 -20.826 -19.551  0.00  0.00    +0.015 C 
ATOM     12  C   UNL     1      34.090 -21.061 -19.965  0.00  0.00    +0.000 C 
ATOM     13  C   UNL     1      34.168 -20.215 -21.078  0.00  0.00    +0.001 C 
ATOM     14  C   UNL     1      35.853 -18.796 -22.475  0.00  0.00    +0.017 C 
ATOM     15  C   UNL     1      37.207 -18.604 -22.316  0.00  0.00    +0.062 C 
ATOM     16  H   UNL     1      38.533 -19.365 -20.885  0.00  0.00    +0.152 HD
ENDBRANCH   1   8
BRANCH   4  17
ATOM     17  O   UNL     1      34.810 -24.747 -14.778  0.00  0.00    -0.469 OA
BRANCH  17  18
ATOM     18  C   UNL     1      35.777 -25.791 -14.675  0.00  0.00    +0.251 C 
BRANCH  18  20
ATOM     19  N   UNL     1      36.265 -24.831 -12.507  0.00  0.00    -0.244 NA
ATOM     20  C   UNL     1      36.764 -25.441 -13.601  0.00  0.00    +0.103 C 
ATOM     21  C   UNL     1      38.096 -25.754 -13.785  0.00  0.00    +0.018 C 
ATOM     22  C   UNL     1      38.985 -25.416 -12.771  0.00  0.00    +0.003 C 
ATOM     23  C   UNL     1      37.158 -24.517 -11.542  0.00  0.00    +0.099 C 
ATOM     24  C   UNL     1      38.515 -24.785 -11.624  0.00  0.00    +0.021 C 
ENDBRANCH  18  20
ENDBRANCH  17  18
ENDBRANCH   4  17
BRANCH   2  25
ATOM     25  C   UNL     1      32.580 -24.594 -16.556  0.00  0.00    +0.117 C 
BRANCH  25  26
ATOM     26  N   UNL     1      31.807 -24.110 -15.412  0.00  0.00    -0.327 N 
ATOM     27  H   UNL     1      32.281 -23.919 -14.570  0.00  0.00    +0.147 HD
BRANCH  26  29
ATOM     28  N   UNL     1      28.183 -24.529 -14.770  0.00  0.00    -0.228 NA
ATOM     29  C   UNL     1      30.447 -23.908 -15.457  0.00  0.00    +0.077 C 
ATOM     30  C   UNL     1      29.525 -24.695 -14.751  0.00  0.00    +0.139 C 
ATOM     31  C   UNL     1      29.895 -22.873 -16.233  0.00  0.00    +0.019 C 
ATOM     32  C   UNL     1      28.520 -22.669 -16.278  0.00  0.00    +0.022 C 
ATOM     33  C   UNL     1      27.715 -23.518 -15.535  0.00  0.00    +0.100 C 
ATOM     34  N   UNL     1      30.046 -25.749 -13.958  0.00  0.00    -0.342 N 
ATOM     35  H   UNL     1      29.436 -26.327 -13.445  0.00  0.00    +0.144 HD
ATOM     36  H   UNL     1      31.019 -25.901 -13.920  0.00  0.00    +0.144 HD
ENDBRANCH  26  29
ENDBRANCH  25  26
ENDBRANCH   2  25
TORSDOF 7
ENDMDL
MODEL 9
REMARK VINA RESULT:      -9.9      1.917      5.833
REMARK  Name = 11633167
REMARK  7 active torsions:
REMARK  status: ('A' for Active; 'I' for Inactive)
REMARK    1  A    between atoms: C_1  and  C_8
REMARK    2  A    between atoms: C_2  and  C_25
REMARK    3  A    between atoms: C_4  and  O_17
REMARK    4  A    between atoms: O_17  and  C_18
REMARK    5  A    between atoms: C_18  and  C_20
REMARK    6  A    between atoms: C_25  and  N_26
REMARK    7  A    between atoms: N_26  and  C_29
REMARK                            x       y       z     vdW  Elec       q    Type
REMARK                         _______ _______ _______ _____ _____    ______ ____
ROOT
ATOM      1  C   UNL     1      34.438 -23.363 -16.146  0.00  0.00    -0.000 C 
ATOM      2  C   UNL     1      33.171 -23.719 -14.121  0.00  0.00    +0.031 C 
ATOM      3  C   UNL     1      33.372 -23.023 -15.314  0.00  0.00    +0.000 C 
ATOM      4  C   UNL     1      34.035 -24.753 -13.763  0.00  0.00    +0.137 C 
ATOM      5  C   UNL     1      35.302 -24.397 -15.789  0.00  0.00    +0.003 C 
ATOM      6  C   UNL     1      35.100 -25.093 -14.597  0.00  0.00    +0.037 C 
ENDROOT
BRANCH   1   8
ATOM      7  N   UNL     1      32.910 -20.960 -20.216  0.00  0.00    -0.312 N 
ATOM      8  C   UNL     1      34.647 -22.641 -17.384  0.00  0.00    +0.001 C 
ATOM      9  C   UNL     1      33.788 -21.504 -19.305  0.00  0.00    +0.048 C 
ATOM     10  C   UNL     1      35.078 -21.245 -19.774  0.00  0.00    +0.015 C 
ATOM     11  C   UNL     1      33.541 -22.198 -18.115  0.00  0.00    +0.015 C 
ATOM     12  C   UNL     1      35.945 -22.397 -17.826  0.00  0.00    +0.000 C 
ATOM     13  C   UNL     1      36.177 -21.702 -19.019  0.00  0.00    +0.001 C 
ATOM     14  C   UNL     1      34.944 -20.527 -20.994  0.00  0.00    +0.017 C 
ATOM     15  C   UNL     1      33.599 -20.367 -21.240  0.00  0.00    +0.062 C 
ATOM     16  H   UNL     1      31.929 -20.992 -20.141  0.00  0.00    +0.152 HD
ENDBRANCH   1   8
BRANCH   4  17
ATOM     17  O   UNL     1      33.854 -25.443 -12.603  0.00  0.00    -0.469 OA
BRANCH  17  18
ATOM     18  C   UNL     1      34.399 -24.872 -11.416  0.00  0.00    +0.251 C 
BRANCH  18  20
ATOM     19  N   UNL     1      36.531 -25.996 -11.649  0.00  0.00    -0.244 NA
ATOM     20  C   UNL     1      35.893 -24.812 -11.543  0.00  0.00    +0.103 C 
ATOM     21  C   UNL     1      36.519 -23.581 -11.545  0.00  0.00    +0.018 C 
ATOM     22  C   UNL     1      37.904 -23.561 -11.664  0.00  0.00    +0.003 C 
ATOM     23  C   UNL     1      37.876 -25.937 -11.763  0.00  0.00    +0.099 C 
ATOM     24  C   UNL     1      38.603 -24.758 -11.776  0.00  0.00    +0.021 C 
ENDBRANCH  18  20
ENDBRANCH  17  18
ENDBRANCH   4  17
BRANCH   2  25
ATOM     25  C   UNL     1      32.026 -23.343 -13.241  0.00  0.00    +0.117 C 
BRANCH  25  26
ATOM     26  N   UNL     1      30.881 -24.238 -13.406  0.00  0.00    -0.327 N 
ATOM     27  H   UNL     1      30.735 -24.944 -12.735  0.00  0.00    +0.147 HD
BRANCH  26  29
ATOM     28  N   UNL     1      28.428 -25.184 -16.016  0.00  0.00    -0.228 NA
ATOM     29  C   UNL     1      29.997 -24.141 -14.456  0.00  0.00    +0.077 C 
ATOM     30  C   UNL     1      29.303 -25.239 -14.986  0.00  0.00    +0.139 C 
ATOM     31  C   UNL     1      29.736 -22.902 -15.068  0.00  0.00    +0.019 C 
ATOM     32  C   UNL     1      28.842 -22.804 -16.129  0.00  0.00    +0.022 C 
ATOM     33  C   UNL     1      28.220 -23.965 -16.561  0.00  0.00    +0.100 C 
ATOM     34  N   UNL     1      29.543 -26.504 -14.393  0.00  0.00    -0.342 N 
ATOM     35  H   UNL     1      29.078 -27.303 -14.733  0.00  0.00    +0.144 HD
ATOM     36  H   UNL     1      30.174 -26.584 -13.641  0.00  0.00    +0.144 HD
ENDBRANCH  26  29
ENDBRANCH  25  26
ENDBRANCH   2  25
TORSDOF 7
ENDMDL
