MODEL 1
REMARK VINA RESULT:     -11.3      0.000      0.000
REMARK  Name = 24779724
REMARK  3 active torsions:
REMARK  status: ('A' for Active; 'I' for Inactive)
REMARK    1  A    between atoms: C_5  and  C_12
REMARK    2  A    between atoms: C_7  and  S_16
REMARK    3  A    between atoms: S_16  and  C_19
REMARK                            x       y       z     vdW  Elec       q    Type
REMARK                         _______ _______ _______ _____ _____    ______ ____
ROOT
ATOM      1  N   UNL     1      34.701 -21.639 -18.948  0.00  0.00    -0.186 N 
ATOM      2  N   UNL     1      35.716 -22.004 -18.126  0.00  0.00    -0.162 NA
ATOM      3  N   UNL     1      32.704 -21.442 -19.841  0.00  0.00    -0.126 NA
ATOM      4  N   UNL     1      33.594 -20.697 -20.588  0.00  0.00    -0.120 NA
ATOM      5  C   UNL     1      35.347 -22.786 -17.151  0.00  0.00    +0.104 C 
ATOM      6  C   UNL     1      33.378 -22.003 -18.860  0.00  0.00    +0.187 A 
ATOM      7  C   UNL     1      34.781 -20.827 -20.043  0.00  0.00    +0.217 A 
ATOM      8  C   UNL     1      33.946 -23.277 -16.940  0.00  0.00    +0.024 C 
ATOM      9  C   UNL     1      33.012 -22.863 -17.805  0.00  0.00    +0.042 C 
ENDROOT
BRANCH   5  12
ATOM     10  N   UNL     1      37.371 -24.298 -14.542  0.00  0.00    -0.208 N 
ATOM     11  N   UNL     1      38.333 -23.501 -15.038  0.00  0.00    -0.176 NA
ATOM     12  C   UNL     1      36.368 -23.251 -16.177  0.00  0.00    +0.056 C 
ATOM     13  C   UNL     1      36.174 -24.185 -15.188  0.00  0.00    +0.087 C 
ATOM     14  C   UNL     1      37.715 -22.864 -16.036  0.00  0.00    +0.121 C 
ATOM     15  C   UNL     1      37.662 -25.163 -13.424  0.00  0.00    +0.140 C 
ENDBRANCH   5  12
BRANCH   7  16
ATOM     16  S   UNL     1      36.302 -20.077 -20.604  0.00  0.00    -0.051 S 
BRANCH  16  19
ATOM     17  N   UNL     1      34.238 -15.523 -23.827  0.00  0.00    -0.248 NA
ATOM     18  C   UNL     1      34.813 -16.445 -21.676  0.00  0.00    -0.003 C 
ATOM     19  C   UNL     1      35.684 -18.707 -21.559  0.00  0.00    +0.011 C 
ATOM     20  C   UNL     1      34.703 -16.541 -23.079  0.00  0.00    +0.060 C 
ATOM     21  C   UNL     1      35.302 -17.528 -20.927  0.00  0.00    +0.060 C 
ATOM     22  C   UNL     1      35.578 -18.809 -22.940  0.00  0.00    -0.017 C 
ATOM     23  C   UNL     1      35.091 -17.733 -23.686  0.00  0.00    +0.072 C 
ATOM     24  C   UNL     1      34.422 -15.246 -21.066  0.00  0.00    -0.001 C 
ATOM     25  C   UNL     1      33.942 -14.195 -21.833  0.00  0.00    +0.020 C 
ATOM     26  C   UNL     1      33.871 -14.383 -23.199  0.00  0.00    +0.098 C 
ENDBRANCH  16  19
ENDBRANCH   7  16
TORSDOF 3
ENDMDL
MODEL 2
REMARK VINA RESULT:     -11.2      0.883      1.606
REMARK  Name = 24779724
REMARK  3 active torsions:
REMARK  status: ('A' for Active; 'I' for Inactive)
REMARK    1  A    between atoms: C_5  and  C_12
REMARK    2  A    between atoms: C_7  and  S_16
REMARK    3  A    between atoms: S_16  and  C_19
REMARK                            x       y       z     vdW  Elec       q    Type
REMARK                         _______ _______ _______ _____ _____    ______ ____
ROOT
ATOM      1  N   UNL     1      34.690 -21.341 -19.325  0.00  0.00    -0.186 N 
ATOM      2  N   UNL     1      35.733 -21.657 -18.518  0.00  0.00    -0.162 NA
ATOM      3  N   UNL     1      32.677 -21.253 -20.198  0.00  0.00    -0.126 NA
ATOM      4  N   UNL     1      33.511 -20.437 -20.936  0.00  0.00    -0.120 NA
ATOM      5  C   UNL     1      35.424 -22.481 -17.557  0.00  0.00    +0.104 C 
ATOM      6  C   UNL     1      33.394 -21.790 -19.234  0.00  0.00    +0.187 A 
ATOM      7  C   UNL     1      34.710 -20.503 -20.402  0.00  0.00    +0.217 A 
ATOM      8  C   UNL     1      34.059 -23.064 -17.346  0.00  0.00    +0.024 C 
ATOM      9  C   UNL     1      33.092 -22.693 -18.195  0.00  0.00    +0.042 C 
ENDROOT
BRANCH   5  12
ATOM     10  N   UNL     1      37.542 -23.860 -14.950  0.00  0.00    -0.208 N 
ATOM     11  N   UNL     1      38.490 -23.106 -15.532  0.00  0.00    -0.176 NA
ATOM     12  C   UNL     1      36.481 -22.900 -16.600  0.00  0.00    +0.056 C 
ATOM     13  C   UNL     1      36.321 -23.772 -15.551  0.00  0.00    +0.087 C 
ATOM     14  C   UNL     1      37.836 -22.522 -16.540  0.00  0.00    +0.121 C 
ATOM     15  C   UNL     1      37.872 -24.661 -13.795  0.00  0.00    +0.140 C 
ENDBRANCH   5  12
BRANCH   7  16
ATOM     16  S   UNL     1      36.175 -19.646 -20.959  0.00  0.00    -0.051 S 
BRANCH  16  19
ATOM     17  N   UNL     1      33.818 -14.703 -23.283  0.00  0.00    -0.248 NA
ATOM     18  C   UNL     1      34.716 -16.917 -23.601  0.00  0.00    -0.003 C 
ATOM     19  C   UNL     1      35.469 -18.171 -21.665  0.00  0.00    +0.011 C 
ATOM     20  C   UNL     1      34.352 -15.831 -22.778  0.00  0.00    +0.060 C 
ATOM     21  C   UNL     1      35.272 -18.078 -23.039  0.00  0.00    +0.060 C 
ATOM     22  C   UNL     1      35.113 -17.106 -20.848  0.00  0.00    -0.017 C 
ATOM     23  C   UNL     1      34.561 -15.951 -21.406  0.00  0.00    +0.072 C 
ATOM     24  C   UNL     1      34.506 -16.796 -24.981  0.00  0.00    -0.001 C 
ATOM     25  C   UNL     1      33.956 -15.636 -25.506  0.00  0.00    +0.020 C 
ATOM     26  C   UNL     1      33.632 -14.627 -24.620  0.00  0.00    +0.098 C 
ENDBRANCH  16  19
ENDBRANCH   7  16
TORSDOF 3
ENDMDL
MODEL 3
REMARK VINA RESULT:     -10.5      2.931      4.367
REMARK  Name = 24779724
REMARK  3 active torsions:
REMARK  status: ('A' for Active; 'I' for Inactive)
REMARK    1  A    between atoms: C_5  and  C_12
REMARK    2  A    between atoms: C_7  and  S_16
REMARK    3  A    between atoms: S_16  and  C_19
REMARK                            x       y       z     vdW  Elec       q    Type
REMARK                         _______ _______ _______ _____ _____    ______ ____
ROOT
ATOM      1  N   UNL     1      32.969 -23.673 -15.757  0.00  0.00    -0.186 N 
ATOM      2  N   UNL     1      34.020 -24.195 -15.078  0.00  0.00    -0.162 NA
ATOM      3  N   UNL     1      31.009 -22.797 -16.222  0.00  0.00    -0.126 NA
ATOM      4  N   UNL     1      31.716 -22.939 -17.399  0.00  0.00    -0.120 NA
ATOM      5  C   UNL     1      33.828 -24.272 -13.791  0.00  0.00    +0.104 C 
ATOM      6  C   UNL     1      31.769 -23.241 -15.243  0.00  0.00    +0.187 A 
ATOM      7  C   UNL     1      32.883 -23.465 -17.103  0.00  0.00    +0.217 A 
ATOM      8  C   UNL     1      32.567 -23.856 -13.095  0.00  0.00    +0.024 C 
ATOM      9  C   UNL     1      31.583 -23.352 -13.851  0.00  0.00    +0.042 C 
ENDROOT
BRANCH   5  12
ATOM     10  N   UNL     1      36.793 -25.694 -12.250  0.00  0.00    -0.208 N 
ATOM     11  N   UNL     1      36.097 -25.523 -11.112  0.00  0.00    -0.176 NA
ATOM     12  C   UNL     1      34.910 -24.822 -12.934  0.00  0.00    +0.056 C 
ATOM     13  C   UNL     1      36.125 -25.291 -13.369  0.00  0.00    +0.087 C 
ATOM     14  C   UNL     1      34.949 -24.989 -11.536  0.00  0.00    +0.121 C 
ATOM     15  C   UNL     1      38.119 -26.262 -12.201  0.00  0.00    +0.140 C 
ENDBRANCH   5  12
BRANCH   7  16
ATOM     16  S   UNL     1      34.195 -23.863 -18.249  0.00  0.00    -0.051 S 
BRANCH  16  19
ATOM     17  N   UNL     1      34.590 -18.793 -21.334  0.00  0.00    -0.248 NA
ATOM     18  C   UNL     1      35.682 -20.615 -20.198  0.00  0.00    -0.003 C 
ATOM     19  C   UNL     1      34.324 -22.346 -19.173  0.00  0.00    +0.011 C 
ATOM     20  C   UNL     1      34.523 -19.941 -20.636  0.00  0.00    +0.060 C 
ATOM     21  C   UNL     1      35.575 -21.812 -19.470  0.00  0.00    +0.060 C 
ATOM     22  C   UNL     1      33.179 -21.687 -19.600  0.00  0.00    -0.017 C 
ATOM     23  C   UNL     1      33.285 -20.497 -20.324  0.00  0.00    +0.072 C 
ATOM     24  C   UNL     1      36.928 -20.056 -20.511  0.00  0.00    -0.001 C 
ATOM     25  C   UNL     1      37.001 -18.872 -21.232  0.00  0.00    +0.020 C 
ATOM     26  C   UNL     1      35.812 -18.286 -21.616  0.00  0.00    +0.098 C 
ENDBRANCH  16  19
ENDBRANCH   7  16
TORSDOF 3
ENDMDL
MODEL 4
REMARK VINA RESULT:     -10.1      5.490     11.636
REMARK  Name = 24779724
REMARK  3 active torsions:
REMARK  status: ('A' for Active; 'I' for Inactive)
REMARK    1  A    between atoms: C_5  and  C_12
REMARK    2  A    between atoms: C_7  and  S_16
REMARK    3  A    between atoms: S_16  and  C_19
REMARK                            x       y       z     vdW  Elec       q    Type
REMARK                         _______ _______ _______ _____ _____    ______ ____
ROOT
ATOM      1  N   UNL     1      32.448 -11.959 -21.822  0.00  0.00    -0.186 N 
ATOM      2  N   UNL     1      32.700 -10.747 -22.376  0.00  0.00    -0.162 NA
ATOM      3  N   UNL     1      31.732 -13.524 -20.457  0.00  0.00    -0.126 NA
ATOM      4  N   UNL     1      32.390 -14.127 -21.508  0.00  0.00    -0.120 NA
ATOM      5  C   UNL     1      32.225  -9.746 -21.690  0.00  0.00    +0.104 C 
ATOM      6  C   UNL     1      31.772 -12.222 -20.654  0.00  0.00    +0.187 A 
ATOM      7  C   UNL     1      32.813 -13.179 -22.313  0.00  0.00    +0.217 A 
ATOM      8  C   UNL     1      31.484  -9.882 -20.393  0.00  0.00    +0.024 C 
ATOM      9  C   UNL     1      31.284 -11.120 -19.925  0.00  0.00    +0.042 C 
ENDROOT
BRANCH   5  12
ATOM     10  N   UNL     1      32.110  -6.281 -22.772  0.00  0.00    -0.208 N 
ATOM     11  N   UNL     1      33.399  -6.497 -23.087  0.00  0.00    -0.176 NA
ATOM     12  C   UNL     1      32.431  -8.365 -22.196  0.00  0.00    +0.056 C 
ATOM     13  C   UNL     1      31.485  -7.369 -22.235  0.00  0.00    +0.087 C 
ATOM     14  C   UNL     1      33.589  -7.770 -22.733  0.00  0.00    +0.121 C 
ATOM     15  C   UNL     1      31.520  -4.987 -23.013  0.00  0.00    +0.140 C 
ENDBRANCH   5  12
BRANCH   7  16
ATOM     16  S   UNL     1      33.727 -13.397 -23.833  0.00  0.00    -0.051 S 
BRANCH  16  19
ATOM     17  N   UNL     1      35.194 -19.153 -23.531  0.00  0.00    -0.248 NA
ATOM     18  C   UNL     1      34.921 -17.026 -22.433  0.00  0.00    -0.003 C 
ATOM     19  C   UNL     1      34.167 -15.119 -23.731  0.00  0.00    +0.011 C 
ATOM     20  C   UNL     1      34.866 -17.849 -23.577  0.00  0.00    +0.060 C 
ATOM     21  C   UNL     1      34.572 -15.668 -22.518  0.00  0.00    +0.060 C 
ATOM     22  C   UNL     1      34.111 -15.923 -24.862  0.00  0.00    -0.017 C 
ATOM     23  C   UNL     1      34.458 -17.274 -24.778  0.00  0.00    +0.072 C 
ATOM     24  C   UNL     1      35.332 -17.605 -21.224  0.00  0.00    -0.001 C 
ATOM     25  C   UNL     1      35.671 -18.949 -21.173  0.00  0.00    +0.020 C 
ATOM     26  C   UNL     1      35.585 -19.673 -22.345  0.00  0.00    +0.098 C 
ENDBRANCH  16  19
ENDBRANCH   7  16
TORSDOF 3
ENDMDL
MODEL 5
REMARK VINA RESULT:      -9.9      3.892      7.639
REMARK  Name = 24779724
REMARK  3 active torsions:
REMARK  status: ('A' for Active; 'I' for Inactive)
REMARK    1  A    between atoms: C_5  and  C_12
REMARK    2  A    between atoms: C_7  and  S_16
REMARK    3  A    between atoms: S_16  and  C_19
REMARK                            x       y       z     vdW  Elec       q    Type
REMARK                         _______ _______ _______ _____ _____    ______ ____
ROOT
ATOM      1  N   UNL     1      33.764 -15.434 -22.434  0.00  0.00    -0.186 N 
ATOM      2  N   UNL     1      34.193 -16.430 -21.620  0.00  0.00    -0.162 NA
ATOM      3  N   UNL     1      33.439 -14.179 -24.207  0.00  0.00    -0.126 NA
ATOM      4  N   UNL     1      32.753 -13.624 -23.146  0.00  0.00    -0.120 NA
ATOM      5  C   UNL     1      34.949 -17.308 -22.217  0.00  0.00    +0.104 C 
ATOM      6  C   UNL     1      34.042 -15.264 -23.770  0.00  0.00    +0.187 A 
ATOM      7  C   UNL     1      32.959 -14.385 -22.095  0.00  0.00    +0.217 A 
ATOM      8  C   UNL     1      35.349 -17.242 -23.660  0.00  0.00    +0.024 C 
ATOM      9  C   UNL     1      34.876 -16.220 -24.384  0.00  0.00    +0.042 C 
ENDROOT
BRANCH   5  12
ATOM     10  N   UNL     1      35.634 -20.320 -20.308  0.00  0.00    -0.208 N 
ATOM     11  N   UNL     1      36.893 -19.849 -20.305  0.00  0.00    -0.176 NA
ATOM     12  C   UNL     1      35.478 -18.453 -21.432  0.00  0.00    +0.056 C 
ATOM     13  C   UNL     1      34.748 -19.521 -20.969  0.00  0.00    +0.087 C 
ATOM     14  C   UNL     1      36.792 -18.709 -20.994  0.00  0.00    +0.121 C 
ATOM     15  C   UNL     1      35.334 -21.567 -19.646  0.00  0.00    +0.140 C 
ENDBRANCH   5  12
BRANCH   7  16
ATOM     16  S   UNL     1      32.308 -14.133 -20.451  0.00  0.00    -0.051 S 
BRANCH  16  19
ATOM     17  N   UNL     1      31.640  -8.223 -20.317  0.00  0.00    -0.248 NA
ATOM     18  C   UNL     1      31.964 -10.242 -21.592  0.00  0.00    -0.003 C 
ATOM     19  C   UNL     1      32.108 -12.363 -20.422  0.00  0.00    +0.011 C 
ATOM     20  C   UNL     1      31.792  -9.560 -20.370  0.00  0.00    +0.060 C 
ATOM     21  C   UNL     1      32.120 -11.638 -21.610  0.00  0.00    +0.060 C 
ATOM     22  C   UNL     1      31.941 -11.698 -19.214  0.00  0.00    -0.017 C 
ATOM     23  C   UNL     1      31.785 -10.310 -19.196  0.00  0.00    +0.072 C 
ATOM     24  C   UNL     1      31.971  -9.487 -22.773  0.00  0.00    -0.001 C 
ATOM     25  C   UNL     1      31.814  -8.110 -22.722  0.00  0.00    +0.020 C 
ATOM     26  C   UNL     1      31.653  -7.532 -21.479  0.00  0.00    +0.098 C 
ENDBRANCH  16  19
ENDBRANCH   7  16
TORSDOF 3
ENDMDL
MODEL 6
REMARK VINA RESULT:      -9.7      3.023      4.603
REMARK  Name = 24779724
REMARK  3 active torsions:
REMARK  status: ('A' for Active; 'I' for Inactive)
REMARK    1  A    between atoms: C_5  and  C_12
REMARK    2  A    between atoms: C_7  and  S_16
REMARK    3  A    between atoms: S_16  and  C_19
REMARK                            x       y       z     vdW  Elec       q    Type
REMARK                         _______ _______ _______ _____ _____    ______ ____
ROOT
ATOM      1  N   UNL     1      33.855 -24.029 -15.731  0.00  0.00    -0.186 N 
ATOM      2  N   UNL     1      35.001 -24.753 -15.758  0.00  0.00    -0.162 NA
ATOM      3  N   UNL     1      32.132 -22.869 -15.015  0.00  0.00    -0.126 NA
ATOM      4  N   UNL     1      32.058 -22.960 -16.391  0.00  0.00    -0.120 NA
ATOM      5  C   UNL     1      35.524 -24.953 -14.581  0.00  0.00    +0.104 C 
ATOM      6  C   UNL     1      33.214 -23.513 -14.630  0.00  0.00    +0.187 A 
ATOM      7  C   UNL     1      33.093 -23.658 -16.802  0.00  0.00    +0.217 A 
ATOM      8  C   UNL     1      34.927 -24.467 -13.294  0.00  0.00    +0.024 C 
ATOM      9  C   UNL     1      33.792 -23.761 -13.369  0.00  0.00    +0.042 C 
ENDROOT
BRANCH   5  12
ATOM     10  N   UNL     1      38.891 -26.273 -14.260  0.00  0.00    -0.208 N 
ATOM     11  N   UNL     1      38.276 -27.459 -14.404  0.00  0.00    -0.176 NA
ATOM     12  C   UNL     1      36.786 -25.729 -14.477  0.00  0.00    +0.056 C 
ATOM     13  C   UNL     1      38.043 -25.205 -14.297  0.00  0.00    +0.087 C 
ATOM     14  C   UNL     1      36.991 -27.121 -14.536  0.00  0.00    +0.121 C 
ATOM     15  C   UNL     1      40.323 -26.224 -14.087  0.00  0.00    +0.140 C 
ENDBRANCH   5  12
BRANCH   7  16
ATOM     16  S   UNL     1      33.492 -24.081 -18.490  0.00  0.00    -0.051 S 
BRANCH  16  19
ATOM     17  N   UNL     1      37.050 -19.561 -20.005  0.00  0.00    -0.248 NA
ATOM     18  C   UNL     1      34.955 -20.723 -20.264  0.00  0.00    -0.003 C 
ATOM     19  C   UNL     1      34.549 -22.724 -18.950  0.00  0.00    +0.011 C 
ATOM     20  C   UNL     1      36.229 -20.575 -19.676  0.00  0.00    +0.060 C 
ATOM     21  C   UNL     1      34.125 -21.795 -19.897  0.00  0.00    +0.060 C 
ATOM     22  C   UNL     1      35.802 -22.584 -18.368  0.00  0.00    -0.017 C 
ATOM     23  C   UNL     1      36.628 -21.519 -18.732  0.00  0.00    +0.072 C 
ATOM     24  C   UNL     1      34.553 -19.775 -21.213  0.00  0.00    -0.001 C 
ATOM     25  C   UNL     1      35.397 -18.727 -21.554  0.00  0.00    +0.020 C 
ATOM     26  C   UNL     1      36.624 -18.666 -20.926  0.00  0.00    +0.098 C 
ENDBRANCH  16  19
ENDBRANCH   7  16
TORSDOF 3
ENDMDL
MODEL 7
REMARK VINA RESULT:      -9.6      2.452      9.132
REMARK  Name = 24779724
REMARK  3 active torsions:
REMARK  status: ('A' for Active; 'I' for Inactive)
REMARK    1  A    between atoms: C_5  and  C_12
REMARK    2  A    between atoms: C_7  and  S_16
REMARK    3  A    between atoms: S_16  and  C_19
REMARK                            x       y       z     vdW  Elec       q    Type
REMARK                         _______ _______ _______ _____ _____    ______ ____
ROOT
ATOM      1  N   UNL     1      35.548 -20.537 -20.271  0.00  0.00    -0.186 N 
ATOM      2  N   UNL     1      34.890 -20.012 -21.334  0.00  0.00    -0.162 NA
ATOM      3  N   UNL     1      37.105 -20.972 -18.785  0.00  0.00    -0.126 NA
ATOM      4  N   UNL     1      35.988 -21.723 -18.481  0.00  0.00    -0.120 NA
ATOM      5  C   UNL     1      35.593 -19.149 -22.013  0.00  0.00    +0.104 C 
ATOM      6  C   UNL     1      36.831 -20.264 -19.861  0.00  0.00    +0.187 A 
ATOM      7  C   UNL     1      35.068 -21.452 -19.379  0.00  0.00    +0.217 A 
ATOM      8  C   UNL     1      37.007 -18.768 -21.694  0.00  0.00    +0.024 C 
ATOM      9  C   UNL     1      37.573 -19.341 -20.624  0.00  0.00    +0.042 C 
ENDROOT
BRANCH   5  12
ATOM     10  N   UNL     1      34.292 -17.007 -24.641  0.00  0.00    -0.208 N 
ATOM     11  N   UNL     1      33.894 -18.171 -25.183  0.00  0.00    -0.176 NA
ATOM     12  C   UNL     1      34.980 -18.498 -23.200  0.00  0.00    +0.056 C 
ATOM     13  C   UNL     1      34.947 -17.148 -23.453  0.00  0.00    +0.087 C 
ATOM     14  C   UNL     1      34.318 -19.077 -24.299  0.00  0.00    +0.121 C 
ATOM     15  C   UNL     1      34.010 -15.766 -25.322  0.00  0.00    +0.140 C 
ENDBRANCH   5  12
BRANCH   7  16
ATOM     16  S   UNL     1      33.424 -22.146 -19.465  0.00  0.00    -0.051 S 
BRANCH  16  19
ATOM     17  N   UNL     1      32.841 -24.364 -13.977  0.00  0.00    -0.248 NA
ATOM     18  C   UNL     1      31.841 -23.321 -15.905  0.00  0.00    -0.003 C 
ATOM     19  C   UNL     1      33.238 -22.808 -17.823  0.00  0.00    +0.011 C 
ATOM     20  C   UNL     1      32.951 -23.858 -15.219  0.00  0.00    +0.060 C 
ATOM     21  C   UNL     1      31.993 -22.801 -17.201  0.00  0.00    +0.060 C 
ATOM     22  C   UNL     1      34.335 -23.334 -17.152  0.00  0.00    -0.017 C 
ATOM     23  C   UNL     1      34.185 -23.852 -15.864  0.00  0.00    +0.072 C 
ATOM     24  C   UNL     1      30.600 -23.327 -15.257  0.00  0.00    -0.001 C 
ATOM     25  C   UNL     1      30.482 -23.848 -13.976  0.00  0.00    +0.020 C 
ATOM     26  C   UNL     1      31.624 -24.351 -13.386  0.00  0.00    +0.098 C 
ENDBRANCH  16  19
ENDBRANCH   7  16
TORSDOF 3
ENDMDL
MODEL 8
REMARK VINA RESULT:      -9.6      5.721     12.431
REMARK  Name = 24779724
REMARK  3 active torsions:
REMARK  status: ('A' for Active; 'I' for Inactive)
REMARK    1  A    between atoms: C_5  and  C_12
REMARK    2  A    between atoms: C_7  and  S_16
REMARK    3  A    between atoms: S_16  and  C_19
REMARK                            x       y       z     vdW  Elec       q    Type
REMARK                         _______ _______ _______ _____ _____    ______ ____
ROOT
ATOM      1  N   UNL     1      32.026 -10.747 -20.897  0.00  0.00    -0.186 N 
ATOM      2  N   UNL     1      32.315  -9.799 -21.823  0.00  0.00    -0.162 NA
ATOM      3  N   UNL     1      31.458 -11.723 -19.013  0.00  0.00    -0.126 NA
ATOM      4  N   UNL     1      31.704 -12.701 -19.956  0.00  0.00    -0.120 NA
ATOM      5  C   UNL     1      32.208  -8.579 -21.377  0.00  0.00    +0.104 C 
ATOM      6  C   UNL     1      31.653 -10.555 -19.588  0.00  0.00    +0.187 A 
ATOM      7  C   UNL     1      32.044 -12.101 -21.074  0.00  0.00    +0.217 A 
ATOM      8  C   UNL     1      31.829  -8.220 -19.971  0.00  0.00    +0.024 C 
ATOM      9  C   UNL     1      31.564  -9.226 -19.128  0.00  0.00    +0.042 C 
ENDROOT
BRANCH   5  12
ATOM     10  N   UNL     1      32.374  -5.552 -23.376  0.00  0.00    -0.208 N 
ATOM     11  N   UNL     1      33.474  -6.132 -23.885  0.00  0.00    -0.176 NA
ATOM     12  C   UNL     1      32.493  -7.449 -22.298  0.00  0.00    +0.056 C 
ATOM     13  C   UNL     1      31.749  -6.301 -22.422  0.00  0.00    +0.087 C 
ATOM     14  C   UNL     1      33.542  -7.289 -23.223  0.00  0.00    +0.121 C 
ATOM     15  C   UNL     1      31.961  -4.254 -23.852  0.00  0.00    +0.140 C 
ENDBRANCH   5  12
BRANCH   7  16
ATOM     16  S   UNL     1      32.471 -12.887 -22.620  0.00  0.00    -0.051 S 
BRANCH  16  19
ATOM     17  N   UNL     1      35.418 -17.675 -20.675  0.00  0.00    -0.248 NA
ATOM     18  C   UNL     1      34.565 -16.375 -22.516  0.00  0.00    -0.003 C 
ATOM     19  C   UNL     1      33.356 -14.323 -22.049  0.00  0.00    +0.011 C 
ATOM     20  C   UNL     1      34.755 -16.598 -21.136  0.00  0.00    +0.060 C 
ATOM     21  C   UNL     1      33.867 -15.240 -22.962  0.00  0.00    +0.060 C 
ATOM     22  C   UNL     1      33.539 -14.536 -20.688  0.00  0.00    -0.017 C 
ATOM     23  C   UNL     1      34.233 -15.665 -20.245  0.00  0.00    +0.072 C 
ATOM     24  C   UNL     1      35.090 -17.314 -23.414  0.00  0.00    -0.001 C 
ATOM     25  C   UNL     1      35.774 -18.425 -22.942  0.00  0.00    +0.020 C 
ATOM     26  C   UNL     1      35.910 -18.557 -21.575  0.00  0.00    +0.098 C 
ENDBRANCH  16  19
ENDBRANCH   7  16
TORSDOF 3
ENDMDL
MODEL 9
REMARK VINA RESULT:      -9.6      6.560     13.466
REMARK  Name = 24779724
REMARK  3 active torsions:
REMARK  status: ('A' for Active; 'I' for Inactive)
REMARK    1  A    between atoms: C_5  and  C_12
REMARK    2  A    between atoms: C_7  and  S_16
REMARK    3  A    between atoms: S_16  and  C_19
REMARK                            x       y       z     vdW  Elec       q    Type
REMARK                         _______ _______ _______ _____ _____    ______ ____
ROOT
ATOM      1  N   UNL     1      32.039  -9.154 -20.842  0.00  0.00    -0.186 N 
ATOM      2  N   UNL     1      32.068  -8.442 -21.996  0.00  0.00    -0.162 NA
ATOM      3  N   UNL     1      32.181  -9.697 -18.719  0.00  0.00    -0.126 NA
ATOM      4  N   UNL     1      31.791 -10.813 -19.431  0.00  0.00    -0.120 NA
ATOM      5  C   UNL     1      32.409  -7.194 -21.836  0.00  0.00    +0.104 C 
ATOM      6  C   UNL     1      32.327  -8.707 -19.574  0.00  0.00    +0.187 A 
ATOM      7  C   UNL     1      31.713 -10.471 -20.698  0.00  0.00    +0.217 A 
ATOM      8  C   UNL     1      32.767  -6.575 -20.518  0.00  0.00    +0.024 C 
ATOM      9  C   UNL     1      32.710  -7.359 -19.433  0.00  0.00    +0.042 C 
ENDROOT
BRANCH   5  12
ATOM     10  N   UNL     1      33.010  -5.440 -24.958  0.00  0.00    -0.208 N 
ATOM     11  N   UNL     1      32.078  -4.594 -24.485  0.00  0.00    -0.176 NA
ATOM     12  C   UNL     1      32.472  -6.307 -23.026  0.00  0.00    +0.056 C 
ATOM     13  C   UNL     1      33.282  -6.483 -24.121  0.00  0.00    +0.087 C 
ATOM     14  C   UNL     1      31.754  -5.129 -23.305  0.00  0.00    +0.121 C 
ATOM     15  C   UNL     1      33.616  -5.192 -26.244  0.00  0.00    +0.140 C 
ENDBRANCH   5  12
BRANCH   7  16
ATOM     16  S   UNL     1      31.252 -11.528 -22.062  0.00  0.00    -0.051 S 
BRANCH  16  19
ATOM     17  N   UNL     1      34.409 -16.419 -20.836  0.00  0.00    -0.248 NA
ATOM     18  C   UNL     1      33.721 -14.743 -22.425  0.00  0.00    -0.003 C 
ATOM     19  C   UNL     1      32.202 -12.992 -21.705  0.00  0.00    +0.011 C 
ATOM     20  C   UNL     1      33.703 -15.313 -21.134  0.00  0.00    +0.060 C 
ATOM     21  C   UNL     1      32.971 -13.587 -22.701  0.00  0.00    +0.060 C 
ATOM     22  C   UNL     1      32.178 -13.549 -20.433  0.00  0.00    -0.017 C 
ATOM     23  C   UNL     1      32.924 -14.697 -20.158  0.00  0.00    +0.072 C 
ATOM     24  C   UNL     1      34.505 -15.362 -23.407  0.00  0.00    -0.001 C 
ATOM     25  C   UNL     1      35.234 -16.502 -23.103  0.00  0.00    +0.020 C 
ATOM     26  C   UNL     1      35.153 -16.986 -21.813  0.00  0.00    +0.098 C 
ENDBRANCH  16  19
ENDBRANCH   7  16
TORSDOF 3
ENDMDL
