MODEL 1
REMARK VINA RESULT:     -11.0      0.000      0.000
REMARK  Name = 11626560
REMARK  5 active torsions:
REMARK  status: ('A' for Active; 'I' for Inactive)
REMARK    1  A    between atoms: C_2  and  C_10
REMARK    2  A    between atoms: C_5  and  O_23
REMARK    3  A    between atoms: N_7  and  C_13
REMARK    4  A    between atoms: O_23  and  C_24
REMARK    5  A    between atoms: C_24  and  C_29
REMARK                            x       y       z     vdW  Elec       q    Type
REMARK                         _______ _______ _______ _____ _____    ______ ____
ROOT
ATOM      1  N   UNL     1      32.950 -22.178 -19.320  0.00  0.00    -0.226 NA
ATOM      2  C   UNL     1      34.904 -20.902 -19.963  0.00  0.00    +0.025 C 
ATOM      3  C   UNL     1      35.663 -21.581 -19.013  0.00  0.00    +0.041 C 
ATOM      4  C   UNL     1      33.563 -21.237 -20.073  0.00  0.00    +0.101 C 
ATOM      5  C   UNL     1      35.070 -22.554 -18.219  0.00  0.00    +0.170 C 
ATOM      6  C   UNL     1      33.722 -22.814 -18.410  0.00  0.00    +0.160 C 
ATOM      7  N   UNL     1      33.115 -23.808 -17.603  0.00  0.00    -0.340 N 
ATOM      8  H   UNL     1      32.159 -24.017 -17.713  0.00  0.00    +0.144 HD
ATOM      9  H   UNL     1      33.650 -24.291 -16.931  0.00  0.00    +0.144 HD
ENDROOT
BRANCH   2  13
ATOM     10  N   UNL     1      35.688 -18.194 -22.144  0.00  0.00    -0.212 N 
ATOM     11  N   UNL     1      36.958 -18.569 -21.932  0.00  0.00    -0.176 NA
ATOM     12  C   UNL     1      34.767 -18.952 -21.487  0.00  0.00    +0.086 C 
ATOM     13  C   UNL     1      35.487 -19.895 -20.794  0.00  0.00    +0.039 C 
ATOM     14  C   UNL     1      36.831 -19.611 -21.106  0.00  0.00    +0.119 C 
BRANCH  10  16
ATOM     15  N   UNL     1      33.626 -15.189 -24.398  0.00  0.00    +0.384 N 
ATOM     16  C   UNL     1      35.405 -17.053 -23.020  0.00  0.00    +0.092 C 
ATOM     17  C   UNL     1      34.698 -15.902 -22.286  0.00  0.00    -0.002 C 
ATOM     18  C   UNL     1      34.620 -17.451 -24.280  0.00  0.00    -0.002 C 
ATOM     19  C   UNL     1      34.404 -14.746 -23.241  0.00  0.00    -0.080 C 
ATOM     20  C   UNL     1      34.328 -16.229 -25.151  0.00  0.00    -0.080 C 
ATOM     21  H   UNL     1      33.461 -14.391 -25.012  0.00  0.00    -0.085 HD
ATOM     22  H   UNL     1      32.745 -15.577 -24.063  0.00  0.00    -0.085 HD
ENDBRANCH  10  16
ENDBRANCH   2  13
BRANCH   5  23
ATOM     23  O   UNL     1      35.810 -23.218 -17.293  0.00  0.00    -0.472 OA
BRANCH  23  24
ATOM     24  C   UNL     1      36.041 -22.558 -16.048  0.00  0.00    +0.190 C 
ATOM     25  C   UNL     1      37.286 -21.686 -16.159  0.00  0.00    +0.052 C 
BRANCH  24  29
ATOM     26 CL   UNL     1      33.525 -23.160 -14.438  0.00  0.00    -0.080 Cl
ATOM     27 CL   UNL     1      38.790 -23.830 -15.673  0.00  0.00    -0.082 Cl
ATOM     28  F   UNL     1      34.122 -25.198 -12.411  0.00  0.00    -0.203 F 
ATOM     29  C   UNL     1      36.168 -23.592 -14.953  0.00  0.00    +0.041 C 
ATOM     30  C   UNL     1      35.058 -23.913 -14.181  0.00  0.00    +0.085 C 
ATOM     31  C   UNL     1      37.393 -24.208 -14.732  0.00  0.00    +0.058 C 
ATOM     32  C   UNL     1      35.176 -24.868 -13.171  0.00  0.00    +0.150 C 
ATOM     33  C   UNL     1      37.510 -25.162 -13.721  0.00  0.00    +0.014 C 
ATOM     34  C   UNL     1      36.402 -25.491 -12.941  0.00  0.00    +0.031 C 
ENDBRANCH  24  29
ENDBRANCH  23  24
ENDBRANCH   5  23
TORSDOF 5
ENDMDL
MODEL 2
REMARK VINA RESULT:     -11.0      0.875      1.877
REMARK  Name = 11626560
REMARK  5 active torsions:
REMARK  status: ('A' for Active; 'I' for Inactive)
REMARK    1  A    between atoms: C_2  and  C_10
REMARK    2  A    between atoms: C_5  and  O_23
REMARK    3  A    between atoms: N_7  and  C_13
REMARK    4  A    between atoms: O_23  and  C_24
REMARK    5  A    between atoms: C_24  and  C_29
REMARK                            x       y       z     vdW  Elec       q    Type
REMARK                         _______ _______ _______ _____ _____    ______ ____
ROOT
ATOM      1  N   UNL     1      33.091 -22.252 -19.370  0.00  0.00    -0.226 NA
ATOM      2  C   UNL     1      35.007 -20.899 -19.967  0.00  0.00    +0.025 C 
ATOM      3  C   UNL     1      35.776 -21.561 -19.013  0.00  0.00    +0.041 C 
ATOM      4  C   UNL     1      33.681 -21.281 -20.103  0.00  0.00    +0.101 C 
ATOM      5  C   UNL     1      35.206 -22.565 -18.240  0.00  0.00    +0.170 C 
ATOM      6  C   UNL     1      33.871 -22.870 -18.455  0.00  0.00    +0.160 C 
ATOM      7  N   UNL     1      33.288 -23.895 -17.669  0.00  0.00    -0.340 N 
ATOM      8  H   UNL     1      32.342 -24.137 -17.797  0.00  0.00    +0.144 HD
ATOM      9  H   UNL     1      33.829 -24.366 -16.994  0.00  0.00    +0.144 HD
ENDROOT
BRANCH   2  13
ATOM     10  N   UNL     1      35.726 -18.141 -22.108  0.00  0.00    -0.212 N 
ATOM     11  N   UNL     1      37.006 -18.469 -21.875  0.00  0.00    -0.176 NA
ATOM     12  C   UNL     1      34.823 -18.940 -21.475  0.00  0.00    +0.086 C 
ATOM     13  C   UNL     1      35.566 -19.862 -20.778  0.00  0.00    +0.039 C 
ATOM     14  C   UNL     1      36.904 -19.523 -21.061  0.00  0.00    +0.119 C 
BRANCH  10  16
ATOM     15  N   UNL     1      33.592 -15.189 -24.365  0.00  0.00    +0.384 N 
ATOM     16  C   UNL     1      35.416 -17.003 -22.979  0.00  0.00    +0.092 C 
ATOM     17  C   UNL     1      34.662 -15.883 -22.245  0.00  0.00    -0.002 C 
ATOM     18  C   UNL     1      34.659 -17.418 -24.251  0.00  0.00    -0.002 C 
ATOM     19  C   UNL     1      34.341 -14.729 -23.195  0.00  0.00    -0.080 C 
ATOM     20  C   UNL     1      34.338 -16.199 -25.116  0.00  0.00    -0.080 C 
ATOM     21  H   UNL     1      33.407 -14.392 -24.975  0.00  0.00    -0.085 HD
ATOM     22  H   UNL     1      32.720 -15.609 -24.043  0.00  0.00    -0.085 HD
ENDBRANCH  10  16
ENDBRANCH   2  13
BRANCH   5  23
ATOM     23  O   UNL     1      35.955 -23.212 -17.310  0.00  0.00    -0.472 OA
BRANCH  23  24
ATOM     24  C   UNL     1      36.119 -22.572 -16.044  0.00  0.00    +0.190 C 
ATOM     25  C   UNL     1      37.346 -21.667 -16.088  0.00  0.00    +0.052 C 
BRANCH  24  29
ATOM     26 CL   UNL     1      38.862 -23.836 -15.639  0.00  0.00    -0.080 Cl
ATOM     27 CL   UNL     1      33.571 -23.215 -14.491  0.00  0.00    -0.082 Cl
ATOM     28  F   UNL     1      38.718 -25.821 -13.481  0.00  0.00    -0.203 F 
ATOM     29  C   UNL     1      36.228 -23.623 -14.964  0.00  0.00    +0.041 C 
ATOM     30  C   UNL     1      37.450 -24.240 -14.729  0.00  0.00    +0.085 C 
ATOM     31  C   UNL     1      35.104 -23.961 -14.221  0.00  0.00    +0.058 C 
ATOM     32  C   UNL     1      37.551 -25.210 -13.731  0.00  0.00    +0.150 C 
ATOM     33  C   UNL     1      35.205 -24.932 -13.225  0.00  0.00    +0.014 C 
ATOM     34  C   UNL     1      36.427 -25.557 -12.981  0.00  0.00    +0.031 C 
ENDBRANCH  24  29
ENDBRANCH  23  24
ENDBRANCH   5  23
TORSDOF 5
ENDMDL
MODEL 3
REMARK VINA RESULT:     -10.8      8.308     12.214
REMARK  Name = 11626560
REMARK  5 active torsions:
REMARK  status: ('A' for Active; 'I' for Inactive)
REMARK    1  A    between atoms: C_2  and  C_10
REMARK    2  A    between atoms: C_5  and  O_23
REMARK    3  A    between atoms: N_7  and  C_13
REMARK    4  A    between atoms: O_23  and  C_24
REMARK    5  A    between atoms: C_24  and  C_29
REMARK                            x       y       z     vdW  Elec       q    Type
REMARK                         _______ _______ _______ _____ _____    ______ ____
ROOT
ATOM      1  N   UNL     1      31.610 -11.987 -19.385  0.00  0.00    -0.226 NA
ATOM      2  C   UNL     1      31.827 -10.145 -20.940  0.00  0.00    +0.025 C 
ATOM      3  C   UNL     1      32.116 -11.041 -21.966  0.00  0.00    +0.041 C 
ATOM      4  C   UNL     1      31.584 -10.667 -19.679  0.00  0.00    +0.101 C 
ATOM      5  C   UNL     1      32.153 -12.406 -21.704  0.00  0.00    +0.170 C 
ATOM      6  C   UNL     1      31.894 -12.824 -20.408  0.00  0.00    +0.160 C 
ATOM      7  N   UNL     1      31.929 -14.215 -20.138  0.00  0.00    -0.340 N 
ATOM      8  H   UNL     1      31.750 -14.546 -19.229  0.00  0.00    +0.144 HD
ATOM      9  H   UNL     1      32.132 -14.851 -20.862  0.00  0.00    +0.144 HD
ENDROOT
BRANCH   2  13
ATOM     10  N   UNL     1      31.619  -6.822 -22.210  0.00  0.00    -0.212 N 
ATOM     11  N   UNL     1      31.803  -6.466 -20.930  0.00  0.00    -0.176 NA
ATOM     12  C   UNL     1      31.598  -8.167 -22.416  0.00  0.00    +0.086 C 
ATOM     13  C   UNL     1      31.783  -8.736 -21.179  0.00  0.00    +0.039 C 
ATOM     14  C   UNL     1      31.903  -7.641 -20.302  0.00  0.00    +0.119 C 
BRANCH  10  16
ATOM     15  N   UNL     1      32.044  -3.189 -24.443  0.00  0.00    +0.384 N 
ATOM     16  C   UNL     1      31.461  -5.785 -23.235  0.00  0.00    +0.092 C 
ATOM     17  C   UNL     1      32.760  -5.517 -24.012  0.00  0.00    -0.002 C 
ATOM     18  C   UNL     1      30.891  -4.474 -22.671  0.00  0.00    -0.002 C 
ATOM     19  C   UNL     1      32.555  -4.416 -25.053  0.00  0.00    -0.080 C 
ATOM     20  C   UNL     1      30.765  -3.417 -23.769  0.00  0.00    -0.080 C 
ATOM     21  H   UNL     1      31.913  -2.486 -25.171  0.00  0.00    -0.085 HD
ATOM     22  H   UNL     1      32.719  -2.870 -23.748  0.00  0.00    -0.085 HD
ENDBRANCH  10  16
ENDBRANCH   2  13
BRANCH   5  23
ATOM     23  O   UNL     1      32.434 -13.281 -22.704  0.00  0.00    -0.472 OA
BRANCH  23  24
ATOM     24  C   UNL     1      33.799 -13.394 -23.107  0.00  0.00    +0.190 C 
ATOM     25  C   UNL     1      34.108 -12.331 -24.155  0.00  0.00    +0.052 C 
BRANCH  24  29
ATOM     26 CL   UNL     1      34.922 -15.407 -21.114  0.00  0.00    -0.080 Cl
ATOM     27 CL   UNL     1      33.133 -13.913 -26.040  0.00  0.00    -0.082 Cl
ATOM     28  F   UNL     1      35.288 -18.000 -22.441  0.00  0.00    -0.203 F 
ATOM     29  C   UNL     1      34.051 -14.791 -23.624  0.00  0.00    +0.041 C 
ATOM     30  C   UNL     1      34.563 -15.758 -22.767  0.00  0.00    +0.085 C 
ATOM     31  C   UNL     1      33.768 -15.092 -24.950  0.00  0.00    +0.058 C 
ATOM     32  C   UNL     1      34.795 -17.047 -23.245  0.00  0.00    +0.150 C 
ATOM     33  C   UNL     1      34.001 -16.382 -25.428  0.00  0.00    +0.014 C 
ATOM     34  C   UNL     1      34.515 -17.359 -24.576  0.00  0.00    +0.031 C 
ENDBRANCH  24  29
ENDBRANCH  23  24
ENDBRANCH   5  23
TORSDOF 5
ENDMDL
MODEL 4
REMARK VINA RESULT:     -10.7      5.604     10.869
REMARK  Name = 11626560
REMARK  5 active torsions:
REMARK  status: ('A' for Active; 'I' for Inactive)
REMARK    1  A    between atoms: C_2  and  C_10
REMARK    2  A    between atoms: C_5  and  O_23
REMARK    3  A    between atoms: N_7  and  C_13
REMARK    4  A    between atoms: O_23  and  C_24
REMARK    5  A    between atoms: C_24  and  C_29
REMARK                            x       y       z     vdW  Elec       q    Type
REMARK                         _______ _______ _______ _____ _____    ______ ____
ROOT
ATOM      1  N   UNL     1      34.472 -17.201 -25.486  0.00  0.00    -0.226 NA
ATOM      2  C   UNL     1      34.972 -17.600 -23.152  0.00  0.00    +0.025 C 
ATOM      3  C   UNL     1      34.376 -16.388 -22.813  0.00  0.00    +0.041 C 
ATOM      4  C   UNL     1      34.993 -17.955 -24.492  0.00  0.00    +0.101 C 
ATOM      5  C   UNL     1      33.830 -15.584 -23.807  0.00  0.00    +0.170 C 
ATOM      6  C   UNL     1      33.903 -16.031 -25.117  0.00  0.00    +0.160 C 
ATOM      7  N   UNL     1      33.344 -15.215 -26.131  0.00  0.00    -0.340 N 
ATOM      8  H   UNL     1      33.380 -15.503 -27.071  0.00  0.00    +0.144 HD
ATOM      9  H   UNL     1      32.921 -14.357 -25.895  0.00  0.00    +0.144 HD
ENDROOT
BRANCH   2  13
ATOM     10  N   UNL     1      35.799 -20.085 -20.734  0.00  0.00    -0.212 N 
ATOM     11  N   UNL     1      36.931 -19.379 -20.595  0.00  0.00    -0.176 NA
ATOM     12  C   UNL     1      34.934 -19.574 -21.653  0.00  0.00    +0.086 C 
ATOM     13  C   UNL     1      35.543 -18.448 -22.152  0.00  0.00    +0.039 C 
ATOM     14  C   UNL     1      36.770 -18.378 -21.464  0.00  0.00    +0.119 C 
BRANCH  10  16
ATOM     15  N   UNL     1      34.817 -22.717 -17.498  0.00  0.00    +0.384 N 
ATOM     16  C   UNL     1      35.594 -21.293 -19.928  0.00  0.00    +0.092 C 
ATOM     17  C   UNL     1      34.123 -21.503 -19.538  0.00  0.00    -0.002 C 
ATOM     18  C   UNL     1      36.493 -21.335 -18.682  0.00  0.00    -0.002 C 
ATOM     19  C   UNL     1      33.959 -22.758 -18.682  0.00  0.00    -0.080 C 
ATOM     20  C   UNL     1      36.230 -22.598 -17.862  0.00  0.00    -0.080 C 
ATOM     21  H   UNL     1      34.685 -23.574 -16.961  0.00  0.00    -0.085 HD
ATOM     22  H   UNL     1      34.560 -21.899 -16.944  0.00  0.00    -0.085 HD
ENDBRANCH  10  16
ENDBRANCH   2  13
BRANCH   5  23
ATOM     23  O   UNL     1      33.248 -14.401 -23.477  0.00  0.00    -0.472 OA
BRANCH  23  24
ATOM     24  C   UNL     1      34.061 -13.437 -22.808  0.00  0.00    +0.190 C 
ATOM     25  C   UNL     1      34.592 -14.035 -21.511  0.00  0.00    +0.052 C 
BRANCH  24  29
ATOM     26 CL   UNL     1      31.915 -13.591 -20.651  0.00  0.00    -0.080 Cl
ATOM     27 CL   UNL     1      34.741 -11.010 -24.530  0.00  0.00    -0.082 Cl
ATOM     28  F   UNL     1      30.545 -11.004 -20.444  0.00  0.00    -0.203 F 
ATOM     29  C   UNL     1      33.252 -12.184 -22.567  0.00  0.00    +0.041 C 
ATOM     30  C   UNL     1      32.257 -12.187 -21.597  0.00  0.00    +0.085 C 
ATOM     31  C   UNL     1      33.513 -11.045 -23.317  0.00  0.00    +0.058 C 
ATOM     32  C   UNL     1      31.511 -11.030 -21.374  0.00  0.00    +0.150 C 
ATOM     33  C   UNL     1      32.766  -9.889 -23.094  0.00  0.00    +0.014 C 
ATOM     34  C   UNL     1      31.765  -9.881 -22.123  0.00  0.00    +0.031 C 
ENDBRANCH  24  29
ENDBRANCH  23  24
ENDBRANCH   5  23
TORSDOF 5
ENDMDL
MODEL 5
REMARK VINA RESULT:     -10.6      5.938     11.094
REMARK  Name = 11626560
REMARK  5 active torsions:
REMARK  status: ('A' for Active; 'I' for Inactive)
REMARK    1  A    between atoms: C_2  and  C_10
REMARK    2  A    between atoms: C_5  and  O_23
REMARK    3  A    between atoms: N_7  and  C_13
REMARK    4  A    between atoms: O_23  and  C_24
REMARK    5  A    between atoms: C_24  and  C_29
REMARK                            x       y       z     vdW  Elec       q    Type
REMARK                         _______ _______ _______ _____ _____    ______ ____
ROOT
ATOM      1  N   UNL     1      34.479 -17.150 -25.478  0.00  0.00    -0.226 NA
ATOM      2  C   UNL     1      34.952 -17.580 -23.144  0.00  0.00    +0.025 C 
ATOM      3  C   UNL     1      34.347 -16.375 -22.796  0.00  0.00    +0.041 C 
ATOM      4  C   UNL     1      34.990 -17.916 -24.488  0.00  0.00    +0.101 C 
ATOM      5  C   UNL     1      33.810 -15.559 -23.785  0.00  0.00    +0.170 C 
ATOM      6  C   UNL     1      33.901 -15.988 -25.099  0.00  0.00    +0.160 C 
ATOM      7  N   UNL     1      33.352 -15.159 -26.109  0.00  0.00    -0.340 N 
ATOM      8  H   UNL     1      33.400 -15.434 -27.053  0.00  0.00    +0.144 HD
ATOM      9  H   UNL     1      32.923 -14.306 -25.866  0.00  0.00    +0.144 HD
ENDROOT
BRANCH   2  13
ATOM     10  N   UNL     1      35.749 -20.084 -20.736  0.00  0.00    -0.212 N 
ATOM     11  N   UNL     1      36.894 -19.398 -20.601  0.00  0.00    -0.176 NA
ATOM     12  C   UNL     1      34.888 -19.556 -21.649  0.00  0.00    +0.086 C 
ATOM     13  C   UNL     1      35.513 -18.440 -22.149  0.00  0.00    +0.039 C 
ATOM     14  C   UNL     1      36.745 -18.392 -21.467  0.00  0.00    +0.119 C 
BRANCH  10  16
ATOM     15  N   UNL     1      34.743 -22.707 -17.499  0.00  0.00    +0.384 N 
ATOM     16  C   UNL     1      35.528 -21.291 -19.932  0.00  0.00    +0.092 C 
ATOM     17  C   UNL     1      34.056 -21.474 -19.531  0.00  0.00    -0.002 C 
ATOM     18  C   UNL     1      36.435 -21.353 -18.693  0.00  0.00    -0.002 C 
ATOM     19  C   UNL     1      33.876 -22.729 -18.677  0.00  0.00    -0.080 C 
ATOM     20  C   UNL     1      36.155 -22.613 -17.874  0.00  0.00    -0.080 C 
ATOM     21  H   UNL     1      34.599 -23.563 -16.964  0.00  0.00    -0.085 HD
ATOM     22  H   UNL     1      34.506 -21.886 -16.941  0.00  0.00    -0.085 HD
ENDBRANCH  10  16
ENDBRANCH   2  13
BRANCH   5  23
ATOM     23  O   UNL     1      33.219 -14.383 -23.446  0.00  0.00    -0.472 OA
BRANCH  23  24
ATOM     24  C   UNL     1      34.023 -13.423 -22.760  0.00  0.00    +0.190 C 
ATOM     25  C   UNL     1      34.584 -14.049 -21.488  0.00  0.00    +0.052 C 
BRANCH  24  29
ATOM     26 CL   UNL     1      34.676 -10.919 -24.368  0.00  0.00    -0.080 Cl
ATOM     27 CL   UNL     1      31.862 -13.702 -20.622  0.00  0.00    -0.082 Cl
ATOM     28  F   UNL     1      32.886  -8.738 -23.557  0.00  0.00    -0.203 F 
ATOM     29  C   UNL     1      33.192 -12.195 -22.469  0.00  0.00    +0.041 C 
ATOM     30  C   UNL     1      33.439 -11.020 -23.167  0.00  0.00    +0.085 C 
ATOM     31  C   UNL     1      32.192 -12.257 -21.507  0.00  0.00    +0.058 C 
ATOM     32  C   UNL     1      32.671  -9.886 -22.899  0.00  0.00    +0.150 C 
ATOM     33  C   UNL     1      31.425 -11.123 -21.239  0.00  0.00    +0.014 C 
ATOM     34  C   UNL     1      31.665  -9.938 -21.934  0.00  0.00    +0.031 C 
ENDBRANCH  24  29
ENDBRANCH  23  24
ENDBRANCH   5  23
TORSDOF 5
ENDMDL
MODEL 6
REMARK VINA RESULT:     -10.5      8.231     12.222
REMARK  Name = 11626560
REMARK  5 active torsions:
REMARK  status: ('A' for Active; 'I' for Inactive)
REMARK    1  A    between atoms: C_2  and  C_10
REMARK    2  A    between atoms: C_5  and  O_23
REMARK    3  A    between atoms: N_7  and  C_13
REMARK    4  A    between atoms: O_23  and  C_24
REMARK    5  A    between atoms: C_24  and  C_29
REMARK                            x       y       z     vdW  Elec       q    Type
REMARK                         _______ _______ _______ _____ _____    ______ ____
ROOT
ATOM      1  N   UNL     1      31.521 -11.776 -19.331  0.00  0.00    -0.226 NA
ATOM      2  C   UNL     1      31.817  -9.978 -20.925  0.00  0.00    +0.025 C 
ATOM      3  C   UNL     1      32.118 -10.905 -21.920  0.00  0.00    +0.041 C 
ATOM      4  C   UNL     1      31.529 -10.464 -19.659  0.00  0.00    +0.101 C 
ATOM      5  C   UNL     1      32.121 -12.263 -21.623  0.00  0.00    +0.170 C 
ATOM      6  C   UNL     1      31.818 -12.644 -20.325  0.00  0.00    +0.160 C 
ATOM      7  N   UNL     1      31.818 -14.027 -20.020  0.00  0.00    -0.340 N 
ATOM      8  H   UNL     1      31.608 -14.332 -19.108  0.00  0.00    +0.144 HD
ATOM      9  H   UNL     1      32.030 -14.686 -20.722  0.00  0.00    +0.144 HD
ENDROOT
BRANCH   2  13
ATOM     10  N   UNL     1      31.664  -6.684 -22.276  0.00  0.00    -0.212 N 
ATOM     11  N   UNL     1      31.904  -6.301 -21.013  0.00  0.00    -0.176 NA
ATOM     12  C   UNL     1      31.594  -8.033 -22.445  0.00  0.00    +0.086 C 
ATOM     13  C   UNL     1      31.807  -8.575 -21.201  0.00  0.00    +0.039 C 
ATOM     14  C   UNL     1      31.992  -7.462 -20.358  0.00  0.00    +0.119 C 
BRANCH  10  16
ATOM     15  N   UNL     1      32.061  -3.092 -24.580  0.00  0.00    +0.384 N 
ATOM     16  C   UNL     1      31.500  -5.670 -23.323  0.00  0.00    +0.092 C 
ATOM     17  C   UNL     1      32.799  -5.403 -24.099  0.00  0.00    -0.002 C 
ATOM     18  C   UNL     1      30.914  -4.353 -22.788  0.00  0.00    -0.002 C 
ATOM     19  C   UNL     1      32.588  -4.326 -25.162  0.00  0.00    -0.080 C 
ATOM     20  C   UNL     1      30.782  -3.320 -23.907  0.00  0.00    -0.080 C 
ATOM     21  H   UNL     1      31.926  -2.405 -25.322  0.00  0.00    -0.085 HD
ATOM     22  H   UNL     1      32.730  -2.752 -23.889  0.00  0.00    -0.085 HD
ENDBRANCH  10  16
ENDBRANCH   2  13
BRANCH   5  23
ATOM     23  O   UNL     1      32.413 -13.168 -22.593  0.00  0.00    -0.472 OA
BRANCH  23  24
ATOM     24  C   UNL     1      33.773 -13.251 -23.019  0.00  0.00    +0.190 C 
ATOM     25  C   UNL     1      33.931 -12.531 -24.354  0.00  0.00    +0.052 C 
BRANCH  24  29
ATOM     26 CL   UNL     1      33.453 -14.599 -25.733  0.00  0.00    -0.080 Cl
ATOM     27 CL   UNL     1      34.832 -14.537 -20.461  0.00  0.00    -0.082 Cl
ATOM     28  F   UNL     1      34.330 -17.394 -25.549  0.00  0.00    -0.203 F 
ATOM     29  C   UNL     1      34.180 -14.703 -23.107  0.00  0.00    +0.041 C 
ATOM     30  C   UNL     1      34.059 -15.378 -24.315  0.00  0.00    +0.085 C 
ATOM     31  C   UNL     1      34.671 -15.347 -21.977  0.00  0.00    +0.058 C 
ATOM     32  C   UNL     1      34.436 -16.719 -24.396  0.00  0.00    +0.150 C 
ATOM     33  C   UNL     1      35.046 -16.687 -22.058  0.00  0.00    +0.014 C 
ATOM     34  C   UNL     1      34.928 -17.373 -23.267  0.00  0.00    +0.031 C 
ENDBRANCH  24  29
ENDBRANCH  23  24
ENDBRANCH   5  23
TORSDOF 5
ENDMDL
MODEL 7
REMARK VINA RESULT:     -10.1      8.830     13.586
REMARK  Name = 11626560
REMARK  5 active torsions:
REMARK  status: ('A' for Active; 'I' for Inactive)
REMARK    1  A    between atoms: C_2  and  C_10
REMARK    2  A    between atoms: C_5  and  O_23
REMARK    3  A    between atoms: N_7  and  C_13
REMARK    4  A    between atoms: O_23  and  C_24
REMARK    5  A    between atoms: C_24  and  C_29
REMARK                            x       y       z     vdW  Elec       q    Type
REMARK                         _______ _______ _______ _____ _____    ______ ____
ROOT
ATOM      1  N   UNL     1      31.538 -12.488 -19.492  0.00  0.00    -0.226 NA
ATOM      2  C   UNL     1      32.547 -12.849 -21.662  0.00  0.00    +0.025 C 
ATOM      3  C   UNL     1      32.377 -11.502 -21.969  0.00  0.00    +0.041 C 
ATOM      4  C   UNL     1      32.113 -13.286 -20.420  0.00  0.00    +0.101 C 
ATOM      5  C   UNL     1      31.790 -10.649 -21.042  0.00  0.00    +0.170 C 
ATOM      6  C   UNL     1      31.391 -11.186 -19.828  0.00  0.00    +0.160 C 
ATOM      7  N   UNL     1      30.795 -10.318 -18.881  0.00  0.00    -0.340 N 
ATOM      8  H   UNL     1      30.500 -10.668 -18.009  0.00  0.00    +0.144 HD
ATOM      9  H   UNL     1      30.674  -9.364 -19.094  0.00  0.00    +0.144 HD
ENDROOT
BRANCH   2  13
ATOM     10  N   UNL     1      34.175 -15.489 -23.419  0.00  0.00    -0.212 N 
ATOM     11  N   UNL     1      33.922 -14.741 -24.503  0.00  0.00    -0.176 NA
ATOM     12  C   UNL     1      33.732 -14.945 -22.252  0.00  0.00    +0.086 C 
ATOM     13  C   UNL     1      33.147 -13.750 -22.596  0.00  0.00    +0.039 C 
ATOM     14  C   UNL     1      33.294 -13.677 -23.995  0.00  0.00    +0.119 C 
BRANCH  10  16
ATOM     15  N   UNL     1      35.128 -19.663 -23.238  0.00  0.00    +0.384 N 
ATOM     16  C   UNL     1      34.870 -16.771 -23.569  0.00  0.00    +0.092 C 
ATOM     17  C   UNL     1      34.096 -17.767 -24.446  0.00  0.00    -0.002 C 
ATOM     18  C   UNL     1      35.233 -17.412 -22.219  0.00  0.00    -0.002 C 
ATOM     19  C   UNL     1      34.845 -19.095 -24.556  0.00  0.00    -0.080 C 
ATOM     20  C   UNL     1      35.934 -18.755 -22.423  0.00  0.00    -0.080 C 
ATOM     21  H   UNL     1      35.635 -20.540 -23.357  0.00  0.00    -0.085 HD
ATOM     22  H   UNL     1      34.240 -19.820 -22.759  0.00  0.00    -0.085 HD
ENDBRANCH  10  16
ENDBRANCH   2  13
BRANCH   5  23
ATOM     23  O   UNL     1      31.625  -9.334 -21.341  0.00  0.00    -0.472 OA
BRANCH  23  24
ATOM     24  C   UNL     1      32.764  -8.485 -21.201  0.00  0.00    +0.190 C 
ATOM     25  C   UNL     1      32.717  -7.791 -19.844  0.00  0.00    +0.052 C 
BRANCH  24  29
ATOM     26 CL   UNL     1      30.921  -6.070 -20.964  0.00  0.00    -0.080 Cl
ATOM     27 CL   UNL     1      34.659  -9.109 -23.512  0.00  0.00    -0.082 Cl
ATOM     28  F   UNL     1      31.225  -4.368 -23.336  0.00  0.00    -0.203 F 
ATOM     29  C   UNL     1      32.792  -7.496 -22.343  0.00  0.00    +0.041 C 
ATOM     30  C   UNL     1      31.975  -6.374 -22.298  0.00  0.00    +0.085 C 
ATOM     31  C   UNL     1      33.634  -7.723 -23.425  0.00  0.00    +0.058 C 
ATOM     32  C   UNL     1      32.002  -5.461 -23.353  0.00  0.00    +0.150 C 
ATOM     33  C   UNL     1      33.659  -6.811 -24.479  0.00  0.00    +0.014 C 
ATOM     34  C   UNL     1      32.843  -5.680 -24.444  0.00  0.00    +0.031 C 
ENDBRANCH  24  29
ENDBRANCH  23  24
ENDBRANCH   5  23
TORSDOF 5
ENDMDL
MODEL 8
REMARK VINA RESULT:      -9.9      1.927      2.710
REMARK  Name = 11626560
REMARK  5 active torsions:
REMARK  status: ('A' for Active; 'I' for Inactive)
REMARK    1  A    between atoms: C_2  and  C_10
REMARK    2  A    between atoms: C_5  and  O_23
REMARK    3  A    between atoms: N_7  and  C_13
REMARK    4  A    between atoms: O_23  and  C_24
REMARK    5  A    between atoms: C_24  and  C_29
REMARK                            x       y       z     vdW  Elec       q    Type
REMARK                         _______ _______ _______ _____ _____    ______ ____
ROOT
ATOM      1  N   UNL     1      31.745 -22.990 -17.343  0.00  0.00    -0.226 NA
ATOM      2  C   UNL     1      34.010 -22.417 -17.976  0.00  0.00    +0.025 C 
ATOM      3  C   UNL     1      34.501 -23.168 -16.912  0.00  0.00    +0.041 C 
ATOM      4  C   UNL     1      32.635 -22.361 -18.145  0.00  0.00    +0.101 C 
ATOM      5  C   UNL     1      33.619 -23.829 -16.065  0.00  0.00    +0.170 C 
ATOM      6  C   UNL     1      32.262 -23.709 -16.321  0.00  0.00    +0.160 C 
ATOM      7  N   UNL     1      31.361 -24.384 -15.461  0.00  0.00    -0.340 N 
ATOM      8  H   UNL     1      30.391 -24.319 -15.615  0.00  0.00    +0.144 HD
ATOM      9  H   UNL     1      31.705 -24.917 -14.708  0.00  0.00    +0.144 HD
ENDROOT
BRANCH   2  13
ATOM     10  N   UNL     1      35.615 -20.461 -20.487  0.00  0.00    -0.212 N 
ATOM     11  N   UNL     1      36.746 -20.904 -19.917  0.00  0.00    -0.176 NA
ATOM     12  C   UNL     1      34.478 -20.920 -19.896  0.00  0.00    +0.086 C 
ATOM     13  C   UNL     1      34.893 -21.726 -18.864  0.00  0.00    +0.039 C 
ATOM     14  C   UNL     1      36.299 -21.678 -18.925  0.00  0.00    +0.119 C 
BRANCH  10  16
ATOM     15  N   UNL     1      34.605 -17.558 -23.473  0.00  0.00    +0.384 N 
ATOM     16  C   UNL     1      35.690 -19.559 -21.641  0.00  0.00    +0.092 C 
ATOM     17  C   UNL     1      35.551 -18.080 -21.248  0.00  0.00    -0.002 C 
ATOM     18  C   UNL     1      34.682 -19.920 -22.743  0.00  0.00    -0.002 C 
ATOM     19  C   UNL     1      35.612 -17.180 -22.481  0.00  0.00    -0.080 C 
ATOM     20  C   UNL     1      34.779 -18.942 -23.914  0.00  0.00    -0.080 C 
ATOM     21  H   UNL     1      34.687 -16.941 -24.281  0.00  0.00    -0.085 HD
ATOM     22  H   UNL     1      33.684 -17.473 -23.043  0.00  0.00    -0.085 HD
ENDBRANCH  10  16
ENDBRANCH   2  13
BRANCH   5  23
ATOM     23  O   UNL     1      34.098 -24.563 -15.027  0.00  0.00    -0.472 OA
BRANCH  23  24
ATOM     24  C   UNL     1      35.501 -24.828 -15.008  0.00  0.00    +0.190 C 
ATOM     25  C   UNL     1      35.736 -26.325 -15.181  0.00  0.00    +0.052 C 
BRANCH  24  29
ATOM     26 CL   UNL     1      33.783 -25.120 -12.508  0.00  0.00    -0.080 Cl
ATOM     27 CL   UNL     1      38.286 -23.590 -15.170  0.00  0.00    -0.082 Cl
ATOM     28  F   UNL     1      35.218 -24.014 -10.198  0.00  0.00    -0.203 F 
ATOM     29  C   UNL     1      36.088 -24.307 -13.717  0.00  0.00    +0.041 C 
ATOM     30  C   UNL     1      35.357 -24.409 -12.541  0.00  0.00    +0.085 C 
ATOM     31  C   UNL     1      37.353 -23.733 -13.724  0.00  0.00    +0.058 C 
ATOM     32  C   UNL     1      35.901 -23.928 -11.349  0.00  0.00    +0.150 C 
ATOM     33  C   UNL     1      37.895 -23.251 -12.532  0.00  0.00    +0.014 C 
ATOM     34  C   UNL     1      37.170 -23.349 -11.346  0.00  0.00    +0.031 C 
ENDBRANCH  24  29
ENDBRANCH  23  24
ENDBRANCH   5  23
TORSDOF 5
ENDMDL
MODEL 9
REMARK VINA RESULT:      -9.9      4.768      7.652
REMARK  Name = 11626560
REMARK  5 active torsions:
REMARK  status: ('A' for Active; 'I' for Inactive)
REMARK    1  A    between atoms: C_2  and  C_10
REMARK    2  A    between atoms: C_5  and  O_23
REMARK    3  A    between atoms: N_7  and  C_13
REMARK    4  A    between atoms: O_23  and  C_24
REMARK    5  A    between atoms: C_24  and  C_29
REMARK                            x       y       z     vdW  Elec       q    Type
REMARK                         _______ _______ _______ _____ _____    ______ ____
ROOT
ATOM      1  N   UNL     1      33.828 -16.501 -25.654  0.00  0.00    -0.226 NA
ATOM      2  C   UNL     1      33.877 -14.755 -23.980  0.00  0.00    +0.025 C 
ATOM      3  C   UNL     1      34.448 -15.639 -23.069  0.00  0.00    +0.041 C 
ATOM      4  C   UNL     1      33.589 -15.234 -25.249  0.00  0.00    +0.101 C 
ATOM      5  C   UNL     1      34.709 -16.951 -23.448  0.00  0.00    +0.170 C 
ATOM      6  C   UNL     1      34.383 -17.329 -24.741  0.00  0.00    +0.160 C 
ATOM      7  N   UNL     1      34.650 -18.665 -25.130  0.00  0.00    -0.340 N 
ATOM      8  H   UNL     1      34.431 -18.966 -26.041  0.00  0.00    +0.144 HD
ATOM      9  H   UNL     1      35.055 -19.293 -24.488  0.00  0.00    +0.144 HD
ENDROOT
BRANCH   2  13
ATOM     10  N   UNL     1      32.793 -11.668 -22.564  0.00  0.00    -0.212 N 
ATOM     11  N   UNL     1      33.528 -11.118 -23.542  0.00  0.00    -0.176 NA
ATOM     12  C   UNL     1      32.800 -13.030 -22.562  0.00  0.00    +0.086 C 
ATOM     13  C   UNL     1      33.597 -13.400 -23.618  0.00  0.00    +0.039 C 
ATOM     14  C   UNL     1      34.017 -12.181 -24.186  0.00  0.00    +0.119 C 
BRANCH  10  16
ATOM     15  N   UNL     1      31.893  -9.121 -19.237  0.00  0.00    +0.384 N 
ATOM     16  C   UNL     1      32.079 -10.803 -21.620  0.00  0.00    +0.092 C 
ATOM     17  C   UNL     1      32.643  -9.374 -21.581  0.00  0.00    -0.002 C 
ATOM     18  C   UNL     1      32.016 -11.396 -20.203  0.00  0.00    -0.002 C 
ATOM     19  C   UNL     1      31.884  -8.516 -20.569  0.00  0.00    -0.080 C 
ATOM     20  C   UNL     1      31.284 -10.452 -19.248  0.00  0.00    -0.080 C 
ATOM     21  H   UNL     1      31.370  -8.524 -18.597  0.00  0.00    -0.085 HD
ATOM     22  H   UNL     1      32.862  -9.216 -18.934  0.00  0.00    -0.085 HD
ENDBRANCH  10  16
ENDBRANCH   2  13
BRANCH   5  23
ATOM     23  O   UNL     1      35.267 -17.815 -22.560  0.00  0.00    -0.472 OA
BRANCH  23  24
ATOM     24  C   UNL     1      34.513 -18.121 -21.386  0.00  0.00    +0.190 C 
ATOM     25  C   UNL     1      34.608 -16.958 -20.405  0.00  0.00    +0.052 C 
BRANCH  24  29
ATOM     26 CL   UNL     1      32.416 -20.068 -20.339  0.00  0.00    -0.080 Cl
ATOM     27 CL   UNL     1      37.540 -18.512 -21.350  0.00  0.00    -0.082 Cl
ATOM     28  F   UNL     1      33.745 -22.451 -19.255  0.00  0.00    -0.203 F 
ATOM     29  C   UNL     1      35.025 -19.411 -20.789  0.00  0.00    +0.041 C 
ATOM     30  C   UNL     1      34.121 -20.342 -20.292  0.00  0.00    +0.085 C 
ATOM     31  C   UNL     1      36.392 -19.650 -20.743  0.00  0.00    +0.058 C 
ATOM     32  C   UNL     1      34.594 -21.534 -19.741  0.00  0.00    +0.150 C 
ATOM     33  C   UNL     1      36.864 -20.840 -20.191  0.00  0.00    +0.014 C 
ATOM     34  C   UNL     1      35.966 -21.782 -19.690  0.00  0.00    +0.031 C 
ENDBRANCH  24  29
ENDBRANCH  23  24
ENDBRANCH   5  23
TORSDOF 5
ENDMDL
