MODEL 1
REMARK VINA RESULT:     -12.0      0.000      0.000
REMARK  Name = 447655
REMARK  6 active torsions:
REMARK  status: ('A' for Active; 'I' for Inactive)
REMARK    1  A    between atoms: N_4  and  C_14
REMARK    2  A    between atoms: C_6  and  O_26
REMARK    3  A    between atoms: C_15  and  S_20
REMARK    4  A    between atoms: S_20  and  N_23
REMARK    5  A    between atoms: O_26  and  C_27
REMARK    6  A    between atoms: C_27  and  C_28
REMARK                            x       y       z     vdW  Elec       q    Type
REMARK                         _______ _______ _______ _____ _____    ______ ____
ROOT
ATOM      1  N   UNL     1      33.444 -23.291 -16.182  0.00  0.00    -0.293 NA
ATOM      2  N   UNL     1      29.813 -22.866 -16.581  0.00  0.00    -0.266 NA
ATOM      3  N   UNL     1      32.169 -23.629 -14.130  0.00  0.00    -0.316 NA
ATOM      4  N   UNL     1      34.498 -23.838 -14.163  0.00  0.00    -0.238 N 
ATOM      5  N   UNL     1      29.770 -23.347 -14.405  0.00  0.00    -0.296 N 
ATOM      6  C   UNL     1      32.321 -23.031 -16.887  0.00  0.00    +0.288 C 
ATOM      7  C   UNL     1      31.114 -23.067 -16.220  0.00  0.00    +0.215 C 
ATOM      8  C   UNL     1      31.062 -23.364 -14.865  0.00  0.00    +0.196 C 
ATOM      9  C   UNL     1      33.300 -23.571 -14.864  0.00  0.00    +0.207 C 
ATOM     10  C   UNL     1      29.044 -23.044 -15.460  0.00  0.00    +0.164 C 
ATOM     11  H   UNL     1      29.486 -22.636 -17.480  0.00  0.00    +0.126 HD
ATOM     12  H   UNL     1      34.363 -24.039 -13.209  0.00  0.00    +0.166 HD
ATOM     13  H   UNL     1      29.454 -23.521 -13.488  0.00  0.00    +0.150 HD
ENDROOT
BRANCH   4  14
ATOM     14  C   UNL     1      35.846 -23.873 -14.564  0.00  0.00    +0.060 C 
ATOM     15  C   UNL     1      37.976 -25.017 -14.659  0.00  0.00    +0.123 C 
ATOM     16  C   UNL     1      36.640 -24.982 -14.261  0.00  0.00    +0.035 C 
ATOM     17  C   UNL     1      36.396 -22.800 -15.270  0.00  0.00    +0.015 C 
ATOM     18  C   UNL     1      38.522 -23.943 -15.363  0.00  0.00    +0.020 C 
ATOM     19  C   UNL     1      37.731 -22.835 -15.668  0.00  0.00    +0.003 C 
BRANCH  15  20
ATOM     20  S   UNL     1      38.966 -26.403 -14.279  0.00  0.00    +0.057 S 
ATOM     21  O   UNL     1      39.506 -26.228 -12.938  0.00  0.00    -0.153 OA
ATOM     22  O   UNL     1      38.216 -27.609 -14.605  0.00  0.00    -0.153 OA
BRANCH  20  23
ATOM     23  N   UNL     1      40.232 -26.222 -15.412  0.00  0.00    -0.203 NA
ATOM     24  H   UNL     1      40.716 -27.112 -15.525  0.00  0.00    +0.144 HD
ATOM     25  H   UNL     1      40.889 -25.518 -15.076  0.00  0.00    +0.144 HD
ENDBRANCH  20  23
ENDBRANCH  15  20
ENDBRANCH   4  14
BRANCH   6  26
ATOM     26  O   UNL     1      32.432 -22.742 -18.226  0.00  0.00    -0.453 OA
BRANCH  26  27
ATOM     27  C   UNL     1      33.679 -23.008 -18.839  0.00  0.00    +0.208 C 
BRANCH  27  28
ATOM     28  C   UNL     1      34.335 -21.675 -19.196  0.00  0.00    +0.044 C 
ATOM     29  C   UNL     1      35.795 -21.886 -19.620  0.00  0.00    +0.004 C 
ATOM     30  C   UNL     1      33.545 -20.960 -20.300  0.00  0.00    +0.004 C 
ATOM     31  C   UNL     1      36.458 -20.574 -20.033  0.00  0.00    +0.000 C 
ATOM     32  C   UNL     1      34.211 -19.650 -20.712  0.00  0.00    +0.000 C 
ATOM     33  C   UNL     1      35.664 -19.862 -21.124  0.00  0.00    +0.000 C 
ENDBRANCH  27  28
ENDBRANCH  26  27
ENDBRANCH   6  26
TORSDOF 6
ENDMDL
MODEL 2
REMARK VINA RESULT:     -12.0      2.384      2.831
REMARK  Name = 447655
REMARK  6 active torsions:
REMARK  status: ('A' for Active; 'I' for Inactive)
REMARK    1  A    between atoms: N_4  and  C_14
REMARK    2  A    between atoms: C_6  and  O_26
REMARK    3  A    between atoms: C_15  and  S_20
REMARK    4  A    between atoms: S_20  and  N_23
REMARK    5  A    between atoms: O_26  and  C_27
REMARK    6  A    between atoms: C_27  and  C_28
REMARK                            x       y       z     vdW  Elec       q    Type
REMARK                         _______ _______ _______ _____ _____    ______ ____
ROOT
ATOM      1  N   UNL     1      32.364 -23.719 -15.501  0.00  0.00    -0.293 NA
ATOM      2  N   UNL     1      29.075 -22.770 -16.846  0.00  0.00    -0.266 NA
ATOM      3  N   UNL     1      30.501 -24.172 -13.993  0.00  0.00    -0.316 NA
ATOM      4  N   UNL     1      32.704 -24.677 -13.391  0.00  0.00    -0.238 N 
ATOM      5  N   UNL     1      28.332 -23.541 -14.892  0.00  0.00    -0.296 N 
ATOM      6  C   UNL     1      31.535 -23.217 -16.443  0.00  0.00    +0.288 C 
ATOM      7  C   UNL     1      30.183 -23.188 -16.168  0.00  0.00    +0.215 C 
ATOM      8  C   UNL     1      29.697 -23.663 -14.957  0.00  0.00    +0.196 C 
ATOM      9  C   UNL     1      31.803 -24.160 -14.350  0.00  0.00    +0.207 C 
ATOM     10  C   UNL     1      27.990 -23.001 -16.042  0.00  0.00    +0.164 C 
ATOM     11  H   UNL     1      29.058 -22.375 -17.747  0.00  0.00    +0.126 HD
ATOM     12  H   UNL     1      32.269 -24.990 -12.566  0.00  0.00    +0.166 HD
ATOM     13  H   UNL     1      27.739 -23.799 -14.149  0.00  0.00    +0.150 HD
ENDROOT
BRANCH   4  14
ATOM     14  C   UNL     1      34.103 -24.832 -13.388  0.00  0.00    +0.060 C 
ATOM     15  C   UNL     1      36.240 -24.565 -12.287  0.00  0.00    +0.123 C 
ATOM     16  C   UNL     1      34.854 -24.409 -12.290  0.00  0.00    +0.035 C 
ATOM     17  C   UNL     1      34.745 -25.413 -14.485  0.00  0.00    +0.015 C 
ATOM     18  C   UNL     1      36.879 -25.144 -13.384  0.00  0.00    +0.020 C 
ATOM     19  C   UNL     1      36.131 -25.568 -14.482  0.00  0.00    +0.003 C 
BRANCH  15  20
ATOM     20  S   UNL     1      37.176 -24.035 -10.912  0.00  0.00    +0.057 S 
ATOM     21  O   UNL     1      38.371 -24.863 -10.824  0.00  0.00    -0.153 OA
ATOM     22  O   UNL     1      37.302 -22.586 -10.970  0.00  0.00    -0.153 OA
BRANCH  20  23
ATOM     23  N   UNL     1      36.127 -24.443  -9.626  0.00  0.00    -0.203 NA
ATOM     24  H   UNL     1      35.393 -23.738  -9.551  0.00  0.00    +0.144 HD
ATOM     25  H   UNL     1      36.656 -24.478  -8.755  0.00  0.00    +0.144 HD
ENDBRANCH  20  23
ENDBRANCH  15  20
ENDBRANCH   4  14
BRANCH   6  26
ATOM     26  O   UNL     1      32.071 -22.761 -17.623  0.00  0.00    -0.453 OA
BRANCH  26  27
ATOM     27  C   UNL     1      33.453 -22.985 -17.830  0.00  0.00    +0.208 C 
BRANCH  27  28
ATOM     28  C   UNL     1      33.866 -22.294 -19.128  0.00  0.00    +0.044 C 
ATOM     29  C   UNL     1      32.925 -21.123 -19.442  0.00  0.00    +0.004 C 
ATOM     30  C   UNL     1      35.323 -21.817 -19.047  0.00  0.00    +0.004 C 
ATOM     31  C   UNL     1      33.350 -20.383 -20.708  0.00  0.00    +0.000 C 
ATOM     32  C   UNL     1      35.743 -21.075 -20.314  0.00  0.00    +0.000 C 
ATOM     33  C   UNL     1      34.800 -19.918 -20.628  0.00  0.00    +0.000 C 
ENDBRANCH  27  28
ENDBRANCH  26  27
ENDBRANCH   6  26
TORSDOF 6
ENDMDL
MODEL 3
REMARK VINA RESULT:     -11.9      1.733      2.274
REMARK  Name = 447655
REMARK  6 active torsions:
REMARK  status: ('A' for Active; 'I' for Inactive)
REMARK    1  A    between atoms: N_4  and  C_14
REMARK    2  A    between atoms: C_6  and  O_26
REMARK    3  A    between atoms: C_15  and  S_20
REMARK    4  A    between atoms: S_20  and  N_23
REMARK    5  A    between atoms: O_26  and  C_27
REMARK    6  A    between atoms: C_27  and  C_28
REMARK                            x       y       z     vdW  Elec       q    Type
REMARK                         _______ _______ _______ _____ _____    ______ ____
ROOT
ATOM      1  N   UNL     1      33.485 -24.190 -14.379  0.00  0.00    -0.293 NA
ATOM      2  N   UNL     1      30.073 -24.263 -15.749  0.00  0.00    -0.266 NA
ATOM      3  N   UNL     1      31.880 -25.397 -12.995  0.00  0.00    -0.316 NA
ATOM      4  N   UNL     1      34.123 -25.194 -12.362  0.00  0.00    -0.238 N 
ATOM      5  N   UNL     1      29.628 -25.440 -13.909  0.00  0.00    -0.296 N 
ATOM      6  C   UNL     1      32.538 -23.900 -15.299  0.00  0.00    +0.288 C 
ATOM      7  C   UNL     1      31.255 -24.355 -15.073  0.00  0.00    +0.215 C 
ATOM      8  C   UNL     1      30.954 -25.089 -13.934  0.00  0.00    +0.196 C 
ATOM      9  C   UNL     1      33.102 -24.912 -13.299  0.00  0.00    +0.207 C 
ATOM     10  C   UNL     1      29.127 -24.928 -15.013  0.00  0.00    +0.164 C 
ATOM     11  H   UNL     1      29.926 -23.805 -16.607  0.00  0.00    +0.126 HD
ATOM     12  H   UNL     1      33.817 -25.720 -11.588  0.00  0.00    +0.166 HD
ATOM     13  H   UNL     1      29.155 -25.958 -13.218  0.00  0.00    +0.150 HD
ENDROOT
BRANCH   4  14
ATOM     14  C   UNL     1      35.492 -24.871 -12.321  0.00  0.00    +0.060 C 
ATOM     15  C   UNL     1      37.755 -25.232 -13.094  0.00  0.00    +0.123 C 
ATOM     16  C   UNL     1      36.398 -25.553 -13.135  0.00  0.00    +0.035 C 
ATOM     17  C   UNL     1      35.949 -23.864 -11.466  0.00  0.00    +0.015 C 
ATOM     18  C   UNL     1      38.208 -24.227 -12.240  0.00  0.00    +0.020 C 
ATOM     19  C   UNL     1      37.305 -23.543 -11.426  0.00  0.00    +0.003 C 
BRANCH  15  20
ATOM     20  S   UNL     1      38.887 -26.086 -14.113  0.00  0.00    +0.057 S 
ATOM     21  O   UNL     1      40.004 -26.526 -13.290  0.00  0.00    -0.153 OA
ATOM     22  O   UNL     1      38.149 -27.057 -14.910  0.00  0.00    -0.153 OA
BRANCH  20  23
ATOM     23  N   UNL     1      39.418 -24.826 -15.138  0.00  0.00    -0.203 NA
ATOM     24  H   UNL     1      38.766 -24.725 -15.916  0.00  0.00    +0.144 HD
ATOM     25  H   UNL     1      40.346 -25.050 -15.498  0.00  0.00    +0.144 HD
ENDBRANCH  20  23
ENDBRANCH  15  20
ENDBRANCH   4  14
BRANCH   6  26
ATOM     26  O   UNL     1      32.892 -23.169 -16.407  0.00  0.00    -0.453 OA
BRANCH  26  27
ATOM     27  C   UNL     1      34.167 -23.426 -16.966  0.00  0.00    +0.208 C 
BRANCH  27  28
ATOM     28  C   UNL     1      34.210 -22.825 -18.369  0.00  0.00    +0.044 C 
ATOM     29  C   UNL     1      33.009 -21.898 -18.599  0.00  0.00    +0.004 C 
ATOM     30  C   UNL     1      35.529 -22.077 -18.598  0.00  0.00    +0.004 C 
ATOM     31  C   UNL     1      33.058 -21.243 -19.977  0.00  0.00    +0.000 C 
ATOM     32  C   UNL     1      35.574 -21.422 -19.977  0.00  0.00    +0.000 C 
ATOM     33  C   UNL     1      34.374 -20.507 -20.205  0.00  0.00    +0.000 C 
ENDBRANCH  27  28
ENDBRANCH  26  27
ENDBRANCH   6  26
TORSDOF 6
ENDMDL
MODEL 4
REMARK VINA RESULT:     -11.2      2.676      5.579
REMARK  Name = 447655
REMARK  6 active torsions:
REMARK  status: ('A' for Active; 'I' for Inactive)
REMARK    1  A    between atoms: N_4  and  C_14
REMARK    2  A    between atoms: C_6  and  O_26
REMARK    3  A    between atoms: C_15  and  S_20
REMARK    4  A    between atoms: S_20  and  N_23
REMARK    5  A    between atoms: O_26  and  C_27
REMARK    6  A    between atoms: C_27  and  C_28
REMARK                            x       y       z     vdW  Elec       q    Type
REMARK                         _______ _______ _______ _____ _____    ______ ____
ROOT
ATOM      1  N   UNL     1      35.502 -23.611 -16.064  0.00  0.00    -0.293 NA
ATOM      2  N   UNL     1      33.844 -21.965 -18.904  0.00  0.00    -0.266 NA
ATOM      3  N   UNL     1      37.001 -22.298 -17.470  0.00  0.00    -0.316 NA
ATOM      4  N   UNL     1      37.791 -23.451 -15.594  0.00  0.00    -0.238 N 
ATOM      5  N   UNL     1      35.895 -21.214 -19.344  0.00  0.00    -0.296 N 
ATOM      6  C   UNL     1      34.436 -23.296 -16.833  0.00  0.00    +0.288 C 
ATOM      7  C   UNL     1      34.645 -22.482 -17.927  0.00  0.00    +0.215 C 
ATOM      8  C   UNL     1      35.914 -22.001 -18.221  0.00  0.00    +0.196 C 
ATOM      9  C   UNL     1      36.702 -23.099 -16.425  0.00  0.00    +0.207 C 
ATOM     10  C   UNL     1      34.637 -21.212 -19.730  0.00  0.00    +0.164 C 
ATOM     11  H   UNL     1      32.874 -22.106 -18.998  0.00  0.00    +0.126 HD
ATOM     12  H   UNL     1      38.650 -23.064 -15.880  0.00  0.00    +0.166 HD
ATOM     13  H   UNL     1      36.655 -20.752 -19.768  0.00  0.00    +0.150 HD
ENDROOT
BRANCH   4  14
ATOM     14  C   UNL     1      37.885 -24.247 -14.438  0.00  0.00    +0.060 C 
ATOM     15  C   UNL     1      37.118 -24.813 -12.214  0.00  0.00    +0.123 C 
ATOM     16  C   UNL     1      37.025 -24.023 -13.361  0.00  0.00    +0.035 C 
ATOM     17  C   UNL     1      38.839 -25.265 -14.364  0.00  0.00    +0.015 C 
ATOM     18  C   UNL     1      38.072 -25.829 -12.143  0.00  0.00    +0.020 C 
ATOM     19  C   UNL     1      38.932 -26.054 -13.218  0.00  0.00    +0.003 C 
BRANCH  15  20
ATOM     20  S   UNL     1      36.041 -24.532 -10.869  0.00  0.00    +0.057 S 
ATOM     21  O   UNL     1      35.643 -25.821 -10.323  0.00  0.00    -0.153 OA
ATOM     22  O   UNL     1      36.642 -23.532  -9.998  0.00  0.00    -0.153 OA
BRANCH  20  23
ATOM     23  N   UNL     1      34.701 -23.831 -11.665  0.00  0.00    -0.203 NA
ATOM     24  H   UNL     1      33.983 -24.541 -11.808  0.00  0.00    +0.144 HD
ATOM     25  H   UNL     1      34.998 -23.461 -12.568  0.00  0.00    +0.144 HD
ENDBRANCH  20  23
ENDBRANCH  15  20
ENDBRANCH   4  14
BRANCH   6  26
ATOM     26  O   UNL     1      33.204 -23.800 -16.495  0.00  0.00    -0.453 OA
BRANCH  26  27
ATOM     27  C   UNL     1      32.890 -23.859 -15.116  0.00  0.00    +0.208 C 
BRANCH  27  28
ATOM     28  C   UNL     1      31.375 -23.742 -14.960  0.00  0.00    +0.044 C 
ATOM     29  C   UNL     1      30.745 -23.124 -16.216  0.00  0.00    +0.004 C 
ATOM     30  C   UNL     1      30.753 -25.112 -14.656  0.00  0.00    +0.004 C 
ATOM     31  C   UNL     1      29.225 -23.045 -16.105  0.00  0.00    +0.000 C 
ATOM     32  C   UNL     1      29.233 -25.029 -14.548  0.00  0.00    +0.000 C 
ATOM     33  C   UNL     1      28.612 -24.407 -15.794  0.00  0.00    +0.000 C 
ENDBRANCH  27  28
ENDBRANCH  26  27
ENDBRANCH   6  26
TORSDOF 6
ENDMDL
MODEL 5
REMARK VINA RESULT:     -10.7      3.448      7.285
REMARK  Name = 447655
REMARK  6 active torsions:
REMARK  status: ('A' for Active; 'I' for Inactive)
REMARK    1  A    between atoms: N_4  and  C_14
REMARK    2  A    between atoms: C_6  and  O_26
REMARK    3  A    between atoms: C_15  and  S_20
REMARK    4  A    between atoms: S_20  and  N_23
REMARK    5  A    between atoms: O_26  and  C_27
REMARK    6  A    between atoms: C_27  and  C_28
REMARK                            x       y       z     vdW  Elec       q    Type
REMARK                         _______ _______ _______ _____ _____    ______ ____
ROOT
ATOM      1  N   UNL     1      34.880 -23.604 -15.940  0.00  0.00    -0.293 NA
ATOM      2  N   UNL     1      35.644 -25.489 -12.876  0.00  0.00    -0.266 NA
ATOM      3  N   UNL     1      37.258 -23.719 -15.406  0.00  0.00    -0.316 NA
ATOM      4  N   UNL     1      36.489 -22.581 -17.300  0.00  0.00    -0.238 N 
ATOM      5  N   UNL     1      37.752 -24.968 -13.380  0.00  0.00    -0.296 N 
ATOM      6  C   UNL     1      34.557 -24.333 -14.848  0.00  0.00    +0.288 C 
ATOM      7  C   UNL     1      35.580 -24.760 -14.028  0.00  0.00    +0.215 C 
ATOM      8  C   UNL     1      36.901 -24.447 -14.321  0.00  0.00    +0.196 C 
ATOM      9  C   UNL     1      36.194 -23.346 -16.148  0.00  0.00    +0.207 C 
ATOM     10  C   UNL     1      36.965 -25.588 -12.525  0.00  0.00    +0.164 C 
ATOM     11  H   UNL     1      34.882 -25.875 -12.387  0.00  0.00    +0.126 HD
ATOM     12  H   UNL     1      37.450 -22.410 -17.426  0.00  0.00    +0.166 HD
ATOM     13  H   UNL     1      38.733 -24.894 -13.348  0.00  0.00    +0.150 HD
ENDROOT
BRANCH   4  14
ATOM     14  C   UNL     1      35.678 -22.018 -18.301  0.00  0.00    +0.060 C 
ATOM     15  C   UNL     1      35.406 -20.535 -20.193  0.00  0.00    +0.123 C 
ATOM     16  C   UNL     1      36.212 -21.092 -19.200  0.00  0.00    +0.035 C 
ATOM     17  C   UNL     1      34.333 -22.386 -18.402  0.00  0.00    +0.015 C 
ATOM     18  C   UNL     1      34.064 -20.903 -20.291  0.00  0.00    +0.020 C 
ATOM     19  C   UNL     1      33.528 -21.829 -19.394  0.00  0.00    +0.003 C 
BRANCH  15  20
ATOM     20  S   UNL     1      36.077 -19.378 -21.315  0.00  0.00    +0.057 S 
ATOM     21  O   UNL     1      37.513 -19.304 -21.094  0.00  0.00    -0.153 OA
ATOM     22  O   UNL     1      35.563 -19.674 -22.646  0.00  0.00    -0.153 OA
BRANCH  20  23
ATOM     23  N   UNL     1      35.357 -17.931 -20.760  0.00  0.00    -0.203 NA
ATOM     24  H   UNL     1      34.668 -17.612 -21.441  0.00  0.00    +0.144 HD
ATOM     25  H   UNL     1      36.076 -17.217 -20.645  0.00  0.00    +0.144 HD
ENDBRANCH  20  23
ENDBRANCH  15  20
ENDBRANCH   4  14
BRANCH   6  26
ATOM     26  O   UNL     1      33.233 -24.612 -14.608  0.00  0.00    -0.453 OA
BRANCH  26  27
ATOM     27  C   UNL     1      32.521 -23.698 -13.796  0.00  0.00    +0.208 C 
BRANCH  27  28
ATOM     28  C   UNL     1      31.047 -23.741 -14.198  0.00  0.00    +0.044 C 
ATOM     29  C   UNL     1      30.864 -23.257 -15.643  0.00  0.00    +0.004 C 
ATOM     30  C   UNL     1      30.479 -25.155 -14.020  0.00  0.00    +0.004 C 
ATOM     31  C   UNL     1      29.406 -23.341 -16.085  0.00  0.00    +0.000 C 
ATOM     32  C   UNL     1      29.021 -25.236 -14.466  0.00  0.00    +0.000 C 
ATOM     33  C   UNL     1      28.842 -24.746 -15.899  0.00  0.00    +0.000 C 
ENDBRANCH  27  28
ENDBRANCH  26  27
ENDBRANCH   6  26
TORSDOF 6
ENDMDL
MODEL 6
REMARK VINA RESULT:     -10.6      3.439      6.959
REMARK  Name = 447655
REMARK  6 active torsions:
REMARK  status: ('A' for Active; 'I' for Inactive)
REMARK    1  A    between atoms: N_4  and  C_14
REMARK    2  A    between atoms: C_6  and  O_26
REMARK    3  A    between atoms: C_15  and  S_20
REMARK    4  A    between atoms: S_20  and  N_23
REMARK    5  A    between atoms: O_26  and  C_27
REMARK    6  A    between atoms: C_27  and  C_28
REMARK                            x       y       z     vdW  Elec       q    Type
REMARK                         _______ _______ _______ _____ _____    ______ ____
ROOT
ATOM      1  N   UNL     1      33.713 -23.116 -16.417  0.00  0.00    -0.293 NA
ATOM      2  N   UNL     1      31.591 -24.706 -13.868  0.00  0.00    -0.266 NA
ATOM      3  N   UNL     1      31.365 -23.304 -17.050  0.00  0.00    -0.316 NA
ATOM      4  N   UNL     1      32.938 -22.333 -18.483  0.00  0.00    -0.238 N 
ATOM      5  N   UNL     1      29.971 -24.355 -15.358  0.00  0.00    -0.296 N 
ATOM      6  C   UNL     1      33.482 -23.705 -15.223  0.00  0.00    +0.288 C 
ATOM      7  C   UNL     1      32.192 -24.099 -14.933  0.00  0.00    +0.215 C 
ATOM      8  C   UNL     1      31.166 -23.891 -15.846  0.00  0.00    +0.196 C 
ATOM      9  C   UNL     1      32.654 -22.953 -17.245  0.00  0.00    +0.207 C 
ATOM     10  C   UNL     1      30.260 -24.839 -14.169  0.00  0.00    +0.164 C 
ATOM     11  H   UNL     1      32.032 -24.994 -13.037  0.00  0.00    +0.126 HD
ATOM     12  H   UNL     1      32.150 -22.227 -19.064  0.00  0.00    +0.166 HD
ATOM     13  H   UNL     1      29.091 -24.333 -15.800  0.00  0.00    +0.150 HD
ENDROOT
BRANCH   4  14
ATOM     14  C   UNL     1      34.127 -21.835 -19.047  0.00  0.00    +0.060 C 
ATOM     15  C   UNL     1      35.258 -20.333 -20.568  0.00  0.00    +0.123 C 
ATOM     16  C   UNL     1      34.079 -20.826 -20.010  0.00  0.00    +0.035 C 
ATOM     17  C   UNL     1      35.362 -22.349 -18.642  0.00  0.00    +0.015 C 
ATOM     18  C   UNL     1      36.490 -20.848 -20.162  0.00  0.00    +0.020 C 
ATOM     19  C   UNL     1      36.541 -21.856 -19.199  0.00  0.00    +0.003 C 
BRANCH  15  20
ATOM     20  S   UNL     1      35.195 -19.070 -21.772  0.00  0.00    +0.057 S 
ATOM     21  O   UNL     1      34.546 -19.602 -22.961  0.00  0.00    -0.153 OA
ATOM     22  O   UNL     1      34.680 -17.861 -21.146  0.00  0.00    -0.153 OA
BRANCH  20  23
ATOM     23  N   UNL     1      36.857 -18.851 -22.102  0.00  0.00    -0.203 NA
ATOM     24  H   UNL     1      37.098 -17.866 -21.992  0.00  0.00    +0.144 HD
ATOM     25  H   UNL     1      37.055 -19.144 -23.059  0.00  0.00    +0.144 HD
ENDBRANCH  20  23
ENDBRANCH  15  20
ENDBRANCH   4  14
BRANCH   6  26
ATOM     26  O   UNL     1      34.535 -23.885 -14.359  0.00  0.00    -0.453 OA
BRANCH  26  27
ATOM     27  C   UNL     1      35.754 -23.246 -14.688  0.00  0.00    +0.208 C 
BRANCH  27  28
ATOM     28  C   UNL     1      36.899 -24.027 -14.046  0.00  0.00    +0.044 C 
ATOM     29  C   UNL     1      36.882 -23.859 -12.521  0.00  0.00    +0.004 C 
ATOM     30  C   UNL     1      36.826 -25.510 -14.432  0.00  0.00    +0.004 C 
ATOM     31  C   UNL     1      37.986 -24.673 -11.851  0.00  0.00    +0.000 C 
ATOM     32  C   UNL     1      37.930 -26.322 -13.759  0.00  0.00    +0.000 C 
ATOM     33  C   UNL     1      37.916 -26.145 -12.244  0.00  0.00    +0.000 C 
ENDBRANCH  27  28
ENDBRANCH  26  27
ENDBRANCH   6  26
TORSDOF 6
ENDMDL
MODEL 7
REMARK VINA RESULT:     -10.0      6.382      9.257
REMARK  Name = 447655
REMARK  6 active torsions:
REMARK  status: ('A' for Active; 'I' for Inactive)
REMARK    1  A    between atoms: N_4  and  C_14
REMARK    2  A    between atoms: C_6  and  O_26
REMARK    3  A    between atoms: C_15  and  S_20
REMARK    4  A    between atoms: S_20  and  N_23
REMARK    5  A    between atoms: O_26  and  C_27
REMARK    6  A    between atoms: C_27  and  C_28
REMARK                            x       y       z     vdW  Elec       q    Type
REMARK                         _______ _______ _______ _____ _____    ______ ____
ROOT
ATOM      1  N   UNL     1      34.883 -17.292 -21.634  0.00  0.00    -0.293 NA
ATOM      2  N   UNL     1      33.906 -14.471 -23.782  0.00  0.00    -0.266 NA
ATOM      3  N   UNL     1      34.826 -17.823 -24.014  0.00  0.00    -0.316 NA
ATOM      4  N   UNL     1      35.414 -19.432 -22.421  0.00  0.00    -0.238 N 
ATOM      5  N   UNL     1      34.180 -15.952 -25.425  0.00  0.00    -0.296 N 
ATOM      6  C   UNL     1      34.505 -16.015 -21.867  0.00  0.00    +0.288 C 
ATOM      7  C   UNL     1      34.285 -15.633 -23.174  0.00  0.00    +0.215 C 
ATOM      8  C   UNL     1      34.449 -16.537 -24.214  0.00  0.00    +0.196 C 
ATOM      9  C   UNL     1      35.018 -18.105 -22.708  0.00  0.00    +0.207 C 
ATOM     10  C   UNL     1      33.857 -14.710 -25.131  0.00  0.00    +0.164 C 
ATOM     11  H   UNL     1      33.706 -13.617 -23.335  0.00  0.00    +0.126 HD
ATOM     12  H   UNL     1      35.506 -20.000 -23.220  0.00  0.00    +0.166 HD
ATOM     13  H   UNL     1      34.219 -16.367 -26.317  0.00  0.00    +0.150 HD
ENDROOT
BRANCH   4  14
ATOM     14  C   UNL     1      35.705 -20.098 -21.217  0.00  0.00    +0.060 C 
ATOM     15  C   UNL     1      35.048 -21.607 -19.443  0.00  0.00    +0.123 C 
ATOM     16  C   UNL     1      34.759 -20.946 -20.637  0.00  0.00    +0.035 C 
ATOM     17  C   UNL     1      36.944 -19.915 -20.596  0.00  0.00    +0.015 C 
ATOM     18  C   UNL     1      36.286 -21.421 -18.826  0.00  0.00    +0.020 C 
ATOM     19  C   UNL     1      37.233 -20.575 -19.403  0.00  0.00    +0.003 C 
BRANCH  15  20
ATOM     20  S   UNL     1      33.864 -22.666 -18.721  0.00  0.00    +0.057 S 
ATOM     21  O   UNL     1      32.656 -21.896 -18.462  0.00  0.00    -0.153 OA
ATOM     22  O   UNL     1      33.789 -23.884 -19.516  0.00  0.00    -0.153 OA
BRANCH  20  23
ATOM     23  N   UNL     1      34.617 -23.030 -17.231  0.00  0.00    -0.203 NA
ATOM     24  H   UNL     1      34.925 -24.002 -17.234  0.00  0.00    +0.144 HD
ATOM     25  H   UNL     1      33.952 -22.886 -16.471  0.00  0.00    +0.144 HD
ENDBRANCH  20  23
ENDBRANCH  15  20
ENDBRANCH   4  14
BRANCH   6  26
ATOM     26  O   UNL     1      34.358 -15.163 -20.799  0.00  0.00    -0.453 OA
BRANCH  26  27
ATOM     27  C   UNL     1      33.041 -14.939 -20.332  0.00  0.00    +0.208 C 
BRANCH  27  28
ATOM     28  C   UNL     1      32.752 -13.441 -20.399  0.00  0.00    +0.044 C 
ATOM     29  C   UNL     1      32.025 -13.086 -21.703  0.00  0.00    +0.004 C 
ATOM     30  C   UNL     1      31.936 -12.991 -19.179  0.00  0.00    +0.004 C 
ATOM     31  C   UNL     1      31.678 -11.601 -21.769  0.00  0.00    +0.000 C 
ATOM     32  C   UNL     1      31.589 -11.507 -19.250  0.00  0.00    +0.000 C 
ATOM     33  C   UNL     1      30.874 -11.157 -20.551  0.00  0.00    +0.000 C 
ENDBRANCH  27  28
ENDBRANCH  26  27
ENDBRANCH   6  26
TORSDOF 6
ENDMDL
MODEL 8
REMARK VINA RESULT:      -9.9      2.051      2.462
REMARK  Name = 447655
REMARK  6 active torsions:
REMARK  status: ('A' for Active; 'I' for Inactive)
REMARK    1  A    between atoms: N_4  and  C_14
REMARK    2  A    between atoms: C_6  and  O_26
REMARK    3  A    between atoms: C_15  and  S_20
REMARK    4  A    between atoms: S_20  and  N_23
REMARK    5  A    between atoms: O_26  and  C_27
REMARK    6  A    between atoms: C_27  and  C_28
REMARK                            x       y       z     vdW  Elec       q    Type
REMARK                         _______ _______ _______ _____ _____    ______ ____
ROOT
ATOM      1  N   UNL     1      32.489 -23.532 -15.417  0.00  0.00    -0.293 NA
ATOM      2  N   UNL     1      29.147 -23.032 -16.869  0.00  0.00    -0.266 NA
ATOM      3  N   UNL     1      30.658 -24.245 -13.973  0.00  0.00    -0.316 NA
ATOM      4  N   UNL     1      32.888 -24.448 -13.299  0.00  0.00    -0.238 N 
ATOM      5  N   UNL     1      28.453 -23.912 -14.943  0.00  0.00    -0.296 N 
ATOM      6  C   UNL     1      31.630 -23.142 -16.385  0.00  0.00    +0.288 C 
ATOM      7  C   UNL     1      30.280 -23.300 -16.155  0.00  0.00    +0.215 C 
ATOM      8  C   UNL     1      29.823 -23.845 -14.962  0.00  0.00    +0.196 C 
ATOM      9  C   UNL     1      31.956 -24.053 -14.286  0.00  0.00    +0.207 C 
ATOM     10  C   UNL     1      28.078 -23.415 -16.102  0.00  0.00    +0.164 C 
ATOM     11  H   UNL     1      29.106 -22.638 -17.770  0.00  0.00    +0.126 HD
ATOM     12  H   UNL     1      32.473 -24.824 -12.489  0.00  0.00    +0.166 HD
ATOM     13  H   UNL     1      27.877 -24.254 -14.221  0.00  0.00    +0.150 HD
ENDROOT
BRANCH   4  14
ATOM     14  C   UNL     1      34.294 -24.411 -13.250  0.00  0.00    +0.060 C 
ATOM     15  C   UNL     1      36.410 -23.754 -14.221  0.00  0.00    +0.123 C 
ATOM     16  C   UNL     1      35.016 -23.791 -14.271  0.00  0.00    +0.035 C 
ATOM     17  C   UNL     1      34.972 -24.992 -12.175  0.00  0.00    +0.015 C 
ATOM     18  C   UNL     1      37.084 -24.336 -13.147  0.00  0.00    +0.020 C 
ATOM     19  C   UNL     1      36.365 -24.955 -12.125  0.00  0.00    +0.003 C 
BRANCH  15  20
ATOM     20  S   UNL     1      37.310 -22.979 -15.500  0.00  0.00    +0.057 S 
ATOM     21  O   UNL     1      36.572 -23.141 -16.744  0.00  0.00    -0.153 OA
ATOM     22  O   UNL     1      37.693 -21.647 -15.053  0.00  0.00    -0.153 OA
BRANCH  20  23
ATOM     23  N   UNL     1      38.708 -23.960 -15.556  0.00  0.00    -0.203 NA
ATOM     24  H   UNL     1      39.520 -23.410 -15.276  0.00  0.00    +0.144 HD
ATOM     25  H   UNL     1      38.842 -24.306 -16.506  0.00  0.00    +0.144 HD
ENDBRANCH  20  23
ENDBRANCH  15  20
ENDBRANCH   4  14
BRANCH   6  26
ATOM     26  O   UNL     1      32.138 -22.609 -17.545  0.00  0.00    -0.453 OA
BRANCH  26  27
ATOM     27  C   UNL     1      33.452 -22.991 -17.907  0.00  0.00    +0.208 C 
BRANCH  27  28
ATOM     28  C   UNL     1      34.109 -21.824 -18.642  0.00  0.00    +0.044 C 
ATOM     29  C   UNL     1      35.427 -22.266 -19.292  0.00  0.00    +0.004 C 
ATOM     30  C   UNL     1      33.155 -21.235 -19.689  0.00  0.00    +0.004 C 
ATOM     31  C   UNL     1      36.078 -21.129 -20.077  0.00  0.00    +0.000 C 
ATOM     32  C   UNL     1      33.809 -20.101 -20.474  0.00  0.00    +0.000 C 
ATOM     33  C   UNL     1      35.123 -20.541 -21.111  0.00  0.00    +0.000 C 
ENDBRANCH  27  28
ENDBRANCH  26  27
ENDBRANCH   6  26
TORSDOF 6
ENDMDL
MODEL 9
REMARK VINA RESULT:      -9.1     13.795     17.336
REMARK  Name = 447655
REMARK  6 active torsions:
REMARK  status: ('A' for Active; 'I' for Inactive)
REMARK    1  A    between atoms: N_4  and  C_14
REMARK    2  A    between atoms: C_6  and  O_26
REMARK    3  A    between atoms: C_15  and  S_20
REMARK    4  A    between atoms: S_20  and  N_23
REMARK    5  A    between atoms: O_26  and  C_27
REMARK    6  A    between atoms: C_27  and  C_28
REMARK                            x       y       z     vdW  Elec       q    Type
REMARK                         _______ _______ _______ _____ _____    ______ ____
ROOT
ATOM      1  N   UNL     1      32.275  -9.116 -22.205  0.00  0.00    -0.293 NA
ATOM      2  N   UNL     1      31.732 -12.132 -20.171  0.00  0.00    -0.266 NA
ATOM      3  N   UNL     1      31.890  -8.668 -19.838  0.00  0.00    -0.316 NA
ATOM      4  N   UNL     1      32.263  -6.932 -21.360  0.00  0.00    -0.238 N 
ATOM      5  N   UNL     1      31.533 -10.668 -18.503  0.00  0.00    -0.296 N 
ATOM      6  C   UNL     1      32.160 -10.449 -22.014  0.00  0.00    +0.288 C 
ATOM      7  C   UNL     1      31.908 -10.902 -20.736  0.00  0.00    +0.215 C 
ATOM      8  C   UNL     1      31.779 -10.009 -19.680  0.00  0.00    +0.196 C 
ATOM      9  C   UNL     1      32.135  -8.319 -21.119  0.00  0.00    +0.207 C 
ATOM     10  C   UNL     1      31.510 -11.942 -18.832  0.00  0.00    +0.164 C 
ATOM     11  H   UNL     1      31.761 -12.998 -20.639  0.00  0.00    +0.126 HD
ATOM     12  H   UNL     1      32.158  -6.377 -20.554  0.00  0.00    +0.166 HD
ATOM     13  H   UNL     1      31.401 -10.276 -17.609  0.00  0.00    +0.150 HD
ENDROOT
BRANCH   4  14
ATOM     14  C   UNL     1      32.513  -6.190 -22.529  0.00  0.00    +0.060 C 
ATOM     15  C   UNL     1      32.092  -4.250 -23.912  0.00  0.00    +0.123 C 
ATOM     16  C   UNL     1      31.842  -4.986 -22.753  0.00  0.00    +0.035 C 
ATOM     17  C   UNL     1      33.437  -6.654 -23.470  0.00  0.00    +0.015 C 
ATOM     18  C   UNL     1      33.014  -4.717 -24.849  0.00  0.00    +0.020 C 
ATOM     19  C   UNL     1      33.686  -5.919 -24.628  0.00  0.00    +0.003 C 
BRANCH  15  20
ATOM     20  S   UNL     1      31.252  -2.745 -24.190  0.00  0.00    +0.057 S 
ATOM     21  O   UNL     1      31.947  -2.019 -25.242  0.00  0.00    -0.153 OA
ATOM     22  O   UNL     1      29.829  -3.028 -24.324  0.00  0.00    -0.153 OA
BRANCH  20  23
ATOM     23  N   UNL     1      31.513  -1.946 -22.702  0.00  0.00    -0.203 NA
ATOM     24  H   UNL     1      32.374  -1.401 -22.756  0.00  0.00    +0.144 HD
ATOM     25  H   UNL     1      31.595  -2.637 -21.956  0.00  0.00    +0.144 HD
ENDBRANCH  20  23
ENDBRANCH  15  20
ENDBRANCH   4  14
BRANCH   6  26
ATOM     26  O   UNL     1      32.296 -11.287 -23.095  0.00  0.00    -0.453 OA
BRANCH  26  27
ATOM     27  C   UNL     1      33.577 -11.844 -23.319  0.00  0.00    +0.208 C 
BRANCH  27  28
ATOM     28  C   UNL     1      33.423 -13.354 -23.494  0.00  0.00    +0.044 C 
ATOM     29  C   UNL     1      33.536 -13.743 -24.974  0.00  0.00    +0.004 C 
ATOM     30  C   UNL     1      34.463 -14.106 -22.652  0.00  0.00    +0.004 C 
ATOM     31  C   UNL     1      33.438 -15.254 -25.169  0.00  0.00    +0.000 C 
ATOM     32  C   UNL     1      34.364 -15.616 -22.851  0.00  0.00    +0.000 C 
ATOM     33  C   UNL     1      34.467 -15.998 -24.324  0.00  0.00    +0.000 C 
ENDBRANCH  27  28
ENDBRANCH  26  27
ENDBRANCH   6  26
TORSDOF 6
ENDMDL
