MODEL 1
REMARK VINA RESULT:     -12.5      0.000      0.000
REMARK  Name = 10297043
REMARK  6 active torsions:
REMARK  status: ('A' for Active; 'I' for Inactive)
REMARK    1  A    between atoms: N_2  and  C_30
REMARK    2  A    between atoms: C_5  and  C_16
REMARK    3  A    between atoms: C_13  and  C_19
REMARK    4  A    between atoms: C_19  and  N_20
REMARK    5  A    between atoms: N_21  and  C_28
REMARK    6  A    between atoms: C_30  and  C_32
REMARK                            x       y       z     vdW  Elec       q    Type
REMARK                         _______ _______ _______ _____ _____    ______ ____
ROOT
ATOM      1  N   UNL     1      34.754 -17.554 -23.977  0.00  0.00    -0.301 N 
ATOM      2  N   UNL     1      33.487 -13.211 -22.840  0.00  0.00    -0.319 N 
ATOM      3  N   UNL     1      34.033 -16.168 -25.814  0.00  0.00    -0.233 NA
ATOM      4  N   UNL     1      33.394 -13.924 -25.116  0.00  0.00    -0.233 NA
ATOM      5  C   UNL     1      34.902 -17.414 -22.622  0.00  0.00    +0.046 C 
ATOM      6  C   UNL     1      34.139 -15.469 -23.475  0.00  0.00    +0.131 C 
ATOM      7  C   UNL     1      34.529 -16.130 -22.282  0.00  0.00    +0.003 C 
ATOM      8  C   UNL     1      34.290 -16.381 -24.512  0.00  0.00    +0.117 C 
ATOM      9  C   UNL     1      33.672 -14.202 -23.821  0.00  0.00    +0.113 C 
ATOM     10  C   UNL     1      33.589 -14.911 -26.020  0.00  0.00    +0.252 C 
ATOM     11  H   UNL     1      34.950 -18.373 -24.488  0.00  0.00    +0.153 HD
ATOM     12  H   UNL     1      33.694 -13.433 -21.903  0.00  0.00    +0.148 HD
ENDROOT
BRANCH   5  16
ATOM     13  C   UNL     1      36.282 -20.570 -20.181  0.00  0.00    -0.043 C 
ATOM     14  C   UNL     1      34.940 -20.514 -20.539  0.00  0.00    -0.006 C 
ATOM     15  C   UNL     1      37.175 -19.599 -20.617  0.00  0.00    -0.006 C 
ATOM     16  C   UNL     1      35.374 -18.492 -21.788  0.00  0.00    +0.013 C 
ATOM     17  C   UNL     1      34.485 -19.471 -21.346  0.00  0.00    +0.001 C 
ATOM     18  C   UNL     1      36.719 -18.556 -21.424  0.00  0.00    +0.001 C 
BRANCH  13  19
ATOM     19  C   UNL     1      36.773 -21.693 -19.312  0.00  0.00    -0.050 C 
BRANCH  19  20
ATOM     20  N   UNL     1      35.865 -21.958 -18.199  0.00  0.00    +0.387 N 
ATOM     21  N   UNL     1      34.598 -23.697 -16.268  0.00  0.00    +0.384 N 
ATOM     22  C   UNL     1      34.813 -22.902 -18.598  0.00  0.00    -0.100 C 
ATOM     23  C   UNL     1      36.601 -22.471 -17.037  0.00  0.00    -0.100 C 
ATOM     24  C   UNL     1      33.862 -23.185 -17.430  0.00  0.00    -0.101 C 
ATOM     25  C   UNL     1      35.648 -22.753 -15.869  0.00  0.00    -0.101 C 
ATOM     26  H   UNL     1      35.423 -21.076 -17.936  0.00  0.00    -0.079 HD
ATOM     27  H   UNL     1      35.041 -24.578 -16.531  0.00  0.00    -0.080 HD
BRANCH  21  28
ATOM     28  C   UNL     1      33.690 -23.965 -15.155  0.00  0.00    -0.078 C 
ATOM     29  C   UNL     1      32.265 -23.568 -15.501  0.00  0.00    -0.025 C 
ENDBRANCH  21  28
ENDBRANCH  19  20
ENDBRANCH  13  19
ENDBRANCH   5  16
BRANCH   2  30
ATOM     30  C   UNL     1      33.009 -11.894 -23.140  0.00  0.00    +0.093 C 
ATOM     31  C   UNL     1      34.145 -11.076 -23.748  0.00  0.00    +0.026 C 
BRANCH  30  32
ATOM     32  C   UNL     1      32.415 -11.258 -21.902  0.00  0.00    -0.005 C 
ATOM     33  C   UNL     1      31.911 -12.069 -20.900  0.00  0.00    -0.003 C 
ATOM     34  C   UNL     1      32.386  -9.878 -21.799  0.00  0.00    -0.003 C 
ATOM     35  C   UNL     1      31.362 -11.483 -19.760  0.00  0.00    -0.000 C 
ATOM     36  C   UNL     1      31.838  -9.291 -20.659  0.00  0.00    -0.000 C 
ATOM     37  C   UNL     1      31.325 -10.094 -19.640  0.00  0.00    -0.000 C 
ENDBRANCH  30  32
ENDBRANCH   2  30
TORSDOF 6
ENDMDL
MODEL 2
REMARK VINA RESULT:     -12.1      2.586     12.058
REMARK  Name = 10297043
REMARK  6 active torsions:
REMARK  status: ('A' for Active; 'I' for Inactive)
REMARK    1  A    between atoms: N_2  and  C_30
REMARK    2  A    between atoms: C_5  and  C_16
REMARK    3  A    between atoms: C_13  and  C_19
REMARK    4  A    between atoms: C_19  and  N_20
REMARK    5  A    between atoms: N_21  and  C_28
REMARK    6  A    between atoms: C_30  and  C_32
REMARK                            x       y       z     vdW  Elec       q    Type
REMARK                         _______ _______ _______ _____ _____    ______ ____
ROOT
ATOM      1  N   UNL     1      32.448 -22.389 -18.049  0.00  0.00    -0.301 N 
ATOM      2  N   UNL     1      35.054 -24.426 -14.759  0.00  0.00    -0.319 N 
ATOM      3  N   UNL     1      31.225 -23.566 -16.337  0.00  0.00    -0.233 NA
ATOM      4  N   UNL     1      32.674 -24.592 -14.670  0.00  0.00    -0.233 NA
ATOM      5  C   UNL     1      33.764 -22.139 -18.340  0.00  0.00    +0.046 C 
ATOM      6  C   UNL     1      33.658 -23.377 -16.457  0.00  0.00    +0.131 C 
ATOM      7  C   UNL     1      34.538 -22.740 -17.369  0.00  0.00    +0.003 C 
ATOM      8  C   UNL     1      32.365 -23.141 -16.907  0.00  0.00    +0.117 C 
ATOM      9  C   UNL     1      33.786 -24.135 -15.293  0.00  0.00    +0.113 C 
ATOM     10  C   UNL     1      31.479 -24.285 -15.224  0.00  0.00    +0.252 C 
ATOM     11  H   UNL     1      31.680 -22.076 -18.580  0.00  0.00    +0.153 HD
ATOM     12  H   UNL     1      35.850 -24.084 -15.227  0.00  0.00    +0.148 HD
ENDROOT
BRANCH   5  16
ATOM     13  C   UNL     1      34.920 -19.886 -21.718  0.00  0.00    -0.043 C 
ATOM     14  C   UNL     1      33.572 -20.000 -21.396  0.00  0.00    -0.006 C 
ATOM     15  C   UNL     1      35.891 -20.505 -20.941  0.00  0.00    -0.006 C 
ATOM     16  C   UNL     1      34.159 -21.369 -19.494  0.00  0.00    +0.013 C 
ATOM     17  C   UNL     1      33.191 -20.744 -20.279  0.00  0.00    +0.001 C 
ATOM     18  C   UNL     1      35.509 -21.249 -19.824  0.00  0.00    +0.001 C 
BRANCH  13  19
ATOM     19  C   UNL     1      35.330 -19.085 -22.920  0.00  0.00    -0.050 C 
BRANCH  19  20
ATOM     20  N   UNL     1      34.682 -17.776 -22.952  0.00  0.00    +0.387 N 
ATOM     21  N   UNL     1      34.706 -14.896 -23.212  0.00  0.00    +0.384 N 
ATOM     22  C   UNL     1      35.190 -16.917 -21.874  0.00  0.00    -0.100 C 
ATOM     23  C   UNL     1      34.874 -17.129 -24.256  0.00  0.00    -0.100 C 
ATOM     24  C   UNL     1      34.515 -15.542 -21.907  0.00  0.00    -0.101 C 
ATOM     25  C   UNL     1      34.197 -15.754 -24.287  0.00  0.00    -0.101 C 
ATOM     26  H   UNL     1      33.682 -17.916 -22.806  0.00  0.00    -0.079 HD
ATOM     27  H   UNL     1      35.707 -14.757 -23.358  0.00  0.00    -0.080 HD
BRANCH  21  28
ATOM     28  C   UNL     1      34.060 -13.586 -23.243  0.00  0.00    -0.078 C 
ATOM     29  C   UNL     1      32.708 -13.624 -22.551  0.00  0.00    -0.025 C 
ENDBRANCH  21  28
ENDBRANCH  19  20
ENDBRANCH  13  19
ENDBRANCH   5  16
BRANCH   2  30
ATOM     30  C   UNL     1      35.242 -25.199 -13.569  0.00  0.00    +0.093 C 
ATOM     31  C   UNL     1      34.687 -24.424 -12.376  0.00  0.00    +0.026 C 
BRANCH  30  32
ATOM     32  C   UNL     1      36.700 -25.570 -13.409  0.00  0.00    -0.005 C 
ATOM     33  C   UNL     1      37.515 -25.605 -14.528  0.00  0.00    -0.003 C 
ATOM     34  C   UNL     1      37.188 -25.868 -12.149  0.00  0.00    -0.003 C 
ATOM     35  C   UNL     1      38.858 -25.948 -14.381  0.00  0.00    -0.000 C 
ATOM     36  C   UNL     1      38.532 -26.211 -12.002  0.00  0.00    -0.000 C 
ATOM     37  C   UNL     1      39.367 -26.252 -13.118  0.00  0.00    -0.000 C 
ENDBRANCH  30  32
ENDBRANCH   2  30
TORSDOF 6
ENDMDL
MODEL 3
REMARK VINA RESULT:     -11.0      2.473     11.840
REMARK  Name = 10297043
REMARK  6 active torsions:
REMARK  status: ('A' for Active; 'I' for Inactive)
REMARK    1  A    between atoms: N_2  and  C_30
REMARK    2  A    between atoms: C_5  and  C_16
REMARK    3  A    between atoms: C_13  and  C_19
REMARK    4  A    between atoms: C_19  and  N_20
REMARK    5  A    between atoms: N_21  and  C_28
REMARK    6  A    between atoms: C_30  and  C_32
REMARK                            x       y       z     vdW  Elec       q    Type
REMARK                         _______ _______ _______ _____ _____    ______ ____
ROOT
ATOM      1  N   UNL     1      33.793 -22.395 -17.870  0.00  0.00    -0.301 N 
ATOM      2  N   UNL     1      36.997 -24.581 -15.277  0.00  0.00    -0.319 N 
ATOM      3  N   UNL     1      32.926 -23.769 -16.088  0.00  0.00    -0.233 NA
ATOM      4  N   UNL     1      34.676 -24.864 -14.796  0.00  0.00    -0.233 NA
ATOM      5  C   UNL     1      35.029 -22.061 -18.358  0.00  0.00    +0.046 C 
ATOM      6  C   UNL     1      35.294 -23.458 -16.606  0.00  0.00    +0.131 C 
ATOM      7  C   UNL     1      35.979 -22.705 -17.594  0.00  0.00    +0.003 C 
ATOM      8  C   UNL     1      33.935 -23.245 -16.805  0.00  0.00    +0.117 C 
ATOM      9  C   UNL     1      35.646 -24.304 -15.556  0.00  0.00    +0.113 C 
ATOM     10  C   UNL     1      33.393 -24.567 -15.106  0.00  0.00    +0.252 C 
ATOM     11  H   UNL     1      32.934 -22.075 -18.230  0.00  0.00    +0.153 HD
ATOM     12  H   UNL     1      37.688 -24.163 -15.841  0.00  0.00    +0.148 HD
ENDROOT
BRANCH   5  16
ATOM     13  C   UNL     1      35.507 -19.476 -21.662  0.00  0.00    -0.043 C 
ATOM     14  C   UNL     1      36.620 -19.856 -20.920  0.00  0.00    -0.006 C 
ATOM     15  C   UNL     1      34.240 -19.938 -21.329  0.00  0.00    -0.006 C 
ATOM     16  C   UNL     1      35.192 -21.178 -19.487  0.00  0.00    +0.013 C 
ATOM     17  C   UNL     1      36.461 -20.711 -19.829  0.00  0.00    +0.001 C 
ATOM     18  C   UNL     1      34.082 -20.792 -20.238  0.00  0.00    +0.001 C 
BRANCH  13  19
ATOM     19  C   UNL     1      35.677 -18.556 -22.837  0.00  0.00    -0.050 C 
BRANCH  19  20
ATOM     20  N   UNL     1      34.794 -17.395 -22.754  0.00  0.00    +0.387 N 
ATOM     21  N   UNL     1      34.285 -14.553 -22.614  0.00  0.00    +0.384 N 
ATOM     22  C   UNL     1      35.049 -16.634 -21.523  0.00  0.00    -0.100 C 
ATOM     23  C   UNL     1      34.952 -16.534 -23.932  0.00  0.00    -0.100 C 
ATOM     24  C   UNL     1      34.127 -15.414 -21.435  0.00  0.00    -0.101 C 
ATOM     25  C   UNL     1      34.028 -15.314 -23.842  0.00  0.00    -0.101 C 
ATOM     26  H   UNL     1      33.832 -17.733 -22.728  0.00  0.00    -0.079 HD
ATOM     27  H   UNL     1      35.248 -14.216 -22.640  0.00  0.00    -0.080 HD
BRANCH  21  28
ATOM     28  C   UNL     1      33.403 -13.390 -22.530  0.00  0.00    -0.078 C 
ATOM     29  C   UNL     1      32.398 -13.544 -21.401  0.00  0.00    -0.025 C 
ENDBRANCH  21  28
ENDBRANCH  19  20
ENDBRANCH  13  19
ENDBRANCH   5  16
BRANCH   2  30
ATOM     30  C   UNL     1      37.415 -25.442 -14.212  0.00  0.00    +0.093 C 
ATOM     31  C   UNL     1      36.816 -26.830 -14.427  0.00  0.00    +0.026 C 
BRANCH  30  32
ATOM     32  C   UNL     1      37.048 -24.837 -12.874  0.00  0.00    -0.005 C 
ATOM     33  C   UNL     1      37.557 -23.596 -12.531  0.00  0.00    -0.003 C 
ATOM     34  C   UNL     1      36.213 -25.538 -12.021  0.00  0.00    -0.003 C 
ATOM     35  C   UNL     1      37.220 -23.039 -11.298  0.00  0.00    -0.000 C 
ATOM     36  C   UNL     1      35.876 -24.981 -10.788  0.00  0.00    -0.000 C 
ATOM     37  C   UNL     1      36.380 -23.732 -10.426  0.00  0.00    -0.000 C 
ENDBRANCH  30  32
ENDBRANCH   2  30
TORSDOF 6
ENDMDL
MODEL 4
REMARK VINA RESULT:     -10.9      2.042     11.276
REMARK  Name = 10297043
REMARK  6 active torsions:
REMARK  status: ('A' for Active; 'I' for Inactive)
REMARK    1  A    between atoms: N_2  and  C_30
REMARK    2  A    between atoms: C_5  and  C_16
REMARK    3  A    between atoms: C_13  and  C_19
REMARK    4  A    between atoms: C_19  and  N_20
REMARK    5  A    between atoms: N_21  and  C_28
REMARK    6  A    between atoms: C_30  and  C_32
REMARK                            x       y       z     vdW  Elec       q    Type
REMARK                         _______ _______ _______ _____ _____    ______ ____
ROOT
ATOM      1  N   UNL     1      37.182 -21.379 -18.448  0.00  0.00    -0.301 N 
ATOM      2  N   UNL     1      34.053 -23.537 -15.742  0.00  0.00    -0.319 N 
ATOM      3  N   UNL     1      38.073 -22.448 -16.480  0.00  0.00    -0.233 NA
ATOM      4  N   UNL     1      36.363 -23.544 -15.137  0.00  0.00    -0.233 NA
ATOM      5  C   UNL     1      35.947 -21.220 -19.023  0.00  0.00    +0.046 C 
ATOM      6  C   UNL     1      35.717 -22.423 -17.127  0.00  0.00    +0.131 C 
ATOM      7  C   UNL     1      35.020 -21.858 -18.226  0.00  0.00    +0.003 C 
ATOM      8  C   UNL     1      37.060 -22.107 -17.294  0.00  0.00    +0.117 C 
ATOM      9  C   UNL     1      35.387 -23.169 -15.997  0.00  0.00    +0.113 C 
ATOM     10  C   UNL     1      37.628 -23.165 -15.427  0.00  0.00    +0.252 C 
ATOM     11  H   UNL     1      38.026 -21.024 -18.810  0.00  0.00    +0.153 HD
ATOM     12  H   UNL     1      33.358 -23.254 -16.380  0.00  0.00    +0.148 HD
ENDROOT
BRANCH   5  16
ATOM     13  C   UNL     1      35.413 -19.080 -22.623  0.00  0.00    -0.043 C 
ATOM     14  C   UNL     1      36.658 -19.085 -22.003  0.00  0.00    -0.006 C 
ATOM     15  C   UNL     1      34.343 -19.772 -22.070  0.00  0.00    -0.006 C 
ATOM     16  C   UNL     1      35.764 -20.490 -20.253  0.00  0.00    +0.013 C 
ATOM     17  C   UNL     1      36.834 -19.793 -20.814  0.00  0.00    +0.001 C 
ATOM     18  C   UNL     1      34.519 -20.480 -20.881  0.00  0.00    +0.001 C 
BRANCH  13  19
ATOM     19  C   UNL     1      35.223 -18.318 -23.903  0.00  0.00    -0.050 C 
BRANCH  19  20
ATOM     20  N   UNL     1      34.497 -17.068 -23.691  0.00  0.00    +0.387 N 
ATOM     21  N   UNL     1      34.268 -14.186 -23.723  0.00  0.00    +0.384 N 
ATOM     22  C   UNL     1      35.170 -16.238 -22.683  0.00  0.00    -0.100 C 
ATOM     23  C   UNL     1      34.353 -16.328 -24.951  0.00  0.00    -0.100 C 
ATOM     24  C   UNL     1      34.413 -14.925 -22.462  0.00  0.00    -0.101 C 
ATOM     25  C   UNL     1      33.594 -15.015 -24.728  0.00  0.00    -0.101 C 
ATOM     26  H   UNL     1      33.565 -17.300 -23.346  0.00  0.00    -0.079 HD
ATOM     27  H   UNL     1      35.200 -13.955 -24.068  0.00  0.00    -0.080 HD
BRANCH  21  28
ATOM     28  C   UNL     1      33.544 -12.934 -23.511  0.00  0.00    -0.078 C 
ATOM     29  C   UNL     1      34.105 -11.821 -24.379  0.00  0.00    -0.025 C 
ENDBRANCH  21  28
ENDBRANCH  19  20
ENDBRANCH  13  19
ENDBRANCH   5  16
BRANCH   2  30
ATOM     30  C   UNL     1      33.659 -24.301 -14.597  0.00  0.00    +0.093 C 
ATOM     31  C   UNL     1      34.421 -25.625 -14.592  0.00  0.00    +0.026 C 
BRANCH  30  32
ATOM     32  C   UNL     1      32.157 -24.481 -14.578  0.00  0.00    -0.005 C 
ATOM     33  C   UNL     1      31.588 -25.314 -13.630  0.00  0.00    -0.003 C 
ATOM     34  C   UNL     1      31.383 -23.809 -15.510  0.00  0.00    -0.003 C 
ATOM     35  C   UNL     1      30.204 -25.480 -13.612  0.00  0.00    -0.000 C 
ATOM     36  C   UNL     1      29.999 -23.976 -15.492  0.00  0.00    -0.000 C 
ATOM     37  C   UNL     1      29.409 -24.811 -14.544  0.00  0.00    -0.000 C 
ENDBRANCH  30  32
ENDBRANCH   2  30
TORSDOF 6
ENDMDL
MODEL 5
REMARK VINA RESULT:     -10.8      2.903     11.628
REMARK  Name = 10297043
REMARK  6 active torsions:
REMARK  status: ('A' for Active; 'I' for Inactive)
REMARK    1  A    between atoms: N_2  and  C_30
REMARK    2  A    between atoms: C_5  and  C_16
REMARK    3  A    between atoms: C_13  and  C_19
REMARK    4  A    between atoms: C_19  and  N_20
REMARK    5  A    between atoms: N_21  and  C_28
REMARK    6  A    between atoms: C_30  and  C_32
REMARK                            x       y       z     vdW  Elec       q    Type
REMARK                         _______ _______ _______ _____ _____    ______ ____
ROOT
ATOM      1  N   UNL     1      33.378 -14.468 -24.102  0.00  0.00    -0.301 N 
ATOM      2  N   UNL     1      35.592 -17.637 -21.489  0.00  0.00    -0.319 N 
ATOM      3  N   UNL     1      33.954 -16.523 -25.225  0.00  0.00    -0.233 NA
ATOM      4  N   UNL     1      35.104 -18.107 -23.778  0.00  0.00    -0.233 NA
ATOM      5  C   UNL     1      33.529 -13.945 -22.843  0.00  0.00    +0.046 C 
ATOM      6  C   UNL     1      34.439 -16.010 -22.886  0.00  0.00    +0.131 C 
ATOM      7  C   UNL     1      34.183 -14.880 -22.068  0.00  0.00    +0.003 C 
ATOM      8  C   UNL     1      33.927 -15.723 -24.145  0.00  0.00    +0.117 C 
ATOM      9  C   UNL     1      35.045 -17.256 -22.727  0.00  0.00    +0.113 C 
ATOM     10  C   UNL     1      34.563 -17.693 -24.946  0.00  0.00    +0.252 C 
ATOM     11  H   UNL     1      32.944 -14.012 -24.858  0.00  0.00    +0.153 HD
ATOM     12  H   UNL     1      35.539 -17.003 -20.737  0.00  0.00    +0.148 HD
ENDROOT
BRANCH   5  16
ATOM     13  C   UNL     1      32.126 -10.093 -21.838  0.00  0.00    -0.043 C 
ATOM     14  C   UNL     1      32.987 -10.251 -22.918  0.00  0.00    -0.006 C 
ATOM     15  C   UNL     1      31.722 -11.189 -21.085  0.00  0.00    -0.006 C 
ATOM     16  C   UNL     1      33.049 -12.630 -22.500  0.00  0.00    +0.013 C 
ATOM     17  C   UNL     1      33.449 -11.524 -23.250  0.00  0.00    +0.001 C 
ATOM     18  C   UNL     1      32.185 -12.462 -21.418  0.00  0.00    +0.001 C 
BRANCH  13  19
ATOM     19  C   UNL     1      31.627  -8.722 -21.480  0.00  0.00    -0.050 C 
BRANCH  19  20
ATOM     20  N   UNL     1      31.807  -7.772 -22.576  0.00  0.00    +0.387 N 
ATOM     21  N   UNL     1      32.356  -5.139 -23.637  0.00  0.00    +0.384 N 
ATOM     22  C   UNL     1      30.809  -6.697 -22.502  0.00  0.00    -0.100 C 
ATOM     23  C   UNL     1      33.165  -7.213 -22.564  0.00  0.00    -0.100 C 
ATOM     24  C   UNL     1      30.998  -5.697 -23.648  0.00  0.00    -0.101 C 
ATOM     25  C   UNL     1      33.352  -6.214 -23.712  0.00  0.00    -0.101 C 
ATOM     26  H   UNL     1      31.673  -8.275 -23.453  0.00  0.00    -0.079 HD
ATOM     27  H   UNL     1      32.490  -4.638 -22.758  0.00  0.00    -0.080 HD
BRANCH  21  28
ATOM     28  C   UNL     1      32.535  -4.188 -24.731  0.00  0.00    -0.078 C 
ATOM     29  C   UNL     1      33.260  -4.828 -25.903  0.00  0.00    -0.025 C 
ENDBRANCH  21  28
ENDBRANCH  19  20
ENDBRANCH  13  19
ENDBRANCH   5  16
BRANCH   2  30
ATOM     30  C   UNL     1      36.226 -18.902 -21.271  0.00  0.00    +0.093 C 
ATOM     31  C   UNL     1      36.803 -19.407 -22.591  0.00  0.00    +0.026 C 
BRANCH  30  32
ATOM     32  C   UNL     1      35.253 -19.873 -20.638  0.00  0.00    -0.005 C 
ATOM     33  C   UNL     1      35.745 -20.945 -19.912  0.00  0.00    -0.003 C 
ATOM     34  C   UNL     1      33.894 -19.671 -20.797  0.00  0.00    -0.003 C 
ATOM     35  C   UNL     1      34.850 -21.841 -19.329  0.00  0.00    -0.000 C 
ATOM     36  C   UNL     1      32.998 -20.566 -20.214  0.00  0.00    -0.000 C 
ATOM     37  C   UNL     1      33.476 -21.652 -19.480  0.00  0.00    -0.000 C 
ENDBRANCH  30  32
ENDBRANCH   2  30
TORSDOF 6
ENDMDL
MODEL 6
REMARK VINA RESULT:     -10.0      3.067     11.754
REMARK  Name = 10297043
REMARK  6 active torsions:
REMARK  status: ('A' for Active; 'I' for Inactive)
REMARK    1  A    between atoms: N_2  and  C_30
REMARK    2  A    between atoms: C_5  and  C_16
REMARK    3  A    between atoms: C_13  and  C_19
REMARK    4  A    between atoms: C_19  and  N_20
REMARK    5  A    between atoms: N_21  and  C_28
REMARK    6  A    between atoms: C_30  and  C_32
REMARK                            x       y       z     vdW  Elec       q    Type
REMARK                         _______ _______ _______ _____ _____    ______ ____
ROOT
ATOM      1  N   UNL     1      33.408 -14.186 -24.437  0.00  0.00    -0.301 N 
ATOM      2  N   UNL     1      35.443 -17.531 -21.900  0.00  0.00    -0.319 N 
ATOM      3  N   UNL     1      33.952 -16.209 -25.630  0.00  0.00    -0.233 NA
ATOM      4  N   UNL     1      35.008 -17.889 -24.220  0.00  0.00    -0.233 NA
ATOM      5  C   UNL     1      33.538 -13.721 -23.153  0.00  0.00    +0.046 C 
ATOM      6  C   UNL     1      34.383 -15.811 -23.258  0.00  0.00    +0.131 C 
ATOM      7  C   UNL     1      34.139 -14.708 -22.400  0.00  0.00    +0.003 C 
ATOM      8  C   UNL     1      33.918 -15.455 -24.518  0.00  0.00    +0.117 C 
ATOM      9  C   UNL     1      34.945 -17.081 -23.136  0.00  0.00    +0.113 C 
ATOM     10  C   UNL     1      34.516 -17.409 -25.384  0.00  0.00    +0.252 C 
ATOM     11  H   UNL     1      33.010 -13.684 -25.185  0.00  0.00    +0.153 HD
ATOM     12  H   UNL     1      35.387 -16.927 -21.123  0.00  0.00    +0.148 HD
ENDROOT
BRANCH   5  16
ATOM     13  C   UNL     1      32.223  -9.871 -22.024  0.00  0.00    -0.043 C 
ATOM     14  C   UNL     1      31.783 -10.984 -21.315  0.00  0.00    -0.006 C 
ATOM     15  C   UNL     1      33.090 -10.012 -23.100  0.00  0.00    -0.006 C 
ATOM     16  C   UNL     1      33.089 -12.406 -22.768  0.00  0.00    +0.013 C 
ATOM     17  C   UNL     1      32.219 -12.255 -21.688  0.00  0.00    +0.001 C 
ATOM     18  C   UNL     1      33.525 -11.285 -23.473  0.00  0.00    +0.001 C 
BRANCH  13  19
ATOM     19  C   UNL     1      31.755  -8.502 -21.623  0.00  0.00    -0.050 C 
BRANCH  19  20
ATOM     20  N   UNL     1      31.852  -7.547 -22.725  0.00  0.00    +0.387 N 
ATOM     21  N   UNL     1      32.394  -4.927 -23.821  0.00  0.00    +0.384 N 
ATOM     22  C   UNL     1      30.917  -6.431 -22.530  0.00  0.00    -0.100 C 
ATOM     23  C   UNL     1      33.226  -7.048 -22.863  0.00  0.00    -0.100 C 
ATOM     24  C   UNL     1      31.020  -5.426 -23.682  0.00  0.00    -0.101 C 
ATOM     25  C   UNL     1      33.327  -6.043 -24.016  0.00  0.00    -0.101 C 
ATOM     26  H   UNL     1      31.598  -8.032 -23.585  0.00  0.00    -0.079 HD
ATOM     27  H   UNL     1      32.649  -4.443 -22.959  0.00  0.00    -0.080 HD
BRANCH  21  28
ATOM     28  C   UNL     1      32.492  -3.970 -24.921  0.00  0.00    -0.078 C 
ATOM     29  C   UNL     1      31.352  -2.967 -24.879  0.00  0.00    -0.025 C 
ENDBRANCH  21  28
ENDBRANCH  19  20
ENDBRANCH  13  19
ENDBRANCH   5  16
BRANCH   2  30
ATOM     30  C   UNL     1      36.030 -18.824 -21.718  0.00  0.00    +0.093 C 
ATOM     31  C   UNL     1      36.427 -19.390 -23.080  0.00  0.00    +0.026 C 
BRANCH  30  32
ATOM     32  C   UNL     1      35.087 -19.725 -20.952  0.00  0.00    -0.005 C 
ATOM     33  C   UNL     1      33.722 -19.604 -21.155  0.00  0.00    -0.003 C 
ATOM     34  C   UNL     1      35.606 -20.651 -20.065  0.00  0.00    -0.003 C 
ATOM     35  C   UNL     1      32.852 -20.434 -20.450  0.00  0.00    -0.000 C 
ATOM     36  C   UNL     1      34.736 -21.481 -19.359  0.00  0.00    -0.000 C 
ATOM     37  C   UNL     1      33.359 -21.373 -19.551  0.00  0.00    -0.000 C 
ENDBRANCH  30  32
ENDBRANCH   2  30
TORSDOF 6
ENDMDL
MODEL 7
REMARK VINA RESULT:      -9.7      2.091     11.891
REMARK  Name = 10297043
REMARK  6 active torsions:
REMARK  status: ('A' for Active; 'I' for Inactive)
REMARK    1  A    between atoms: N_2  and  C_30
REMARK    2  A    between atoms: C_5  and  C_16
REMARK    3  A    between atoms: C_13  and  C_19
REMARK    4  A    between atoms: C_19  and  N_20
REMARK    5  A    between atoms: N_21  and  C_28
REMARK    6  A    between atoms: C_30  and  C_32
REMARK                            x       y       z     vdW  Elec       q    Type
REMARK                         _______ _______ _______ _____ _____    ______ ____
ROOT
ATOM      1  N   UNL     1      37.169 -20.965 -18.201  0.00  0.00    -0.301 N 
ATOM      2  N   UNL     1      34.473 -24.083 -16.017  0.00  0.00    -0.319 N 
ATOM      3  N   UNL     1      38.040 -21.813 -16.119  0.00  0.00    -0.233 NA
ATOM      4  N   UNL     1      36.561 -23.432 -15.060  0.00  0.00    -0.233 NA
ATOM      5  C   UNL     1      36.044 -21.153 -18.961  0.00  0.00    +0.046 C 
ATOM      6  C   UNL     1      35.909 -22.459 -17.125  0.00  0.00    +0.131 C 
ATOM      7  C   UNL     1      35.244 -22.075 -18.318  0.00  0.00    +0.003 C 
ATOM      8  C   UNL     1      37.103 -21.750 -17.081  0.00  0.00    +0.117 C 
ATOM      9  C   UNL     1      35.656 -23.323 -16.061  0.00  0.00    +0.113 C 
ATOM     10  C   UNL     1      37.681 -22.680 -15.149  0.00  0.00    +0.252 C 
ATOM     11  H   UNL     1      37.911 -20.357 -18.426  0.00  0.00    +0.153 HD
ATOM     12  H   UNL     1      33.827 -23.990 -16.755  0.00  0.00    +0.148 HD
ENDROOT
BRANCH   5  16
ATOM     13  C   UNL     1      35.429 -19.099 -22.597  0.00  0.00    -0.043 C 
ATOM     14  C   UNL     1      36.682 -19.073 -21.996  0.00  0.00    -0.006 C 
ATOM     15  C   UNL     1      34.376 -19.793 -22.014  0.00  0.00    -0.006 C 
ATOM     16  C   UNL     1      35.833 -20.452 -20.203  0.00  0.00    +0.013 C 
ATOM     17  C   UNL     1      36.885 -19.753 -20.795  0.00  0.00    +0.001 C 
ATOM     18  C   UNL     1      34.579 -20.472 -20.813  0.00  0.00    +0.001 C 
BRANCH  13  19
ATOM     19  C   UNL     1      35.210 -18.367 -23.890  0.00  0.00    -0.050 C 
BRANCH  19  20
ATOM     20  N   UNL     1      34.478 -17.118 -23.694  0.00  0.00    +0.387 N 
ATOM     21  N   UNL     1      34.255 -14.235 -23.700  0.00  0.00    +0.384 N 
ATOM     22  C   UNL     1      35.110 -16.302 -22.649  0.00  0.00    -0.100 C 
ATOM     23  C   UNL     1      34.387 -16.363 -24.949  0.00  0.00    -0.100 C 
ATOM     24  C   UNL     1      34.346 -14.989 -22.444  0.00  0.00    -0.101 C 
ATOM     25  C   UNL     1      33.621 -15.051 -24.742  0.00  0.00    -0.101 C 
ATOM     26  H   UNL     1      33.532 -17.352 -23.389  0.00  0.00    -0.079 HD
ATOM     27  H   UNL     1      35.201 -14.002 -24.005  0.00  0.00    -0.080 HD
BRANCH  21  28
ATOM     28  C   UNL     1      33.524 -12.985 -23.503  0.00  0.00    -0.078 C 
ATOM     29  C   UNL     1      34.106 -11.869 -24.355  0.00  0.00    -0.025 C 
ENDBRANCH  21  28
ENDBRANCH  19  20
ENDBRANCH  13  19
ENDBRANCH   5  16
BRANCH   2  30
ATOM     30  C   UNL     1      34.162 -24.985 -14.949  0.00  0.00    +0.093 C 
ATOM     31  C   UNL     1      33.443 -24.219 -13.841  0.00  0.00    +0.026 C 
BRANCH  30  32
ATOM     32  C   UNL     1      35.416 -25.684 -14.471  0.00  0.00    -0.005 C 
ATOM     33  C   UNL     1      36.059 -26.572 -15.317  0.00  0.00    -0.003 C 
ATOM     34  C   UNL     1      35.894 -25.421 -13.199  0.00  0.00    -0.003 C 
ATOM     35  C   UNL     1      37.214 -27.216 -14.877  0.00  0.00    -0.000 C 
ATOM     36  C   UNL     1      37.049 -26.066 -12.759  0.00  0.00    -0.000 C 
ATOM     37  C   UNL     1      37.709 -26.964 -13.597  0.00  0.00    -0.000 C 
ENDBRANCH  30  32
ENDBRANCH   2  30
TORSDOF 6
ENDMDL
MODEL 8
REMARK VINA RESULT:      -9.7      3.193      6.251
REMARK  Name = 10297043
REMARK  6 active torsions:
REMARK  status: ('A' for Active; 'I' for Inactive)
REMARK    1  A    between atoms: N_2  and  C_30
REMARK    2  A    between atoms: C_5  and  C_16
REMARK    3  A    between atoms: C_13  and  C_19
REMARK    4  A    between atoms: C_19  and  N_20
REMARK    5  A    between atoms: N_21  and  C_28
REMARK    6  A    between atoms: C_30  and  C_32
REMARK                            x       y       z     vdW  Elec       q    Type
REMARK                         _______ _______ _______ _____ _____    ______ ____
ROOT
ATOM      1  N   UNL     1      32.475 -12.100 -20.131  0.00  0.00    -0.301 N 
ATOM      2  N   UNL     1      32.232  -8.113 -22.541  0.00  0.00    -0.319 N 
ATOM      3  N   UNL     1      31.528 -10.227 -18.946  0.00  0.00    -0.233 NA
ATOM      4  N   UNL     1      31.446  -8.197 -20.288  0.00  0.00    -0.233 NA
ATOM      5  C   UNL     1      32.989 -12.332 -21.381  0.00  0.00    +0.046 C 
ATOM      6  C   UNL     1      32.341 -10.174 -21.250  0.00  0.00    +0.131 C 
ATOM      7  C   UNL     1      32.918 -11.155 -22.097  0.00  0.00    +0.003 C 
ATOM      8  C   UNL     1      32.077 -10.793 -20.034  0.00  0.00    +0.117 C 
ATOM      9  C   UNL     1      32.003  -8.825 -21.350  0.00  0.00    +0.113 C 
ATOM     10  C   UNL     1      31.247  -8.926 -19.167  0.00  0.00    +0.252 C 
ATOM     11  H   UNL     1      32.404 -12.771 -19.414  0.00  0.00    +0.153 HD
ATOM     12  H   UNL     1      32.638  -8.589 -23.302  0.00  0.00    +0.148 HD
ENDROOT
BRANCH   5  16
ATOM     13  C   UNL     1      34.464 -16.117 -22.530  0.00  0.00    -0.043 C 
ATOM     14  C   UNL     1      34.170 -15.169 -23.504  0.00  0.00    -0.006 C 
ATOM     15  C   UNL     1      34.277 -15.833 -21.183  0.00  0.00    -0.006 C 
ATOM     16  C   UNL     1      33.493 -13.625 -21.773  0.00  0.00    +0.013 C 
ATOM     17  C   UNL     1      33.684 -13.918 -23.123  0.00  0.00    +0.001 C 
ATOM     18  C   UNL     1      33.790 -14.582 -20.803  0.00  0.00    +0.001 C 
BRANCH  13  19
ATOM     19  C   UNL     1      34.987 -17.464 -22.939  0.00  0.00    -0.050 C 
BRANCH  19  20
ATOM     20  N   UNL     1      35.262 -18.317 -21.785  0.00  0.00    +0.387 N 
ATOM     21  N   UNL     1      36.130 -20.785 -20.556  0.00  0.00    +0.384 N 
ATOM     22  C   UNL     1      34.420 -19.520 -21.814  0.00  0.00    -0.100 C 
ATOM     23  C   UNL     1      36.682 -18.685 -21.734  0.00  0.00    -0.100 C 
ATOM     24  C   UNL     1      34.709 -20.418 -20.606  0.00  0.00    -0.101 C 
ATOM     25  C   UNL     1      36.969 -19.582 -20.525  0.00  0.00    -0.101 C 
ATOM     26  H   UNL     1      35.036 -17.787 -20.942  0.00  0.00    -0.079 HD
ATOM     27  H   UNL     1      36.356 -21.313 -21.399  0.00  0.00    -0.080 HD
BRANCH  21  28
ATOM     28  C   UNL     1      36.405 -21.640 -19.402  0.00  0.00    -0.078 C 
ATOM     29  C   UNL     1      35.123 -22.225 -18.835  0.00  0.00    -0.025 C 
ENDBRANCH  21  28
ENDBRANCH  19  20
ENDBRANCH  13  19
ENDBRANCH   5  16
BRANCH   2  30
ATOM     30  C   UNL     1      31.904  -6.728 -22.698  0.00  0.00    +0.093 C 
ATOM     31  C   UNL     1      30.398  -6.590 -22.905  0.00  0.00    +0.026 C 
BRANCH  30  32
ATOM     32  C   UNL     1      32.716  -6.121 -23.822  0.00  0.00    -0.005 C 
ATOM     33  C   UNL     1      33.914  -6.712 -24.185  0.00  0.00    -0.003 C 
ATOM     34  C   UNL     1      32.244  -4.988 -24.462  0.00  0.00    -0.003 C 
ATOM     35  C   UNL     1      34.663  -6.153 -25.220  0.00  0.00    -0.000 C 
ATOM     36  C   UNL     1      32.993  -4.429 -25.497  0.00  0.00    -0.000 C 
ATOM     37  C   UNL     1      34.202  -5.011 -25.876  0.00  0.00    -0.000 C 
ENDBRANCH  30  32
ENDBRANCH   2  30
TORSDOF 6
ENDMDL
MODEL 9
REMARK VINA RESULT:      -9.6      4.028      7.777
REMARK  Name = 10297043
REMARK  6 active torsions:
REMARK  status: ('A' for Active; 'I' for Inactive)
REMARK    1  A    between atoms: N_2  and  C_30
REMARK    2  A    between atoms: C_5  and  C_16
REMARK    3  A    between atoms: C_13  and  C_19
REMARK    4  A    between atoms: C_19  and  N_20
REMARK    5  A    between atoms: N_21  and  C_28
REMARK    6  A    between atoms: C_30  and  C_32
REMARK                            x       y       z     vdW  Elec       q    Type
REMARK                         _______ _______ _______ _____ _____    ______ ____
ROOT
ATOM      1  N   UNL     1      32.550 -10.683 -21.056  0.00  0.00    -0.301 N 
ATOM      2  N   UNL     1      32.287  -6.520 -23.145  0.00  0.00    -0.319 N 
ATOM      3  N   UNL     1      31.953  -8.838 -19.623  0.00  0.00    -0.233 NA
ATOM      4  N   UNL     1      31.843  -6.713 -20.808  0.00  0.00    -0.233 NA
ATOM      5  C   UNL     1      32.849 -10.858 -22.382  0.00  0.00    +0.046 C 
ATOM      6  C   UNL     1      32.413  -8.674 -22.017  0.00  0.00    +0.131 C 
ATOM      7  C   UNL     1      32.772  -9.629 -23.003  0.00  0.00    +0.003 C 
ATOM      8  C   UNL     1      32.283  -9.361 -20.816  0.00  0.00    +0.117 C 
ATOM      9  C   UNL     1      32.179  -7.300 -21.980  0.00  0.00    +0.113 C 
ATOM     10  C   UNL     1      31.753  -7.507 -19.716  0.00  0.00    +0.252 C 
ATOM     11  H   UNL     1      32.530 -11.398 -20.379  0.00  0.00    +0.153 HD
ATOM     12  H   UNL     1      32.533  -6.966 -23.988  0.00  0.00    +0.148 HD
ENDROOT
BRANCH   5  16
ATOM     13  C   UNL     1      33.809 -14.646 -23.980  0.00  0.00    -0.043 C 
ATOM     14  C   UNL     1      34.198 -13.495 -24.657  0.00  0.00    -0.006 C 
ATOM     15  C   UNL     1      33.108 -14.563 -22.784  0.00  0.00    -0.006 C 
ATOM     16  C   UNL     1      33.177 -12.152 -22.928  0.00  0.00    +0.013 C 
ATOM     17  C   UNL     1      33.881 -12.244 -24.128  0.00  0.00    +0.001 C 
ATOM     18  C   UNL     1      32.791 -13.311 -22.256  0.00  0.00    +0.001 C 
BRANCH  13  19
ATOM     19  C   UNL     1      34.150 -15.993 -24.549  0.00  0.00    -0.050 C 
BRANCH  19  20
ATOM     20  N   UNL     1      34.291 -17.007 -23.506  0.00  0.00    +0.387 N 
ATOM     21  N   UNL     1      35.799 -18.966 -22.007  0.00  0.00    +0.384 N 
ATOM     22  C   UNL     1      34.641 -18.309 -24.089  0.00  0.00    -0.100 C 
ATOM     23  C   UNL     1      35.297 -16.601 -22.517  0.00  0.00    -0.100 C 
ATOM     24  C   UNL     1      34.793 -19.373 -22.997  0.00  0.00    -0.101 C 
ATOM     25  C   UNL     1      35.448 -17.666 -21.425  0.00  0.00    -0.101 C 
ATOM     26  H   UNL     1      33.392 -17.098 -23.032  0.00  0.00    -0.079 HD
ATOM     27  H   UNL     1      36.698 -18.873 -22.482  0.00  0.00    -0.080 HD
BRANCH  21  28
ATOM     28  C   UNL     1      35.942 -19.980 -20.965  0.00  0.00    -0.078 C 
ATOM     29  C   UNL     1      34.586 -20.456 -20.472  0.00  0.00    -0.025 C 
ENDBRANCH  21  28
ENDBRANCH  19  20
ENDBRANCH  13  19
ENDBRANCH   5  16
BRANCH   2  30
ATOM     30  C   UNL     1      32.058  -5.107 -23.163  0.00  0.00    +0.093 C 
ATOM     31  C   UNL     1      30.581  -4.835 -22.887  0.00  0.00    +0.026 C 
BRANCH  30  32
ATOM     32  C   UNL     1      32.537  -4.514 -24.471  0.00  0.00    -0.005 C 
ATOM     33  C   UNL     1      33.453  -5.216 -25.235  0.00  0.00    -0.003 C 
ATOM     34  C   UNL     1      32.049  -3.283 -24.874  0.00  0.00    -0.003 C 
ATOM     35  C   UNL     1      33.895  -4.670 -26.440  0.00  0.00    -0.000 C 
ATOM     36  C   UNL     1      32.491  -2.737 -26.079  0.00  0.00    -0.000 C 
ATOM     37  C   UNL     1      33.414  -3.430 -26.861  0.00  0.00    -0.000 C 
ENDBRANCH  30  32
ENDBRANCH   2  30
TORSDOF 6
ENDMDL
