MODEL 1
REMARK VINA RESULT:     -10.8      0.000      0.000
REMARK  Name = 5288708
REMARK  4 active torsions:
REMARK  status: ('A' for Active; 'I' for Inactive)
REMARK    1  A    between atoms: N_1  and  C_9
REMARK    2  A    between atoms: N_1  and  C_16
REMARK    3  A    between atoms: C_15  and  S_21
REMARK    4  A    between atoms: S_21  and  N_24
REMARK                            x       y       z     vdW  Elec       q    Type
REMARK                         _______ _______ _______ _____ _____    ______ ____
ROOT
ATOM      1  N   UNL     1      36.179 -18.772 -21.622  0.00  0.00    -0.311 N 
ATOM      2  H   UNL     1      37.094 -18.519 -21.362  0.00  0.00    +0.152 HD
ENDROOT
BRANCH   1   9
ATOM      3  O   UNL     1      34.983 -16.519 -20.241  0.00  0.00    -0.270 OA
ATOM      4  N   UNL     1      33.952 -15.071 -21.797  0.00  0.00    -0.280 N 
ATOM      5  C   UNL     1      34.406 -16.189 -23.754  0.00  0.00    +0.019 C 
ATOM      6  C   UNL     1      34.975 -16.938 -22.639  0.00  0.00    +0.069 C 
ATOM      7  C   UNL     1      33.798 -15.066 -23.187  0.00  0.00    +0.051 C 
ATOM      8  C   UNL     1      34.668 -16.195 -21.371  0.00  0.00    +0.251 C 
ATOM      9  C   UNL     1      35.655 -18.086 -22.669  0.00  0.00    +0.066 C 
ATOM     10  C   UNL     1      34.378 -16.392 -25.121  0.00  0.00    +0.001 C 
ATOM     11  C   UNL     1      33.146 -14.114 -23.948  0.00  0.00    +0.015 C 
ATOM     12  C   UNL     1      33.724 -15.440 -25.911  0.00  0.00    +0.000 C 
ATOM     13  C   UNL     1      33.114 -14.312 -25.329  0.00  0.00    +0.001 C 
ATOM     14  H   UNL     1      33.601 -14.375 -21.196  0.00  0.00    +0.155 HD
ENDBRANCH   1   9
BRANCH   1  16
ATOM     15  C   UNL     1      34.410 -21.822 -19.339  0.00  0.00    +0.122 C 
ATOM     16  C   UNL     1      35.588 -19.792 -20.859  0.00  0.00    +0.048 C 
ATOM     17  C   UNL     1      33.609 -20.934 -20.057  0.00  0.00    +0.021 C 
ATOM     18  C   UNL     1      35.799 -21.697 -19.380  0.00  0.00    +0.021 C 
ATOM     19  C   UNL     1      34.197 -19.921 -20.816  0.00  0.00    +0.016 C 
ATOM     20  C   UNL     1      36.387 -20.684 -20.137  0.00  0.00    +0.016 C 
BRANCH  15  21
ATOM     21  S   UNL     1      33.676 -23.089 -18.389  0.00  0.00    +0.060 S 
ATOM     22  O   UNL     1      32.385 -22.621 -17.901  0.00  0.00    -0.153 OA
ATOM     23  O   UNL     1      33.742 -24.320 -19.166  0.00  0.00    -0.153 OA
BRANCH  21  24
ATOM     24  N   UNL     1      34.746 -23.223 -17.063  0.00  0.00    -0.178 NA
ATOM     25  C   UNL     1      34.248 -23.704 -15.766  0.00  0.00    +0.110 C 
ATOM     26  H   UNL     1      35.134 -22.293 -16.902  0.00  0.00    +0.149 HD
ENDBRANCH  21  24
ENDBRANCH  15  21
ENDBRANCH   1  16
TORSDOF 4
ENDMDL
MODEL 2
REMARK VINA RESULT:     -10.6      3.836      6.601
REMARK  Name = 5288708
REMARK  4 active torsions:
REMARK  status: ('A' for Active; 'I' for Inactive)
REMARK    1  A    between atoms: N_1  and  C_9
REMARK    2  A    between atoms: N_1  and  C_16
REMARK    3  A    between atoms: C_15  and  S_21
REMARK    4  A    between atoms: S_21  and  N_24
REMARK                            x       y       z     vdW  Elec       q    Type
REMARK                         _______ _______ _______ _____ _____    ______ ____
ROOT
ATOM      1  N   UNL     1      35.120 -23.262 -17.155  0.00  0.00    -0.311 N 
ATOM      2  H   UNL     1      34.414 -23.854 -17.501  0.00  0.00    +0.152 HD
ENDROOT
BRANCH   1   9
ATOM      3  O   UNL     1      32.739 -22.503 -18.626  0.00  0.00    -0.270 OA
ATOM      4  N   UNL     1      33.293 -20.944 -20.313  0.00  0.00    -0.280 N 
ATOM      5  C   UNL     1      35.560 -20.765 -19.972  0.00  0.00    +0.019 C 
ATOM      6  C   UNL     1      35.009 -21.707 -19.003  0.00  0.00    +0.069 C 
ATOM      7  C   UNL     1      34.476 -20.333 -20.741  0.00  0.00    +0.051 C 
ATOM      8  C   UNL     1      33.530 -21.812 -19.241  0.00  0.00    +0.251 C 
ATOM      9  C   UNL     1      35.647 -22.389 -18.051  0.00  0.00    +0.066 C 
ATOM     10  C   UNL     1      36.834 -20.290 -20.219  0.00  0.00    +0.001 C 
ATOM     11  C   UNL     1      34.616 -19.423 -21.772  0.00  0.00    +0.015 C 
ATOM     12  C   UNL     1      36.999 -19.368 -21.257  0.00  0.00    +0.000 C 
ATOM     13  C   UNL     1      35.900 -18.939 -22.027  0.00  0.00    +0.001 C 
ATOM     14  H   UNL     1      32.408 -20.785 -20.714  0.00  0.00    +0.155 HD
ENDBRANCH   1   9
BRANCH   1  16
ATOM     15  C   UNL     1      36.109 -23.777 -13.105  0.00  0.00    +0.122 C 
ATOM     16  C   UNL     1      35.451 -23.435 -15.801  0.00  0.00    +0.048 C 
ATOM     17  C   UNL     1      34.841 -24.131 -13.565  0.00  0.00    +0.021 C 
ATOM     18  C   UNL     1      37.051 -23.253 -13.993  0.00  0.00    +0.021 C 
ATOM     19  C   UNL     1      34.512 -23.961 -14.910  0.00  0.00    +0.016 C 
ATOM     20  C   UNL     1      36.722 -23.081 -15.337  0.00  0.00    +0.016 C 
BRANCH  15  21
ATOM     21  S   UNL     1      36.521 -23.990 -11.423  0.00  0.00    +0.060 S 
ATOM     22  O   UNL     1      37.189 -22.785 -10.947  0.00  0.00    -0.153 OA
ATOM     23  O   UNL     1      35.330 -24.467 -10.731  0.00  0.00    -0.153 OA
BRANCH  21  24
ATOM     24  N   UNL     1      37.663 -25.261 -11.481  0.00  0.00    -0.178 NA
ATOM     25  C   UNL     1      37.332 -26.510 -12.181  0.00  0.00    +0.110 C 
ATOM     26  H   UNL     1      37.874 -25.513 -10.515  0.00  0.00    +0.149 HD
ENDBRANCH  21  24
ENDBRANCH  15  21
ENDBRANCH   1  16
TORSDOF 4
ENDMDL
MODEL 3
REMARK VINA RESULT:     -10.5      1.454      2.119
REMARK  Name = 5288708
REMARK  4 active torsions:
REMARK  status: ('A' for Active; 'I' for Inactive)
REMARK    1  A    between atoms: N_1  and  C_9
REMARK    2  A    between atoms: N_1  and  C_16
REMARK    3  A    between atoms: C_15  and  S_21
REMARK    4  A    between atoms: S_21  and  N_24
REMARK                            x       y       z     vdW  Elec       q    Type
REMARK                         _______ _______ _______ _____ _____    ______ ____
ROOT
ATOM      1  N   UNL     1      36.104 -19.041 -21.504  0.00  0.00    -0.311 N 
ATOM      2  H   UNL     1      36.941 -19.303 -21.951  0.00  0.00    +0.152 HD
ENDROOT
BRANCH   1   9
ATOM      3  O   UNL     1      34.989 -19.333 -24.165  0.00  0.00    -0.270 OA
ATOM      4  N   UNL     1      34.137 -17.262 -24.917  0.00  0.00    -0.280 N 
ATOM      5  C   UNL     1      34.621 -15.940 -23.099  0.00  0.00    +0.019 C 
ATOM      6  C   UNL     1      35.078 -17.299 -22.830  0.00  0.00    +0.069 C 
ATOM      7  C   UNL     1      34.057 -15.973 -24.377  0.00  0.00    +0.051 C 
ATOM      8  C   UNL     1      34.755 -18.146 -24.027  0.00  0.00    +0.251 C 
ATOM      9  C   UNL     1      35.684 -17.772 -21.740  0.00  0.00    +0.066 C 
ATOM     10  C   UNL     1      34.654 -14.764 -22.373  0.00  0.00    +0.001 C 
ATOM     11  C   UNL     1      33.512 -14.853 -24.976  0.00  0.00    +0.015 C 
ATOM     12  C   UNL     1      34.107 -13.617 -22.959  0.00  0.00    +0.000 C 
ATOM     13  C   UNL     1      33.542 -13.662 -24.248  0.00  0.00    +0.001 C 
ATOM     14  H   UNL     1      33.801 -17.513 -25.808  0.00  0.00    +0.155 HD
ENDBRANCH   1   9
BRANCH   1  16
ATOM     15  C   UNL     1      34.308 -21.994 -19.117  0.00  0.00    +0.122 C 
ATOM     16  C   UNL     1      35.504 -20.028 -20.706  0.00  0.00    +0.048 C 
ATOM     17  C   UNL     1      35.698 -21.884 -19.164  0.00  0.00    +0.021 C 
ATOM     18  C   UNL     1      33.514 -21.121 -19.862  0.00  0.00    +0.021 C 
ATOM     19  C   UNL     1      36.294 -20.903 -19.956  0.00  0.00    +0.016 C 
ATOM     20  C   UNL     1      34.111 -20.141 -20.656  0.00  0.00    +0.016 C 
BRANCH  15  21
ATOM     21  S   UNL     1      33.561 -23.221 -18.125  0.00  0.00    +0.060 S 
ATOM     22  O   UNL     1      32.265 -22.732 -17.671  0.00  0.00    -0.153 OA
ATOM     23  O   UNL     1      33.634 -24.483 -18.850  0.00  0.00    -0.153 OA
BRANCH  21  24
ATOM     24  N   UNL     1      34.616 -23.302 -16.782  0.00  0.00    -0.178 NA
ATOM     25  C   UNL     1      34.068 -23.499 -15.433  0.00  0.00    +0.110 C 
ATOM     26  H   UNL     1      35.137 -22.426 -16.763  0.00  0.00    +0.149 HD
ENDBRANCH  21  24
ENDBRANCH  15  21
ENDBRANCH   1  16
TORSDOF 4
ENDMDL
MODEL 4
REMARK VINA RESULT:     -10.5      2.829      9.179
REMARK  Name = 5288708
REMARK  4 active torsions:
REMARK  status: ('A' for Active; 'I' for Inactive)
REMARK    1  A    between atoms: N_1  and  C_9
REMARK    2  A    between atoms: N_1  and  C_16
REMARK    3  A    between atoms: C_15  and  S_21
REMARK    4  A    between atoms: S_21  and  N_24
REMARK                            x       y       z     vdW  Elec       q    Type
REMARK                         _______ _______ _______ _____ _____    ______ ____
ROOT
ATOM      1  N   UNL     1      34.431 -23.338 -18.247  0.00  0.00    -0.311 N 
ATOM      2  H   UNL     1      35.109 -24.050 -18.207  0.00  0.00    +0.152 HD
ENDROOT
BRANCH   1   9
ATOM      3  O   UNL     1      35.544 -23.156 -15.576  0.00  0.00    -0.270 OA
ATOM      4  N   UNL     1      33.843 -23.470 -13.967  0.00  0.00    -0.280 N 
ATOM      5  C   UNL     1      32.032 -23.788 -15.348  0.00  0.00    +0.019 C 
ATOM      6  C   UNL     1      33.219 -23.569 -16.167  0.00  0.00    +0.069 C 
ATOM      7  C   UNL     1      32.467 -23.717 -14.021  0.00  0.00    +0.051 C 
ATOM      8  C   UNL     1      34.390 -23.365 -15.250  0.00  0.00    +0.251 C 
ATOM      9  C   UNL     1      33.318 -23.544 -17.498  0.00  0.00    +0.066 C 
ATOM     10  C   UNL     1      30.702 -24.026 -15.643  0.00  0.00    +0.001 C 
ATOM     11  C   UNL     1      31.608 -23.879 -12.951  0.00  0.00    +0.015 C 
ATOM     12  C   UNL     1      29.814 -24.191 -14.574  0.00  0.00    +0.000 C 
ATOM     13  C   UNL     1      30.263 -24.119 -13.241  0.00  0.00    +0.001 C 
ATOM     14  H   UNL     1      34.359 -23.383 -13.133  0.00  0.00    +0.155 HD
ENDBRANCH   1   9
BRANCH   1  16
ATOM     15  C   UNL     1      35.358 -20.070 -20.717  0.00  0.00    +0.122 C 
ATOM     16  C   UNL     1      34.740 -22.246 -19.073  0.00  0.00    +0.048 C 
ATOM     17  C   UNL     1      36.382 -20.816 -20.133  0.00  0.00    +0.021 C 
ATOM     18  C   UNL     1      34.025 -20.411 -20.481  0.00  0.00    +0.021 C 
ATOM     19  C   UNL     1      36.074 -21.902 -19.313  0.00  0.00    +0.016 C 
ATOM     20  C   UNL     1      33.717 -21.496 -19.661  0.00  0.00    +0.016 C 
BRANCH  15  21
ATOM     21  S   UNL     1      35.743 -18.711 -21.743  0.00  0.00    +0.060 S 
ATOM     22  O   UNL     1      37.187 -18.659 -21.931  0.00  0.00    -0.153 OA
ATOM     23  O   UNL     1      34.872 -18.775 -22.909  0.00  0.00    -0.153 OA
BRANCH  21  24
ATOM     24  N   UNL     1      35.269 -17.378 -20.782  0.00  0.00    -0.178 NA
ATOM     25  C   UNL     1      34.601 -16.227 -21.405  0.00  0.00    +0.110 C 
ATOM     26  H   UNL     1      36.114 -17.022 -20.335  0.00  0.00    +0.149 HD
ENDBRANCH  21  24
ENDBRANCH  15  21
ENDBRANCH   1  16
TORSDOF 4
ENDMDL
MODEL 5
REMARK VINA RESULT:      -9.7      3.697      5.814
REMARK  Name = 5288708
REMARK  4 active torsions:
REMARK  status: ('A' for Active; 'I' for Inactive)
REMARK    1  A    between atoms: N_1  and  C_9
REMARK    2  A    between atoms: N_1  and  C_16
REMARK    3  A    between atoms: C_15  and  S_21
REMARK    4  A    between atoms: S_21  and  N_24
REMARK                            x       y       z     vdW  Elec       q    Type
REMARK                         _______ _______ _______ _____ _____    ______ ____
ROOT
ATOM      1  N   UNL     1      34.682 -23.247 -18.163  0.00  0.00    -0.311 N 
ATOM      2  H   UNL     1      35.448 -23.863 -18.178  0.00  0.00    +0.152 HD
ENDROOT
BRANCH   1   9
ATOM      3  O   UNL     1      37.184 -21.821 -17.826  0.00  0.00    -0.270 OA
ATOM      4  N   UNL     1      37.409 -20.172 -19.504  0.00  0.00    -0.280 N 
ATOM      5  C   UNL     1      35.446 -20.497 -20.657  0.00  0.00    +0.019 C 
ATOM      6  C   UNL     1      35.505 -21.444 -19.549  0.00  0.00    +0.069 C 
ATOM      7  C   UNL     1      36.625 -19.750 -20.583  0.00  0.00    +0.051 C 
ATOM      8  C   UNL     1      36.792 -21.217 -18.807  0.00  0.00    +0.251 C 
ATOM      9  C   UNL     1      34.612 -22.371 -19.198  0.00  0.00    +0.066 C 
ATOM     10  C   UNL     1      34.516 -20.251 -21.650  0.00  0.00    +0.001 C 
ATOM     11  C   UNL     1      36.921 -18.744 -21.482  0.00  0.00    +0.015 C 
ATOM     12  C   UNL     1      34.796 -19.237 -22.572  0.00  0.00    +0.000 C 
ATOM     13  C   UNL     1      35.987 -18.490 -22.488  0.00  0.00    +0.001 C 
ATOM     14  H   UNL     1      38.281 -19.784 -19.265  0.00  0.00    +0.155 HD
ENDBRANCH   1   9
BRANCH   1  16
ATOM     15  C   UNL     1      32.062 -23.670 -14.907  0.00  0.00    +0.122 C 
ATOM     16  C   UNL     1      33.806 -23.388 -17.075  0.00  0.00    +0.048 C 
ATOM     17  C   UNL     1      33.420 -23.951 -14.752  0.00  0.00    +0.021 C 
ATOM     18  C   UNL     1      31.575 -23.246 -16.145  0.00  0.00    +0.021 C 
ATOM     19  C   UNL     1      34.290 -23.810 -15.834  0.00  0.00    +0.016 C 
ATOM     20  C   UNL     1      32.445 -23.107 -17.226  0.00  0.00    +0.016 C 
BRANCH  15  21
ATOM     21  S   UNL     1      30.973 -23.846 -13.555  0.00  0.00    +0.060 S 
ATOM     22  O   UNL     1      31.694 -23.534 -12.328  0.00  0.00    -0.153 OA
ATOM     23  O   UNL     1      29.751 -23.117 -13.871  0.00  0.00    -0.153 OA
BRANCH  21  24
ATOM     24  N   UNL     1      30.629 -25.521 -13.575  0.00  0.00    -0.178 NA
ATOM     25  C   UNL     1      29.686 -26.062 -14.565  0.00  0.00    +0.110 C 
ATOM     26  H   UNL     1      30.257 -25.757 -12.655  0.00  0.00    +0.149 HD
ENDBRANCH  21  24
ENDBRANCH  15  21
ENDBRANCH   1  16
TORSDOF 4
ENDMDL
MODEL 6
REMARK VINA RESULT:      -9.7      2.827      9.805
REMARK  Name = 5288708
REMARK  4 active torsions:
REMARK  status: ('A' for Active; 'I' for Inactive)
REMARK    1  A    between atoms: N_1  and  C_9
REMARK    2  A    between atoms: N_1  and  C_16
REMARK    3  A    between atoms: C_15  and  S_21
REMARK    4  A    between atoms: S_21  and  N_24
REMARK                            x       y       z     vdW  Elec       q    Type
REMARK                         _______ _______ _______ _____ _____    ______ ____
ROOT
ATOM      1  N   UNL     1      34.592 -23.117 -17.548  0.00  0.00    -0.311 N 
ATOM      2  H   UNL     1      33.787 -23.677 -17.634  0.00  0.00    +0.152 HD
ENDROOT
BRANCH   1   9
ATOM      3  O   UNL     1      32.532 -23.527 -15.548  0.00  0.00    -0.270 OA
ATOM      4  N   UNL     1      33.519 -23.970 -13.448  0.00  0.00    -0.280 N 
ATOM      5  C   UNL     1      35.745 -23.858 -14.014  0.00  0.00    +0.019 C 
ATOM      6  C   UNL     1      34.941 -23.607 -15.205  0.00  0.00    +0.069 C 
ATOM      7  C   UNL     1      34.832 -24.072 -12.977  0.00  0.00    +0.051 C 
ATOM      8  C   UNL     1      33.492 -23.683 -14.817  0.00  0.00    +0.251 C 
ATOM      9  C   UNL     1      35.353 -23.348 -16.447  0.00  0.00    +0.066 C 
ATOM     10  C   UNL     1      37.106 -23.910 -13.778  0.00  0.00    +0.001 C 
ATOM     11  C   UNL     1      35.233 -24.342 -11.683  0.00  0.00    +0.015 C 
ATOM     12  C   UNL     1      37.534 -24.184 -12.475  0.00  0.00    +0.000 C 
ATOM     13  C   UNL     1      36.606 -24.397 -11.437  0.00  0.00    +0.001 C 
ATOM     14  H   UNL     1      32.717 -24.084 -12.888  0.00  0.00    +0.155 HD
ENDBRANCH   1   9
BRANCH   1  16
ATOM     15  C   UNL     1      35.217 -20.329 -20.626  0.00  0.00    +0.122 C 
ATOM     16  C   UNL     1      34.801 -22.186 -18.577  0.00  0.00    +0.048 C 
ATOM     17  C   UNL     1      36.306 -20.882 -19.954  0.00  0.00    +0.021 C 
ATOM     18  C   UNL     1      33.918 -20.704 -20.277  0.00  0.00    +0.021 C 
ATOM     19  C   UNL     1      36.099 -21.809 -18.932  0.00  0.00    +0.016 C 
ATOM     20  C   UNL     1      33.711 -21.629 -19.254  0.00  0.00    +0.016 C 
BRANCH  15  21
ATOM     21  S   UNL     1      35.475 -19.170 -21.905  0.00  0.00    +0.060 S 
ATOM     22  O   UNL     1      36.909 -19.030 -22.129  0.00  0.00    -0.153 OA
ATOM     23  O   UNL     1      34.611 -19.538 -23.020  0.00  0.00    -0.153 OA
BRANCH  21  24
ATOM     24  N   UNL     1      34.886 -17.721 -21.214  0.00  0.00    -0.178 NA
ATOM     25  C   UNL     1      34.893 -16.480 -22.001  0.00  0.00    +0.110 C 
ATOM     26  H   UNL     1      35.444 -17.544 -20.380  0.00  0.00    +0.149 HD
ENDBRANCH  21  24
ENDBRANCH  15  21
ENDBRANCH   1  16
TORSDOF 4
ENDMDL
MODEL 7
REMARK VINA RESULT:      -9.6      5.565      9.969
REMARK  Name = 5288708
REMARK  4 active torsions:
REMARK  status: ('A' for Active; 'I' for Inactive)
REMARK    1  A    between atoms: N_1  and  C_9
REMARK    2  A    between atoms: N_1  and  C_16
REMARK    3  A    between atoms: C_15  and  S_21
REMARK    4  A    between atoms: S_21  and  N_24
REMARK                            x       y       z     vdW  Elec       q    Type
REMARK                         _______ _______ _______ _____ _____    ______ ____
ROOT
ATOM      1  N   UNL     1      34.218 -13.654 -23.818  0.00  0.00    -0.311 N 
ATOM      2  H   UNL     1      34.411 -13.731 -24.780  0.00  0.00    +0.152 HD
ENDROOT
BRANCH   1   9
ATOM      3  O   UNL     1      34.063 -15.718 -25.849  0.00  0.00    -0.270 OA
ATOM      4  N   UNL     1      34.493 -17.833 -24.889  0.00  0.00    -0.280 N 
ATOM      5  C   UNL     1      34.844 -17.221 -22.700  0.00  0.00    +0.019 C 
ATOM      6  C   UNL     1      34.555 -16.025 -23.485  0.00  0.00    +0.069 C 
ATOM      7  C   UNL     1      34.794 -18.289 -23.601  0.00  0.00    +0.051 C 
ATOM      8  C   UNL     1      34.328 -16.444 -24.909  0.00  0.00    +0.251 C 
ATOM      9  C   UNL     1      34.487 -14.758 -23.075  0.00  0.00    +0.066 C 
ATOM     10  C   UNL     1      35.125 -17.437 -21.364  0.00  0.00    +0.001 C 
ATOM     11  C   UNL     1      35.018 -19.595 -23.212  0.00  0.00    +0.015 C 
ATOM     12  C   UNL     1      35.357 -18.753 -20.949  0.00  0.00    +0.000 C 
ATOM     13  C   UNL     1      35.303 -19.822 -21.864  0.00  0.00    +0.001 C 
ATOM     14  H   UNL     1      34.408 -18.415 -25.678  0.00  0.00    +0.155 HD
ENDBRANCH   1   9
BRANCH   1  16
ATOM     15  C   UNL     1      32.665  -9.961 -22.556  0.00  0.00    +0.122 C 
ATOM     16  C   UNL     1      33.698 -12.420 -23.397  0.00  0.00    +0.048 C 
ATOM     17  C   UNL     1      33.674 -10.002 -23.519  0.00  0.00    +0.021 C 
ATOM     18  C   UNL     1      32.171 -11.148 -22.014  0.00  0.00    +0.021 C 
ATOM     19  C   UNL     1      34.189 -11.228 -23.938  0.00  0.00    +0.016 C 
ATOM     20  C   UNL     1      32.687 -12.374 -22.432  0.00  0.00    +0.016 C 
BRANCH  15  21
ATOM     21  S   UNL     1      32.020  -8.427 -22.031  0.00  0.00    +0.060 S 
ATOM     22  O   UNL     1      30.894  -8.073 -22.887  0.00  0.00    -0.153 OA
ATOM     23  O   UNL     1      31.826  -8.497 -20.588  0.00  0.00    -0.153 OA
BRANCH  21  24
ATOM     24  N   UNL     1      33.310  -7.353 -22.356  0.00  0.00    -0.178 NA
ATOM     25  C   UNL     1      33.147  -6.296 -23.363  0.00  0.00    +0.110 C 
ATOM     26  H   UNL     1      34.101  -7.924 -22.654  0.00  0.00    +0.149 HD
ENDBRANCH  21  24
ENDBRANCH  15  21
ENDBRANCH   1  16
TORSDOF 4
ENDMDL
MODEL 8
REMARK VINA RESULT:      -9.5      3.444      8.260
REMARK  Name = 5288708
REMARK  4 active torsions:
REMARK  status: ('A' for Active; 'I' for Inactive)
REMARK    1  A    between atoms: N_1  and  C_9
REMARK    2  A    between atoms: N_1  and  C_16
REMARK    3  A    between atoms: C_15  and  S_21
REMARK    4  A    between atoms: S_21  and  N_24
REMARK                            x       y       z     vdW  Elec       q    Type
REMARK                         _______ _______ _______ _____ _____    ______ ____
ROOT
ATOM      1  N   UNL     1      35.432 -19.070 -22.610  0.00  0.00    -0.311 N 
ATOM      2  H   UNL     1      36.205 -19.400 -23.122  0.00  0.00    +0.152 HD
ENDROOT
BRANCH   1   9
ATOM      3  O   UNL     1      37.675 -19.347 -20.792  0.00  0.00    -0.270 OA
ATOM      4  N   UNL     1      37.115 -20.825 -19.036  0.00  0.00    -0.280 N 
ATOM      5  C   UNL     1      34.962 -21.367 -19.632  0.00  0.00    +0.019 C 
ATOM      6  C   UNL     1      35.504 -20.436 -20.616  0.00  0.00    +0.069 C 
ATOM      7  C   UNL     1      35.980 -21.568 -18.696  0.00  0.00    +0.051 C 
ATOM      8  C   UNL     1      36.910 -20.094 -20.211  0.00  0.00    +0.251 C 
ATOM      9  C   UNL     1      34.914 -19.938 -21.703  0.00  0.00    +0.066 C 
ATOM     10  C   UNL     1      33.743 -22.005 -19.497  0.00  0.00    +0.001 C 
ATOM     11  C   UNL     1      35.828 -22.402 -17.605  0.00  0.00    +0.015 C 
ATOM     12  C   UNL     1      33.567 -22.853 -18.399  0.00  0.00    +0.000 C 
ATOM     13  C   UNL     1      34.600 -23.050 -17.462  0.00  0.00    +0.001 C 
ATOM     14  H   UNL     1      37.951 -20.817 -18.516  0.00  0.00    +0.155 HD
ENDBRANCH   1   9
BRANCH   1  16
ATOM     15  C   UNL     1      34.167 -15.171 -23.523  0.00  0.00    +0.122 C 
ATOM     16  C   UNL     1      35.009 -17.767 -22.915  0.00  0.00    +0.048 C 
ATOM     17  C   UNL     1      34.473 -15.515 -22.206  0.00  0.00    +0.021 C 
ATOM     18  C   UNL     1      34.283 -16.122 -24.537  0.00  0.00    +0.021 C 
ATOM     19  C   UNL     1      34.893 -16.810 -21.903  0.00  0.00    +0.016 C 
ATOM     20  C   UNL     1      34.702 -17.418 -24.234  0.00  0.00    +0.016 C 
BRANCH  15  21
ATOM     21  S   UNL     1      33.640 -13.551 -23.903  0.00  0.00    +0.060 S 
ATOM     22  O   UNL     1      34.581 -12.602 -23.320  0.00  0.00    -0.153 OA
ATOM     23  O   UNL     1      33.367 -13.497 -25.333  0.00  0.00    -0.153 OA
BRANCH  21  24
ATOM     24  N   UNL     1      32.157 -13.438 -23.060  0.00  0.00    -0.178 NA
ATOM     25  C   UNL     1      32.117 -12.812 -21.730  0.00  0.00    +0.110 C 
ATOM     26  H   UNL     1      31.808 -14.389 -22.948  0.00  0.00    +0.149 HD
ENDBRANCH  21  24
ENDBRANCH  15  21
ENDBRANCH   1  16
TORSDOF 4
ENDMDL
MODEL 9
REMARK VINA RESULT:      -9.5      2.944      9.751
REMARK  Name = 5288708
REMARK  4 active torsions:
REMARK  status: ('A' for Active; 'I' for Inactive)
REMARK    1  A    between atoms: N_1  and  C_9
REMARK    2  A    between atoms: N_1  and  C_16
REMARK    3  A    between atoms: C_15  and  S_21
REMARK    4  A    between atoms: S_21  and  N_24
REMARK                            x       y       z     vdW  Elec       q    Type
REMARK                         _______ _______ _______ _____ _____    ______ ____
ROOT
ATOM      1  N   UNL     1      34.290 -23.096 -17.745  0.00  0.00    -0.311 N 
ATOM      2  H   UNL     1      33.415 -23.537 -17.831  0.00  0.00    +0.152 HD
ENDROOT
BRANCH   1   9
ATOM      3  O   UNL     1      32.293 -23.276 -15.651  0.00  0.00    -0.270 OA
ATOM      4  N   UNL     1      33.296 -23.988 -13.634  0.00  0.00    -0.280 N 
ATOM      5  C   UNL     1      35.479 -24.207 -14.323  0.00  0.00    +0.019 C 
ATOM      6  C   UNL     1      34.669 -23.765 -15.453  0.00  0.00    +0.069 C 
ATOM      7  C   UNL     1      34.596 -24.328 -13.246  0.00  0.00    +0.051 C 
ATOM      8  C   UNL     1      33.249 -23.626 -14.985  0.00  0.00    +0.251 C 
ATOM      9  C   UNL     1      35.056 -23.508 -16.703  0.00  0.00    +0.066 C 
ATOM     10  C   UNL     1      36.822 -24.493 -14.169  0.00  0.00    +0.001 C 
ATOM     11  C   UNL     1      35.010 -24.731 -11.991  0.00  0.00    +0.015 C 
ATOM     12  C   UNL     1      37.264 -24.904 -12.906  0.00  0.00    +0.000 C 
ATOM     13  C   UNL     1      36.366 -25.021 -11.828  0.00  0.00    +0.001 C 
ATOM     14  H   UNL     1      32.515 -24.001 -13.035  0.00  0.00    +0.155 HD
ENDBRANCH   1   9
BRANCH   1  16
ATOM     15  C   UNL     1      35.160 -20.189 -20.650  0.00  0.00    +0.122 C 
ATOM     16  C   UNL     1      34.581 -22.124 -18.716  0.00  0.00    +0.048 C 
ATOM     17  C   UNL     1      33.835 -20.522 -20.371  0.00  0.00    +0.021 C 
ATOM     18  C   UNL     1      36.198 -20.821 -19.962  0.00  0.00    +0.021 C 
ATOM     19  C   UNL     1      33.546 -21.488 -19.406  0.00  0.00    +0.016 C 
ATOM     20  C   UNL     1      35.909 -21.787 -18.998  0.00  0.00    +0.016 C 
BRANCH  15  21
ATOM     21  S   UNL     1      35.523 -18.982 -21.857  0.00  0.00    +0.060 S 
ATOM     22  O   UNL     1      34.911 -17.721 -21.458  0.00  0.00    -0.153 OA
ATOM     23  O   UNL     1      36.956 -19.029 -22.116  0.00  0.00    -0.153 OA
BRANCH  21  24
ATOM     24  N   UNL     1      34.700 -19.577 -23.232  0.00  0.00    -0.178 NA
ATOM     25  C   UNL     1      34.433 -18.684 -24.368  0.00  0.00    +0.110 C 
ATOM     26  H   UNL     1      33.796 -19.921 -22.909  0.00  0.00    +0.149 HD
ENDBRANCH  21  24
ENDBRANCH  15  21
ENDBRANCH   1  16
TORSDOF 4
ENDMDL
