MODEL 1
REMARK VINA RESULT:     -11.4      0.000      0.000
REMARK  Name = 124173720
REMARK  4 active torsions:
REMARK  status: ('A' for Active; 'I' for Inactive)
REMARK    1  A    between atoms: C_13  and  N_24
REMARK    2  A    between atoms: C_18  and  C_23
REMARK    3  A    between atoms: N_24  and  C_26
REMARK    4  A    between atoms: C_26  and  C_30
REMARK                            x       y       z     vdW  Elec       q    Type
REMARK                         _______ _______ _______ _____ _____    ______ ____
ROOT
ATOM      1  O   UNL     1      32.276 -22.934 -17.941  0.00  0.00    -0.473 OA
ATOM      2  N   UNL     1      34.108 -24.020 -15.782  0.00  0.00    -0.272 N 
ATOM      3  N   UNL     1      36.238 -23.579 -16.150  0.00  0.00    -0.374 NA
ATOM      4  C   UNL     1      36.124 -24.391 -15.057  0.00  0.00    +0.190 C 
ATOM      5  C   UNL     1      35.006 -23.356 -16.595  0.00  0.00    +0.188 C 
ATOM      6  C   UNL     1      32.664 -24.061 -15.869  0.00  0.00    +0.141 C 
ATOM      7  C   UNL     1      34.811 -24.684 -14.809  0.00  0.00    +0.169 C 
ATOM      8  C   UNL     1      34.707 -22.523 -17.778  0.00  0.00    +0.078 C 
ATOM      9  C   UNL     1      32.074 -22.839 -16.534  0.00  0.00    +0.227 C 
ATOM     10  C   UNL     1      33.444 -22.366 -18.373  0.00  0.00    +0.144 C 
ATOM     11  C   UNL     1      35.792 -21.856 -18.387  0.00  0.00    +0.008 C 
ATOM     12  C   UNL     1      33.295 -21.616 -19.553  0.00  0.00    +0.051 C 
ATOM     13  C   UNL     1      34.384 -20.975 -20.132  0.00  0.00    +0.048 C 
ATOM     14  C   UNL     1      35.635 -21.090 -19.545  0.00  0.00    +0.015 C 
ATOM     15  O   UNL     1      39.355 -25.275 -13.785  0.00  0.00    -0.432 OA
ATOM     16  O   UNL     1      38.974 -23.720 -15.421  0.00  0.00    -0.226 OA
ATOM     17  N   UNL     1      37.207 -24.835 -14.336  0.00  0.00    -0.194 N 
ATOM     18  C   UNL     1      37.148 -25.696 -13.176  0.00  0.00    +0.195 C 
ATOM     19  C   UNL     1      38.547 -26.277 -13.157  0.00  0.00    +0.236 C 
ATOM     20  C   UNL     1      38.542 -24.525 -14.606  0.00  0.00    +0.411 C 
ENDROOT
BRANCH  18  23
ATOM     21  F   UNL     1      35.784 -25.475 -11.287  0.00  0.00    -0.196 F 
ATOM     22  F   UNL     1      37.899 -25.008 -11.069  0.00  0.00    -0.196 F 
ATOM     23  C   UNL     1      36.842 -24.910 -11.902  0.00  0.00    +0.340 C 
ENDBRANCH  18  23
BRANCH  13  24
ATOM     24  N   UNL     1      34.218 -20.215 -21.307  0.00  0.00    -0.327 N 
ATOM     25  H   UNL     1      33.304 -20.045 -21.632  0.00  0.00    +0.147 HD
BRANCH  24  26
ATOM     26  C   UNL     1      35.317 -19.678 -22.049  0.00  0.00    +0.146 C 
ATOM     27  C   UNL     1      35.087 -19.907 -23.536  0.00  0.00    +0.031 C 
BRANCH  26  30
ATOM     28  O   UNL     1      35.341 -17.720 -20.617  0.00  0.00    -0.274 OA
ATOM     29  N   UNL     1      35.705 -17.437 -22.866  0.00  0.00    -0.327 N 
ATOM     30  C   UNL     1      35.448 -18.196 -21.745  0.00  0.00    +0.237 C 
ATOM     31  H   UNL     1      35.808 -16.461 -22.788  0.00  0.00    +0.145 HD
ATOM     32  H   UNL     1      35.784 -17.871 -23.747  0.00  0.00    +0.145 HD
ENDBRANCH  26  30
ENDBRANCH  24  26
ENDBRANCH  13  24
TORSDOF 4
ENDMDL
MODEL 2
REMARK VINA RESULT:     -11.3      3.841      6.045
REMARK  Name = 124173720
REMARK  4 active torsions:
REMARK  status: ('A' for Active; 'I' for Inactive)
REMARK    1  A    between atoms: C_13  and  N_24
REMARK    2  A    between atoms: C_18  and  C_23
REMARK    3  A    between atoms: N_24  and  C_26
REMARK    4  A    between atoms: C_26  and  C_30
REMARK                            x       y       z     vdW  Elec       q    Type
REMARK                         _______ _______ _______ _____ _____    ______ ____
ROOT
ATOM      1  O   UNL     1      32.503 -22.672 -17.343  0.00  0.00    -0.473 OA
ATOM      2  N   UNL     1      34.891 -23.602 -15.722  0.00  0.00    -0.272 N 
ATOM      3  N   UNL     1      34.362 -24.211 -13.669  0.00  0.00    -0.374 NA
ATOM      4  C   UNL     1      35.721 -24.238 -13.815  0.00  0.00    +0.190 C 
ATOM      5  C   UNL     1      33.857 -23.817 -14.833  0.00  0.00    +0.188 C 
ATOM      6  C   UNL     1      34.827 -23.179 -17.105  0.00  0.00    +0.141 C 
ATOM      7  C   UNL     1      36.076 -23.861 -15.081  0.00  0.00    +0.169 C 
ATOM      8  C   UNL     1      32.409 -23.653 -15.077  0.00  0.00    +0.078 C 
ATOM      9  C   UNL     1      33.530 -23.557 -17.782  0.00  0.00    +0.227 C 
ATOM     10  C   UNL     1      31.828 -23.111 -16.236  0.00  0.00    +0.144 C 
ATOM     11  C   UNL     1      31.533 -24.039 -14.039  0.00  0.00    +0.008 C 
ATOM     12  C   UNL     1      30.438 -22.921 -16.320  0.00  0.00    +0.051 C 
ATOM     13  C   UNL     1      29.601 -23.307 -15.279  0.00  0.00    +0.048 C 
ATOM     14  C   UNL     1      30.149 -23.873 -14.137  0.00  0.00    +0.015 C 
ATOM     15  O   UNL     1      37.317 -25.106 -10.728  0.00  0.00    -0.432 OA
ATOM     16  O   UNL     1      35.061 -25.191 -11.103  0.00  0.00    -0.226 OA
ATOM     17  N   UNL     1      36.577 -24.598 -12.803  0.00  0.00    -0.194 N 
ATOM     18  C   UNL     1      38.019 -24.643 -12.898  0.00  0.00    +0.195 C 
ATOM     19  C   UNL     1      38.424 -24.544 -11.441  0.00  0.00    +0.236 C 
ATOM     20  C   UNL     1      36.194 -24.981 -11.515  0.00  0.00    +0.411 C 
ENDROOT
BRANCH  18  23
ATOM     21  F   UNL     1      38.833 -25.702 -14.820  0.00  0.00    -0.196 F 
ATOM     22  F   UNL     1      39.622 -26.349 -12.897  0.00  0.00    -0.196 F 
ATOM     23  C   UNL     1      38.504 -25.944 -13.535  0.00  0.00    +0.340 C 
ENDBRANCH  18  23
BRANCH  13  24
ATOM     24  N   UNL     1      28.208 -23.124 -15.383  0.00  0.00    -0.327 N 
ATOM     25  H   UNL     1      27.652 -23.286 -14.587  0.00  0.00    +0.147 HD
BRANCH  24  26
ATOM     26  C   UNL     1      27.565 -22.713 -16.593  0.00  0.00    +0.146 C 
ATOM     27  C   UNL     1      27.461 -23.899 -17.541  0.00  0.00    +0.031 C 
BRANCH  26  30
ATOM     28  O   UNL     1      25.574 -22.434 -15.235  0.00  0.00    -0.274 OA
ATOM     29  N   UNL     1      25.698 -21.321 -17.239  0.00  0.00    -0.327 N 
ATOM     30  C   UNL     1      26.188 -22.162 -16.264  0.00  0.00    +0.237 C 
ATOM     31  H   UNL     1      24.812 -20.906 -17.132  0.00  0.00    +0.145 HD
ATOM     32  H   UNL     1      26.234 -21.135 -18.045  0.00  0.00    +0.145 HD
ENDBRANCH  26  30
ENDBRANCH  24  26
ENDBRANCH  13  24
TORSDOF 4
ENDMDL
MODEL 3
REMARK VINA RESULT:     -10.7      4.092      8.810
REMARK  Name = 124173720
REMARK  4 active torsions:
REMARK  status: ('A' for Active; 'I' for Inactive)
REMARK    1  A    between atoms: C_13  and  N_24
REMARK    2  A    between atoms: C_18  and  C_23
REMARK    3  A    between atoms: N_24  and  C_26
REMARK    4  A    between atoms: C_26  and  C_30
REMARK                            x       y       z     vdW  Elec       q    Type
REMARK                         _______ _______ _______ _____ _____    ______ ____
ROOT
ATOM      1  O   UNL     1      33.884 -23.468 -16.332  0.00  0.00    -0.473 OA
ATOM      2  N   UNL     1      34.031 -21.835 -18.883  0.00  0.00    -0.272 N 
ATOM      3  N   UNL     1      36.018 -20.940 -19.227  0.00  0.00    -0.374 NA
ATOM      4  C   UNL     1      35.146 -20.489 -20.177  0.00  0.00    +0.190 C 
ATOM      5  C   UNL     1      35.335 -21.759 -18.433  0.00  0.00    +0.188 C 
ATOM      6  C   UNL     1      32.930 -22.607 -18.348  0.00  0.00    +0.141 C 
ATOM      7  C   UNL     1      33.902 -21.028 -19.984  0.00  0.00    +0.169 C 
ATOM      8  C   UNL     1      35.930 -22.449 -17.270  0.00  0.00    +0.078 C 
ATOM      9  C   UNL     1      33.378 -23.847 -17.608  0.00  0.00    +0.227 C 
ATOM     10  C   UNL     1      35.228 -23.211 -16.322  0.00  0.00    +0.144 C 
ATOM     11  C   UNL     1      37.319 -22.296 -17.072  0.00  0.00    +0.008 C 
ATOM     12  C   UNL     1      35.889 -23.749 -15.202  0.00  0.00    +0.051 C 
ATOM     13  C   UNL     1      37.258 -23.577 -15.033  0.00  0.00    +0.048 C 
ATOM     14  C   UNL     1      37.977 -22.853 -15.973  0.00  0.00    +0.015 C 
ATOM     15  O   UNL     1      36.732 -18.112 -22.336  0.00  0.00    -0.432 OA
ATOM     16  O   UNL     1      37.813 -19.374 -20.762  0.00  0.00    -0.226 OA
ATOM     17  N   UNL     1      35.507 -19.612 -21.170  0.00  0.00    -0.194 N 
ATOM     18  C   UNL     1      34.629 -19.099 -22.199  0.00  0.00    +0.195 C 
ATOM     19  C   UNL     1      35.356 -17.837 -22.618  0.00  0.00    +0.236 C 
ATOM     20  C   UNL     1      36.783 -19.073 -21.351  0.00  0.00    +0.411 C 
ENDROOT
BRANCH  18  23
ATOM     21  F   UNL     1      33.977 -19.424 -24.423  0.00  0.00    -0.196 F 
ATOM     22  F   UNL     1      35.707 -20.531 -23.704  0.00  0.00    -0.196 F 
ATOM     23  C   UNL     1      34.483 -20.081 -23.360  0.00  0.00    +0.340 C 
ENDBRANCH  18  23
BRANCH  13  24
ATOM     24  N   UNL     1      37.910 -24.133 -13.914  0.00  0.00    -0.327 N 
ATOM     25  H   UNL     1      38.888 -24.234 -13.942  0.00  0.00    +0.147 HD
BRANCH  24  26
ATOM     26  C   UNL     1      37.213 -24.558 -12.739  0.00  0.00    +0.146 C 
ATOM     27  C   UNL     1      37.638 -25.975 -12.381  0.00  0.00    +0.031 C 
BRANCH  26  30
ATOM     28  O   UNL     1      38.308 -22.661 -11.697  0.00  0.00    -0.274 OA
ATOM     29  N   UNL     1      36.817 -23.885 -10.452  0.00  0.00    -0.327 N 
ATOM     30  C   UNL     1      37.519 -23.598 -11.602  0.00  0.00    +0.237 C 
ATOM     31  H   UNL     1      36.938 -23.328  -9.649  0.00  0.00    +0.145 HD
ATOM     32  H   UNL     1      36.195 -24.648 -10.431  0.00  0.00    +0.145 HD
ENDBRANCH  26  30
ENDBRANCH  24  26
ENDBRANCH  13  24
TORSDOF 4
ENDMDL
MODEL 4
REMARK VINA RESULT:      -9.0     11.111     14.607
REMARK  Name = 124173720
REMARK  4 active torsions:
REMARK  status: ('A' for Active; 'I' for Inactive)
REMARK    1  A    between atoms: C_13  and  N_24
REMARK    2  A    between atoms: C_18  and  C_23
REMARK    3  A    between atoms: N_24  and  C_26
REMARK    4  A    between atoms: C_26  and  C_30
REMARK                            x       y       z     vdW  Elec       q    Type
REMARK                         _______ _______ _______ _____ _____    ______ ____
ROOT
ATOM      1  O   UNL     1      31.411 -10.098 -19.884  0.00  0.00    -0.473 OA
ATOM      2  N   UNL     1      32.377 -12.480 -21.492  0.00  0.00    -0.272 N 
ATOM      3  N   UNL     1      33.015 -11.947 -23.535  0.00  0.00    -0.374 NA
ATOM      4  C   UNL     1      33.047 -13.305 -23.389  0.00  0.00    +0.190 C 
ATOM      5  C   UNL     1      32.601 -11.444 -22.377  0.00  0.00    +0.188 C 
ATOM      6  C   UNL     1      31.932 -12.419 -20.116  0.00  0.00    +0.141 C 
ATOM      7  C   UNL     1      32.651 -13.664 -22.129  0.00  0.00    +0.169 C 
ATOM      8  C   UNL     1      32.427  -9.997 -22.135  0.00  0.00    +0.078 C 
ATOM      9  C   UNL     1      32.293 -11.120 -19.432  0.00  0.00    +0.227 C 
ATOM     10  C   UNL     1      31.864  -9.420 -20.984  0.00  0.00    +0.144 C 
ATOM     11  C   UNL     1      32.825  -9.119 -23.166  0.00  0.00    +0.008 C 
ATOM     12  C   UNL     1      31.666  -8.030 -20.902  0.00  0.00    +0.051 C 
ATOM     13  C   UNL     1      32.064  -7.191 -21.936  0.00  0.00    +0.048 C 
ATOM     14  C   UNL     1      32.651  -7.736 -23.070  0.00  0.00    +0.015 C 
ATOM     15  O   UNL     1      33.971 -14.895 -26.464  0.00  0.00    -0.432 OA
ATOM     16  O   UNL     1      34.039 -12.639 -26.086  0.00  0.00    -0.226 OA
ATOM     17  N   UNL     1      33.426 -14.159 -24.397  0.00  0.00    -0.194 N 
ATOM     18  C   UNL     1      33.476 -15.601 -24.301  0.00  0.00    +0.195 C 
ATOM     19  C   UNL     1      33.402 -16.005 -25.760  0.00  0.00    +0.236 C 
ATOM     20  C   UNL     1      33.827 -13.773 -25.678  0.00  0.00    +0.411 C 
ENDROOT
BRANCH  18  23
ATOM     21  F   UNL     1      34.499 -16.459 -22.379  0.00  0.00    -0.196 F 
ATOM     22  F   UNL     1      35.216 -17.167 -24.308  0.00  0.00    -0.196 F 
ATOM     23  C   UNL     1      34.770 -16.080 -23.645  0.00  0.00    +0.340 C 
ENDBRANCH  18  23
BRANCH  13  24
ATOM     24  N   UNL     1      31.873  -5.798 -21.835  0.00  0.00    -0.327 N 
ATOM     25  H   UNL     1      32.608  -5.248 -21.480  0.00  0.00    +0.147 HD
BRANCH  24  26
ATOM     26  C   UNL     1      30.659  -5.149 -22.223  0.00  0.00    +0.146 C 
ATOM     27  C   UNL     1      29.697  -5.124 -21.045  0.00  0.00    +0.031 C 
BRANCH  26  30
ATOM     28  O   UNL     1      31.881  -3.470 -23.478  0.00  0.00    -0.274 OA
ATOM     29  N   UNL     1      30.137  -2.791 -22.147  0.00  0.00    -0.327 N 
ATOM     30  C   UNL     1      30.975  -3.739 -22.692  0.00  0.00    +0.237 C 
ATOM     31  H   UNL     1      30.251  -1.841 -22.380  0.00  0.00    +0.145 HD
ATOM     32  H   UNL     1      29.425  -3.062 -21.523  0.00  0.00    +0.145 HD
ENDBRANCH  26  30
ENDBRANCH  24  26
ENDBRANCH  13  24
TORSDOF 4
ENDMDL
MODEL 5
REMARK VINA RESULT:      -8.9      4.009      8.609
REMARK  Name = 124173720
REMARK  4 active torsions:
REMARK  status: ('A' for Active; 'I' for Inactive)
REMARK    1  A    between atoms: C_13  and  N_24
REMARK    2  A    between atoms: C_18  and  C_23
REMARK    3  A    between atoms: N_24  and  C_26
REMARK    4  A    between atoms: C_26  and  C_30
REMARK                            x       y       z     vdW  Elec       q    Type
REMARK                         _______ _______ _______ _____ _____    ______ ____
ROOT
ATOM      1  O   UNL     1      36.373 -24.087 -15.283  0.00  0.00    -0.473 OA
ATOM      2  N   UNL     1      36.396 -22.251 -17.696  0.00  0.00    -0.272 N 
ATOM      3  N   UNL     1      34.395 -21.937 -18.567  0.00  0.00    -0.374 NA
ATOM      4  C   UNL     1      35.333 -21.339 -19.360  0.00  0.00    +0.190 C 
ATOM      5  C   UNL     1      35.045 -22.498 -17.554  0.00  0.00    +0.188 C 
ATOM      6  C   UNL     1      37.489 -22.651 -16.835  0.00  0.00    +0.141 C 
ATOM      7  C   UNL     1      36.587 -21.522 -18.842  0.00  0.00    +0.169 C 
ATOM      8  C   UNL     1      34.376 -23.255 -16.476  0.00  0.00    +0.078 C 
ATOM      9  C   UNL     1      37.069 -22.849 -15.396  0.00  0.00    +0.227 C 
ATOM     10  C   UNL     1      35.020 -23.982 -15.461  0.00  0.00    +0.144 C 
ATOM     11  C   UNL     1      32.964 -23.281 -16.489  0.00  0.00    +0.008 C 
ATOM     12  C   UNL     1      34.277 -24.739 -14.538  0.00  0.00    +0.051 C 
ATOM     13  C   UNL     1      32.887 -24.750 -14.580  0.00  0.00    +0.048 C 
ATOM     14  C   UNL     1      32.228 -24.014 -15.554  0.00  0.00    +0.015 C 
ATOM     15  O   UNL     1      33.816 -19.903 -22.270  0.00  0.00    -0.432 OA
ATOM     16  O   UNL     1      32.669 -20.774 -20.491  0.00  0.00    -0.226 OA
ATOM     17  N   UNL     1      35.020 -20.660 -20.512  0.00  0.00    -0.194 N 
ATOM     18  C   UNL     1      35.969 -20.011 -21.390  0.00  0.00    +0.195 C 
ATOM     19  C   UNL     1      35.186 -19.942 -22.686  0.00  0.00    +0.236 C 
ATOM     20  C   UNL     1      33.732 -20.484 -21.024  0.00  0.00    +0.411 C 
ENDROOT
BRANCH  18  23
ATOM     21  F   UNL     1      37.599 -18.674 -20.375  0.00  0.00    -0.196 F 
ATOM     22  F   UNL     1      36.371 -17.769 -21.927  0.00  0.00    -0.196 F 
ATOM     23  C   UNL     1      36.350 -18.622 -20.882  0.00  0.00    +0.340 C 
ENDBRANCH  18  23
BRANCH  13  24
ATOM     24  N   UNL     1      32.154 -25.502 -13.640  0.00  0.00    -0.327 N 
ATOM     25  H   UNL     1      32.489 -26.391 -13.386  0.00  0.00    +0.147 HD
BRANCH  24  26
ATOM     26  C   UNL     1      30.945 -25.030 -13.039  0.00  0.00    +0.146 C 
ATOM     27  C   UNL     1      31.088 -23.552 -12.702  0.00  0.00    +0.031 C 
BRANCH  26  30
ATOM     28  O   UNL     1      29.157 -24.345 -14.529  0.00  0.00    -0.274 OA
ATOM     29  N   UNL     1      29.525 -26.590 -14.218  0.00  0.00    -0.327 N 
ATOM     30  C   UNL     1      29.790 -25.255 -13.999  0.00  0.00    +0.237 C 
ATOM     31  H   UNL     1      28.796 -26.854 -14.824  0.00  0.00    +0.145 HD
ATOM     32  H   UNL     1      30.066 -27.280 -13.768  0.00  0.00    +0.145 HD
ENDBRANCH  26  30
ENDBRANCH  24  26
ENDBRANCH  13  24
TORSDOF 4
ENDMDL
MODEL 6
REMARK VINA RESULT:      -8.9      7.618     11.700
REMARK  Name = 124173720
REMARK  4 active torsions:
REMARK  status: ('A' for Active; 'I' for Inactive)
REMARK    1  A    between atoms: C_13  and  N_24
REMARK    2  A    between atoms: C_18  and  C_23
REMARK    3  A    between atoms: N_24  and  C_26
REMARK    4  A    between atoms: C_26  and  C_30
REMARK                            x       y       z     vdW  Elec       q    Type
REMARK                         _______ _______ _______ _____ _____    ______ ____
ROOT
ATOM      1  O   UNL     1      33.679 -12.386 -25.853  0.00  0.00    -0.473 OA
ATOM      2  N   UNL     1      34.399 -15.138 -24.804  0.00  0.00    -0.272 N 
ATOM      3  N   UNL     1      34.440 -15.243 -22.601  0.00  0.00    -0.374 NA
ATOM      4  C   UNL     1      34.880 -16.428 -23.121  0.00  0.00    +0.190 C 
ATOM      5  C   UNL     1      34.151 -14.454 -23.630  0.00  0.00    +0.188 C 
ATOM      6  C   UNL     1      34.223 -14.692 -26.170  0.00  0.00    +0.141 C 
ATOM      7  C   UNL     1      34.868 -16.388 -24.488  0.00  0.00    +0.169 C 
ATOM      8  C   UNL     1      33.649 -13.073 -23.480  0.00  0.00    +0.078 C 
ATOM      9  C   UNL     1      33.158 -13.629 -26.314  0.00  0.00    +0.227 C 
ATOM     10  C   UNL     1      33.459 -12.151 -24.523  0.00  0.00    +0.144 C 
ATOM     11  C   UNL     1      33.371 -12.627 -22.170  0.00  0.00    +0.008 C 
ATOM     12  C   UNL     1      33.059 -10.830 -24.250  0.00  0.00    +0.051 C 
ATOM     13  C   UNL     1      32.798 -10.420 -22.947  0.00  0.00    +0.048 C 
ATOM     14  C   UNL     1      32.949 -11.322 -21.904  0.00  0.00    +0.015 C 
ATOM     15  O   UNL     1      35.892 -18.665 -20.512  0.00  0.00    -0.432 OA
ATOM     16  O   UNL     1      34.823 -16.668 -20.181  0.00  0.00    -0.226 OA
ATOM     17  N   UNL     1      35.276 -17.488 -22.341  0.00  0.00    -0.194 N 
ATOM     18  C   UNL     1      35.751 -18.762 -22.834  0.00  0.00    +0.195 C 
ATOM     19  C   UNL     1      36.527 -19.279 -21.639  0.00  0.00    +0.236 C 
ATOM     20  C   UNL     1      35.280 -17.509 -20.944  0.00  0.00    +0.411 C 
ENDROOT
BRANCH  18  23
ATOM     21  F   UNL     1      35.043 -20.597 -24.100  0.00  0.00    -0.196 F 
ATOM     22  F   UNL     1      34.209 -20.364 -22.104  0.00  0.00    -0.196 F 
ATOM     23  C   UNL     1      34.598 -19.691 -23.207  0.00  0.00    +0.340 C 
ENDBRANCH  18  23
BRANCH  13  24
ATOM     24  N   UNL     1      32.384  -9.098 -22.689  0.00  0.00    -0.327 N 
ATOM     25  H   UNL     1      31.486  -8.821 -22.982  0.00  0.00    +0.147 HD
BRANCH  24  26
ATOM     26  C   UNL     1      33.211  -8.140 -22.021  0.00  0.00    +0.146 C 
ATOM     27  C   UNL     1      33.522  -6.990 -22.968  0.00  0.00    +0.031 C 
BRANCH  26  30
ATOM     28  O   UNL     1      31.503  -6.909 -20.815  0.00  0.00    -0.274 OA
ATOM     29  N   UNL     1      33.060  -8.091 -19.610  0.00  0.00    -0.327 N 
ATOM     30  C   UNL     1      32.491  -7.639 -20.781  0.00  0.00    +0.237 C 
ATOM     31  H   UNL     1      32.676  -7.829 -18.742  0.00  0.00    +0.145 HD
ATOM     32  H   UNL     1      33.851  -8.677 -19.640  0.00  0.00    +0.145 HD
ENDBRANCH  26  30
ENDBRANCH  24  26
ENDBRANCH  13  24
TORSDOF 4
ENDMDL
MODEL 7
REMARK VINA RESULT:      -8.6      3.202      5.418
REMARK  Name = 124173720
REMARK  4 active torsions:
REMARK  status: ('A' for Active; 'I' for Inactive)
REMARK    1  A    between atoms: C_13  and  N_24
REMARK    2  A    between atoms: C_18  and  C_23
REMARK    3  A    between atoms: N_24  and  C_26
REMARK    4  A    between atoms: C_26  and  C_30
REMARK                            x       y       z     vdW  Elec       q    Type
REMARK                         _______ _______ _______ _____ _____    ______ ____
ROOT
ATOM      1  O   UNL     1      35.998 -22.001 -17.902  0.00  0.00    -0.473 OA
ATOM      2  N   UNL     1      33.674 -23.151 -16.329  0.00  0.00    -0.272 N 
ATOM      3  N   UNL     1      31.710 -22.685 -17.218  0.00  0.00    -0.374 NA
ATOM      4  C   UNL     1      31.528 -23.315 -16.019  0.00  0.00    +0.190 C 
ATOM      5  C   UNL     1      33.021 -22.580 -17.404  0.00  0.00    +0.188 C 
ATOM      6  C   UNL     1      35.097 -23.283 -16.097  0.00  0.00    +0.141 C 
ATOM      7  C   UNL     1      32.734 -23.613 -15.444  0.00  0.00    +0.169 C 
ATOM      8  C   UNL     1      33.626 -21.943 -18.592  0.00  0.00    +0.078 C 
ATOM      9  C   UNL     1      35.906 -23.320 -17.373  0.00  0.00    +0.227 C 
ATOM     10  C   UNL     1      34.994 -21.683 -18.777  0.00  0.00    +0.144 C 
ATOM     11  C   UNL     1      32.748 -21.525 -19.615  0.00  0.00    +0.008 C 
ATOM     12  C   UNL     1      35.446 -20.988 -19.913  0.00  0.00    +0.051 C 
ATOM     13  C   UNL     1      34.555 -20.584 -20.901  0.00  0.00    +0.048 C 
ATOM     14  C   UNL     1      33.203 -20.858 -20.756  0.00  0.00    +0.015 C 
ATOM     15  O   UNL     1      28.045 -23.549 -15.218  0.00  0.00    -0.432 OA
ATOM     16  O   UNL     1      28.880 -22.839 -17.227  0.00  0.00    -0.226 OA
ATOM     17  N   UNL     1      30.288 -23.590 -15.497  0.00  0.00    -0.194 N 
ATOM     18  C   UNL     1      30.035 -24.251 -14.236  0.00  0.00    +0.195 C 
ATOM     19  C   UNL     1      28.622 -23.795 -13.931  0.00  0.00    +0.236 C 
ATOM     20  C   UNL     1      29.067 -23.277 -16.100  0.00  0.00    +0.411 C 
ENDROOT
BRANCH  18  23
ATOM     21  F   UNL     1      30.059 -26.099 -15.671  0.00  0.00    -0.196 F 
ATOM     22  F   UNL     1      31.326 -26.175 -13.904  0.00  0.00    -0.196 F 
ATOM     23  C   UNL     1      30.125 -25.771 -14.365  0.00  0.00    +0.340 C 
ENDBRANCH  18  23
BRANCH  13  24
ATOM     24  N   UNL     1      35.023 -19.901 -22.042  0.00  0.00    -0.327 N 
ATOM     25  H   UNL     1      34.962 -20.350 -22.916  0.00  0.00    +0.147 HD
BRANCH  24  26
ATOM     26  C   UNL     1      35.584 -18.586 -21.987  0.00  0.00    +0.146 C 
ATOM     27  C   UNL     1      37.099 -18.684 -21.891  0.00  0.00    +0.031 C 
BRANCH  26  30
ATOM     28  O   UNL     1      34.498 -18.297 -24.136  0.00  0.00    -0.274 OA
ATOM     29  N   UNL     1      35.622 -16.513 -23.228  0.00  0.00    -0.327 N 
ATOM     30  C   UNL     1      35.169 -17.815 -23.228  0.00  0.00    +0.237 C 
ATOM     31  H   UNL     1      35.413 -15.919 -23.985  0.00  0.00    +0.145 HD
ATOM     32  H   UNL     1      36.156 -16.177 -22.472  0.00  0.00    +0.145 HD
ENDBRANCH  26  30
ENDBRANCH  24  26
ENDBRANCH  13  24
TORSDOF 4
ENDMDL
MODEL 8
REMARK VINA RESULT:      -8.4     11.213     15.194
REMARK  Name = 124173720
REMARK  4 active torsions:
REMARK  status: ('A' for Active; 'I' for Inactive)
REMARK    1  A    between atoms: C_13  and  N_24
REMARK    2  A    between atoms: C_18  and  C_23
REMARK    3  A    between atoms: N_24  and  C_26
REMARK    4  A    between atoms: C_26  and  C_30
REMARK                            x       y       z     vdW  Elec       q    Type
REMARK                         _______ _______ _______ _____ _____    ______ ____
ROOT
ATOM      1  O   UNL     1      31.306  -8.757 -19.771  0.00  0.00    -0.473 OA
ATOM      2  N   UNL     1      32.249 -11.318 -21.093  0.00  0.00    -0.272 N 
ATOM      3  N   UNL     1      32.989 -11.013 -23.148  0.00  0.00    -0.374 NA
ATOM      4  C   UNL     1      32.965 -12.350 -22.868  0.00  0.00    +0.190 C 
ATOM      5  C   UNL     1      32.546 -10.383 -22.065  0.00  0.00    +0.188 C 
ATOM      6  C   UNL     1      31.751 -11.106 -19.750  0.00  0.00    +0.141 C 
ATOM      7  C   UNL     1      32.505 -12.568 -21.598  0.00  0.00    +0.169 C 
ATOM      8  C   UNL     1      32.415  -8.915 -21.974  0.00  0.00    +0.078 C 
ATOM      9  C   UNL     1      32.131  -9.757 -19.182  0.00  0.00    +0.227 C 
ATOM     10  C   UNL     1      31.828  -8.207 -20.911  0.00  0.00    +0.144 C 
ATOM     11  C   UNL     1      32.887  -8.157 -23.067  0.00  0.00    +0.008 C 
ATOM     12  C   UNL     1      31.678  -6.811 -20.975  0.00  0.00    +0.051 C 
ATOM     13  C   UNL     1      32.148  -6.093 -22.069  0.00  0.00    +0.048 C 
ATOM     14  C   UNL     1      32.760  -6.766 -23.116  0.00  0.00    +0.015 C 
ATOM     15  O   UNL     1      33.954 -14.268 -25.727  0.00  0.00    -0.432 OA
ATOM     16  O   UNL     1      34.089 -11.989 -25.571  0.00  0.00    -0.226 OA
ATOM     17  N   UNL     1      33.353 -13.312 -23.769  0.00  0.00    -0.194 N 
ATOM     18  C   UNL     1      33.346 -14.738 -23.530  0.00  0.00    +0.195 C 
ATOM     19  C   UNL     1      33.317 -15.283 -24.944  0.00  0.00    +0.236 C 
ATOM     20  C   UNL     1      33.820 -13.069 -25.063  0.00  0.00    +0.411 C 
ENDROOT
BRANCH  18  23
ATOM     21  F   UNL     1      34.212 -15.931 -21.712  0.00  0.00    -0.196 F 
ATOM     22  F   UNL     1      35.327 -15.985 -23.581  0.00  0.00    -0.196 F 
ATOM     23  C   UNL     1      34.594 -15.191 -22.773  0.00  0.00    +0.340 C 
ENDBRANCH  18  23
BRANCH  13  24
ATOM     24  N   UNL     1      32.004  -4.691 -22.113  0.00  0.00    -0.327 N 
ATOM     25  H   UNL     1      32.577  -4.142 -21.532  0.00  0.00    +0.147 HD
BRANCH  24  26
ATOM     26  C   UNL     1      31.062  -4.032 -22.965  0.00  0.00    +0.146 C 
ATOM     27  C   UNL     1      30.098  -3.214 -22.118  0.00  0.00    +0.031 C 
BRANCH  26  30
ATOM     28  O   UNL     1      31.989  -1.940 -23.770  0.00  0.00    -0.274 OA
ATOM     29  N   UNL     1      32.275  -3.828 -25.045  0.00  0.00    -0.327 N 
ATOM     30  C   UNL     1      31.811  -3.143 -23.943  0.00  0.00    +0.237 C 
ATOM     31  H   UNL     1      32.775  -3.351 -25.747  0.00  0.00    +0.145 HD
ATOM     32  H   UNL     1      32.106  -4.794 -25.132  0.00  0.00    +0.145 HD
ENDBRANCH  26  30
ENDBRANCH  24  26
ENDBRANCH  13  24
TORSDOF 4
ENDMDL
