MODEL 1
REMARK VINA RESULT:     -11.5      0.000      0.000
REMARK  Name = 16363
REMARK  6 active torsions:
REMARK  status: ('A' for Active; 'I' for Inactive)
REMARK    1  A    between atoms: N_1  and  C_19
REMARK    2  A    between atoms: C_2  and  N_9
REMARK    3  A    between atoms: C_19  and  C_20
REMARK    4  A    between atoms: C_20  and  C_21
REMARK    5  A    between atoms: C_21  and  C_23
REMARK    6  A    between atoms: C_23  and  C_25
REMARK                            x       y       z     vdW  Elec       q    Type
REMARK                         _______ _______ _______ _____ _____    ______ ____
ROOT
ATOM      1  N   UNL     1      35.067 -16.020 -23.180  0.00  0.00    +0.387 N 
ATOM      2  C   UNL     1      34.875 -18.499 -21.638  0.00  0.00    +0.086 C 
ATOM      3  C   UNL     1      35.432 -18.463 -23.061  0.00  0.00    -0.000 C 
ATOM      4  C   UNL     1      35.044 -17.134 -20.972  0.00  0.00    -0.000 C 
ATOM      5  C   UNL     1      34.839 -17.302 -23.862  0.00  0.00    -0.075 C 
ATOM      6  C   UNL     1      34.465 -16.015 -21.840  0.00  0.00    -0.075 C 
ATOM      7  H   UNL     1      36.074 -15.895 -23.073  0.00  0.00    -0.080 HD
ENDROOT
BRANCH   2   9
ATOM      8  O   UNL     1      37.806 -18.980 -21.115  0.00  0.00    -0.247 OA
ATOM      9  N   UNL     1      35.507 -19.533 -20.859  0.00  0.00    -0.282 N 
ATOM     10  N   UNL     1      37.063 -20.827 -19.837  0.00  0.00    -0.305 N 
ATOM     11  C   UNL     1      34.839 -20.553 -20.168  0.00  0.00    +0.079 A 
ATOM     12  C   UNL     1      36.908 -19.680 -20.668  0.00  0.00    +0.328 A 
ATOM     13  C   UNL     1      35.801 -21.343 -19.543  0.00  0.00    +0.076 A 
ATOM     14  C   UNL     1      33.493 -20.828 -20.051  0.00  0.00    +0.019 C 
ATOM     15  C   UNL     1      35.472 -22.440 -18.776  0.00  0.00    +0.019 C 
ATOM     16  C   UNL     1      33.133 -21.936 -19.278  0.00  0.00    +0.002 C 
ATOM     17  C   UNL     1      34.112 -22.734 -18.648  0.00  0.00    +0.002 C 
ATOM     18  H   UNL     1      37.920 -21.194 -19.522  0.00  0.00    +0.170 HD
ENDBRANCH   2   9
BRANCH   1  19
ATOM     19  C   UNL     1      34.541 -14.914 -23.981  0.00  0.00    -0.077 C 
BRANCH  19  20
ATOM     20  C   UNL     1      34.209 -13.722 -23.082  0.00  0.00    -0.015 C 
BRANCH  20  21
ATOM     21  C   UNL     1      32.703 -13.464 -22.990  0.00  0.00    +0.067 C 
BRANCH  21  23
ATOM     22  O   UNL     1      31.916 -14.447 -20.931  0.00  0.00    -0.291 OA
ATOM     23  C   UNL     1      32.182 -13.425 -21.560  0.00  0.00    +0.173 C 
BRANCH  23  25
ATOM     24  F   UNL     1      31.536  -8.463 -19.084  0.00  0.00    -0.204 F 
ATOM     25  C   UNL     1      32.010 -12.101 -20.899  0.00  0.00    +0.035 C 
ATOM     26  C   UNL     1      32.068 -10.963 -21.673  0.00  0.00    +0.005 C 
ATOM     27  C   UNL     1      31.799 -12.063 -19.539  0.00  0.00    +0.005 C 
ATOM     28  C   UNL     1      31.907  -9.724 -21.055  0.00  0.00    +0.030 C 
ATOM     29  C   UNL     1      31.637 -10.824 -18.921  0.00  0.00    +0.030 C 
ATOM     30  C   UNL     1      31.691  -9.654 -19.678  0.00  0.00    +0.140 C 
ENDBRANCH  23  25
ENDBRANCH  21  23
ENDBRANCH  20  21
ENDBRANCH  19  20
ENDBRANCH   1  19
TORSDOF 6
ENDMDL
MODEL 2
REMARK VINA RESULT:     -11.5      3.569      8.835
REMARK  Name = 16363
REMARK  6 active torsions:
REMARK  status: ('A' for Active; 'I' for Inactive)
REMARK    1  A    between atoms: N_1  and  C_19
REMARK    2  A    between atoms: C_2  and  N_9
REMARK    3  A    between atoms: C_19  and  C_20
REMARK    4  A    between atoms: C_20  and  C_21
REMARK    5  A    between atoms: C_21  and  C_23
REMARK    6  A    between atoms: C_23  and  C_25
REMARK                            x       y       z     vdW  Elec       q    Type
REMARK                         _______ _______ _______ _____ _____    ______ ____
ROOT
ATOM      1  N   UNL     1      34.203 -16.697 -24.126  0.00  0.00    +0.387 N 
ATOM      2  C   UNL     1      34.225 -13.786 -23.833  0.00  0.00    +0.086 C 
ATOM      3  C   UNL     1      33.274 -14.504 -24.791  0.00  0.00    -0.000 C 
ATOM      4  C   UNL     1      34.636 -14.724 -22.698  0.00  0.00    -0.000 C 
ATOM      5  C   UNL     1      33.862 -15.834 -25.265  0.00  0.00    -0.075 C 
ATOM      6  C   UNL     1      35.179 -16.047 -23.240  0.00  0.00    -0.075 C 
ATOM      7  H   UNL     1      33.352 -16.860 -23.589  0.00  0.00    -0.080 HD
ENDROOT
BRANCH   2   9
ATOM      8  O   UNL     1      34.442 -10.951 -24.839  0.00  0.00    -0.247 OA
ATOM      9  N   UNL     1      33.627 -12.582 -23.313  0.00  0.00    -0.282 N 
ATOM     10  N   UNL     1      33.024 -10.417 -23.024  0.00  0.00    -0.305 N 
ATOM     11  C   UNL     1      32.795 -12.509 -22.188  0.00  0.00    +0.079 A 
ATOM     12  C   UNL     1      33.788 -11.280 -23.859  0.00  0.00    +0.328 A 
ATOM     13  C   UNL     1      32.428 -11.176 -22.017  0.00  0.00    +0.076 A 
ATOM     14  C   UNL     1      32.350 -13.494 -21.332  0.00  0.00    +0.019 C 
ATOM     15  C   UNL     1      31.607 -10.761 -20.992  0.00  0.00    +0.019 C 
ATOM     16  C   UNL     1      31.514 -13.099 -20.283  0.00  0.00    +0.002 C 
ATOM     17  C   UNL     1      31.147 -11.747 -20.114  0.00  0.00    +0.002 C 
ATOM     18  H   UNL     1      32.931  -9.443 -23.139  0.00  0.00    +0.170 HD
ENDBRANCH   2   9
BRANCH   1  19
ATOM     19  C   UNL     1      34.716 -17.984 -24.595  0.00  0.00    -0.077 C 
BRANCH  19  20
ATOM     20  C   UNL     1      34.310 -19.099 -23.629  0.00  0.00    -0.015 C 
BRANCH  20  21
ATOM     21  C   UNL     1      35.495 -19.617 -22.810  0.00  0.00    +0.067 C 
BRANCH  21  23
ATOM     22  O   UNL     1      35.634 -18.252 -20.824  0.00  0.00    -0.291 OA
ATOM     23  C   UNL     1      35.364 -19.345 -21.318  0.00  0.00    +0.173 C 
BRANCH  23  25
ATOM     24  F   UNL     1      33.517 -23.442 -18.005  0.00  0.00    -0.204 F 
ATOM     25  C   UNL     1      34.871 -20.438 -20.433  0.00  0.00    +0.035 C 
ATOM     26  C   UNL     1      33.513 -20.583 -20.256  0.00  0.00    +0.005 C 
ATOM     27  C   UNL     1      35.792 -21.263 -19.826  0.00  0.00    +0.005 C 
ATOM     28  C   UNL     1      33.052 -21.606 -19.428  0.00  0.00    +0.030 C 
ATOM     29  C   UNL     1      35.330 -22.287 -18.999  0.00  0.00    +0.030 C 
ATOM     30  C   UNL     1      33.961 -22.459 -18.800  0.00  0.00    +0.140 C 
ENDBRANCH  23  25
ENDBRANCH  21  23
ENDBRANCH  20  21
ENDBRANCH  19  20
ENDBRANCH   1  19
TORSDOF 6
ENDMDL
MODEL 3
REMARK VINA RESULT:     -11.3      1.698      2.022
REMARK  Name = 16363
REMARK  6 active torsions:
REMARK  status: ('A' for Active; 'I' for Inactive)
REMARK    1  A    between atoms: N_1  and  C_19
REMARK    2  A    between atoms: C_2  and  N_9
REMARK    3  A    between atoms: C_19  and  C_20
REMARK    4  A    between atoms: C_20  and  C_21
REMARK    5  A    between atoms: C_21  and  C_23
REMARK    6  A    between atoms: C_23  and  C_25
REMARK                            x       y       z     vdW  Elec       q    Type
REMARK                         _______ _______ _______ _____ _____    ______ ____
ROOT
ATOM      1  N   UNL     1      35.056 -15.949 -23.136  0.00  0.00    +0.387 N 
ATOM      2  C   UNL     1      34.832 -18.457 -21.647  0.00  0.00    +0.086 C 
ATOM      3  C   UNL     1      35.443 -18.390 -23.046  0.00  0.00    -0.000 C 
ATOM      4  C   UNL     1      34.960 -17.102 -20.950  0.00  0.00    -0.000 C 
ATOM      5  C   UNL     1      34.868 -17.220 -23.848  0.00  0.00    -0.075 C 
ATOM      6  C   UNL     1      34.402 -15.974 -21.820  0.00  0.00    -0.075 C 
ATOM      7  H   UNL     1      36.056 -15.816 -22.988  0.00  0.00    -0.080 HD
ENDROOT
BRANCH   2   9
ATOM      8  O   UNL     1      37.750 -18.954 -21.071  0.00  0.00    -0.247 OA
ATOM      9  N   UNL     1      35.445 -19.498 -20.862  0.00  0.00    -0.282 N 
ATOM     10  N   UNL     1      36.975 -20.805 -19.819  0.00  0.00    -0.305 N 
ATOM     11  C   UNL     1      34.759 -20.519 -20.190  0.00  0.00    +0.079 A 
ATOM     12  C   UNL     1      36.841 -19.653 -20.645  0.00  0.00    +0.328 A 
ATOM     13  C   UNL     1      35.706 -21.318 -19.551  0.00  0.00    +0.076 A 
ATOM     14  C   UNL     1      33.410 -20.790 -20.101  0.00  0.00    +0.019 C 
ATOM     15  C   UNL     1      35.358 -22.417 -18.798  0.00  0.00    +0.019 C 
ATOM     16  C   UNL     1      33.031 -21.901 -19.341  0.00  0.00    +0.002 C 
ATOM     17  C   UNL     1      33.994 -22.706 -18.697  0.00  0.00    +0.002 C 
ATOM     18  H   UNL     1      37.825 -21.177 -19.489  0.00  0.00    +0.170 HD
ENDBRANCH   2   9
BRANCH   1  19
ATOM     19  C   UNL     1      34.549 -14.835 -23.937  0.00  0.00    -0.077 C 
BRANCH  19  20
ATOM     20  C   UNL     1      34.271 -13.624 -23.044  0.00  0.00    -0.015 C 
BRANCH  20  21
ATOM     21  C   UNL     1      33.314 -12.625 -23.699  0.00  0.00    +0.067 C 
BRANCH  21  23
ATOM     22  O   UNL     1      34.820 -11.065 -24.759  0.00  0.00    -0.291 OA
ATOM     23  C   UNL     1      33.934 -11.254 -23.928  0.00  0.00    +0.173 C 
BRANCH  23  25
ATOM     24  F   UNL     1      32.060  -6.933 -20.930  0.00  0.00    -0.204 F 
ATOM     25  C   UNL     1      33.434 -10.101 -23.127  0.00  0.00    +0.035 C 
ATOM     26  C   UNL     1      34.101  -8.899 -23.211  0.00  0.00    +0.005 C 
ATOM     27  C   UNL     1      32.323 -10.279 -22.334  0.00  0.00    +0.005 C 
ATOM     28  C   UNL     1      33.633  -7.820 -22.463  0.00  0.00    +0.030 C 
ATOM     29  C   UNL     1      31.855  -9.200 -21.585  0.00  0.00    +0.030 C 
ATOM     30  C   UNL     1      32.509  -7.970 -21.649  0.00  0.00    +0.140 C 
ENDBRANCH  23  25
ENDBRANCH  21  23
ENDBRANCH  20  21
ENDBRANCH  19  20
ENDBRANCH   1  19
TORSDOF 6
ENDMDL
MODEL 4
REMARK VINA RESULT:     -11.2      5.189      8.612
REMARK  Name = 16363
REMARK  6 active torsions:
REMARK  status: ('A' for Active; 'I' for Inactive)
REMARK    1  A    between atoms: N_1  and  C_19
REMARK    2  A    between atoms: C_2  and  N_9
REMARK    3  A    between atoms: C_19  and  C_20
REMARK    4  A    between atoms: C_20  and  C_21
REMARK    5  A    between atoms: C_21  and  C_23
REMARK    6  A    between atoms: C_23  and  C_25
REMARK                            x       y       z     vdW  Elec       q    Type
REMARK                         _______ _______ _______ _____ _____    ______ ____
ROOT
ATOM      1  N   UNL     1      34.510 -23.202 -17.863  0.00  0.00    +0.387 N 
ATOM      2  C   UNL     1      34.920 -23.490 -14.980  0.00  0.00    +0.086 C 
ATOM      3  C   UNL     1      33.816 -24.239 -15.728  0.00  0.00    -0.000 C 
ATOM      4  C   UNL     1      36.060 -23.141 -15.936  0.00  0.00    -0.000 C 
ATOM      5  C   UNL     1      33.371 -23.473 -16.975  0.00  0.00    -0.075 C 
ATOM      6  C   UNL     1      35.543 -22.412 -17.178  0.00  0.00    -0.075 C 
ATOM      7  H   UNL     1      34.923 -24.096 -18.128  0.00  0.00    -0.080 HD
ENDROOT
BRANCH   2   9
ATOM      8  O   UNL     1      33.510 -24.247 -12.424  0.00  0.00    -0.247 OA
ATOM      9  N   UNL     1      35.404 -24.258 -13.862  0.00  0.00    -0.282 N 
ATOM     10  N   UNL     1      35.536 -25.336 -11.872  0.00  0.00    -0.305 N 
ATOM     11  C   UNL     1      36.683 -24.821 -13.756  0.00  0.00    +0.079 A 
ATOM     12  C   UNL     1      34.660 -24.567 -12.691  0.00  0.00    +0.328 A 
ATOM     13  C   UNL     1      36.756 -25.481 -12.531  0.00  0.00    +0.076 A 
ATOM     14  C   UNL     1      37.751 -24.797 -14.627  0.00  0.00    +0.019 C 
ATOM     15  C   UNL     1      37.890 -26.146 -12.117  0.00  0.00    +0.019 C 
ATOM     16  C   UNL     1      38.914 -25.465 -14.230  0.00  0.00    +0.002 C 
ATOM     17  C   UNL     1      38.983 -26.131 -12.988  0.00  0.00    +0.002 C 
ATOM     18  H   UNL     1      35.315 -25.705 -10.986  0.00  0.00    +0.170 HD
ENDBRANCH   2   9
BRANCH   1  19
ATOM     19  C   UNL     1      34.062 -22.515 -19.075  0.00  0.00    -0.077 C 
BRANCH  19  20
ATOM     20  C   UNL     1      35.117 -21.506 -19.532  0.00  0.00    -0.015 C 
BRANCH  20  21
ATOM     21  C   UNL     1      34.537 -20.442 -20.467  0.00  0.00    +0.067 C 
BRANCH  21  23
ATOM     22  O   UNL     1      36.717 -19.411 -20.564  0.00  0.00    -0.291 OA
ATOM     23  C   UNL     1      35.589 -19.505 -21.043  0.00  0.00    +0.173 C 
BRANCH  23  25
ATOM     24  F   UNL     1      34.280 -16.454 -25.532  0.00  0.00    -0.204 F 
ATOM     25  C   UNL     1      35.240 -18.690 -22.241  0.00  0.00    +0.035 C 
ATOM     26  C   UNL     1      34.776 -19.335 -23.366  0.00  0.00    +0.005 C 
ATOM     27  C   UNL     1      35.393 -17.323 -22.180  0.00  0.00    +0.005 C 
ATOM     28  C   UNL     1      34.449 -18.574 -24.488  0.00  0.00    +0.030 C 
ATOM     29  C   UNL     1      35.066 -16.562 -23.301  0.00  0.00    +0.030 C 
ATOM     30  C   UNL     1      34.594 -17.186 -24.455  0.00  0.00    +0.140 C 
ENDBRANCH  23  25
ENDBRANCH  21  23
ENDBRANCH  20  21
ENDBRANCH  19  20
ENDBRANCH   1  19
TORSDOF 6
ENDMDL
MODEL 5
REMARK VINA RESULT:     -11.0      4.165      9.311
REMARK  Name = 16363
REMARK  6 active torsions:
REMARK  status: ('A' for Active; 'I' for Inactive)
REMARK    1  A    between atoms: N_1  and  C_19
REMARK    2  A    between atoms: C_2  and  N_9
REMARK    3  A    between atoms: C_19  and  C_20
REMARK    4  A    between atoms: C_20  and  C_21
REMARK    5  A    between atoms: C_21  and  C_23
REMARK    6  A    between atoms: C_23  and  C_25
REMARK                            x       y       z     vdW  Elec       q    Type
REMARK                         _______ _______ _______ _____ _____    ______ ____
ROOT
ATOM      1  N   UNL     1      36.056 -20.118 -20.169  0.00  0.00    +0.387 N 
ATOM      2  C   UNL     1      35.358 -18.488 -22.497  0.00  0.00    +0.086 C 
ATOM      3  C   UNL     1      34.302 -19.202 -21.653  0.00  0.00    -0.000 C 
ATOM      4  C   UNL     1      36.609 -18.223 -21.660  0.00  0.00    -0.000 C 
ATOM      5  C   UNL     1      34.878 -20.451 -20.982  0.00  0.00    -0.075 C 
ATOM      6  C   UNL     1      37.111 -19.503 -20.988  0.00  0.00    -0.075 C 
ATOM      7  H   UNL     1      35.771 -19.439 -19.464  0.00  0.00    -0.080 HD
ENDROOT
BRANCH   2   9
ATOM      8  O   UNL     1      34.843 -17.750 -25.375  0.00  0.00    -0.247 OA
ATOM      9  N   UNL     1      34.840 -17.262 -23.048  0.00  0.00    -0.282 N 
ATOM     10  N   UNL     1      34.112 -15.679 -24.498  0.00  0.00    -0.305 N 
ATOM     11  C   UNL     1      34.462 -16.134 -22.307  0.00  0.00    +0.079 A 
ATOM     12  C   UNL     1      34.629 -17.004 -24.430  0.00  0.00    +0.328 A 
ATOM     13  C   UNL     1      34.017 -15.165 -23.205  0.00  0.00    +0.076 A 
ATOM     14  C   UNL     1      34.481 -15.903 -20.948  0.00  0.00    +0.019 C 
ATOM     15  C   UNL     1      33.571 -13.928 -22.795  0.00  0.00    +0.019 C 
ATOM     16  C   UNL     1      34.033 -14.653 -20.507  0.00  0.00    +0.002 C 
ATOM     17  C   UNL     1      33.583 -13.677 -21.421  0.00  0.00    +0.002 C 
ATOM     18  H   UNL     1      33.863 -15.203 -25.323  0.00  0.00    +0.170 HD
ENDBRANCH   2   9
BRANCH   1  19
ATOM     19  C   UNL     1      36.565 -21.311 -19.493  0.00  0.00    -0.077 C 
BRANCH  19  20
ATOM     20  C   UNL     1      35.482 -22.391 -19.441  0.00  0.00    -0.015 C 
BRANCH  20  21
ATOM     21  C   UNL     1      35.006 -22.667 -18.012  0.00  0.00    +0.067 C 
BRANCH  21  23
ATOM     22  O   UNL     1      32.742 -22.616 -18.846  0.00  0.00    -0.291 OA
ATOM     23  C   UNL     1      33.496 -22.825 -17.898  0.00  0.00    +0.173 C 
BRANCH  23  25
ATOM     24  F   UNL     1      31.343 -24.480 -13.020  0.00  0.00    -0.204 F 
ATOM     25  C   UNL     1      32.921 -23.268 -16.596  0.00  0.00    +0.035 C 
ATOM     26  C   UNL     1      33.777 -23.713 -15.613  0.00  0.00    +0.005 C 
ATOM     27  C   UNL     1      31.556 -23.214 -16.424  0.00  0.00    +0.005 C 
ATOM     28  C   UNL     1      33.239 -24.126 -14.395  0.00  0.00    +0.030 C 
ATOM     29  C   UNL     1      31.019 -23.627 -15.205  0.00  0.00    +0.030 C 
ATOM     30  C   UNL     1      31.859 -24.083 -14.191  0.00  0.00    +0.140 C 
ENDBRANCH  23  25
ENDBRANCH  21  23
ENDBRANCH  20  21
ENDBRANCH  19  20
ENDBRANCH   1  19
TORSDOF 6
ENDMDL
MODEL 6
REMARK VINA RESULT:     -11.0      3.546      9.492
REMARK  Name = 16363
REMARK  6 active torsions:
REMARK  status: ('A' for Active; 'I' for Inactive)
REMARK    1  A    between atoms: N_1  and  C_19
REMARK    2  A    between atoms: C_2  and  N_9
REMARK    3  A    between atoms: C_19  and  C_20
REMARK    4  A    between atoms: C_20  and  C_21
REMARK    5  A    between atoms: C_21  and  C_23
REMARK    6  A    between atoms: C_23  and  C_25
REMARK                            x       y       z     vdW  Elec       q    Type
REMARK                         _______ _______ _______ _____ _____    ______ ____
ROOT
ATOM      1  N   UNL     1      34.099 -16.463 -23.916  0.00  0.00    +0.387 N 
ATOM      2  C   UNL     1      33.985 -13.583 -23.415  0.00  0.00    +0.086 C 
ATOM      3  C   UNL     1      33.124 -14.262 -24.480  0.00  0.00    -0.000 C 
ATOM      4  C   UNL     1      34.365 -14.586 -22.327  0.00  0.00    -0.000 C 
ATOM      5  C   UNL     1      33.793 -15.531 -25.010  0.00  0.00    -0.075 C 
ATOM      6  C   UNL     1      34.993 -15.846 -22.926  0.00  0.00    -0.075 C 
ATOM      7  H   UNL     1      33.225 -16.696 -23.447  0.00  0.00    -0.080 HD
ENDROOT
BRANCH   2   9
ATOM      8  O   UNL     1      31.715 -13.494 -21.432  0.00  0.00    -0.247 OA
ATOM      9  N   UNL     1      33.308 -12.443 -22.850  0.00  0.00    -0.282 N 
ATOM     10  N   UNL     1      31.895 -11.145 -21.643  0.00  0.00    -0.305 N 
ATOM     11  C   UNL     1      33.599 -11.102 -23.134  0.00  0.00    +0.079 A 
ATOM     12  C   UNL     1      32.240 -12.500 -21.913  0.00  0.00    +0.328 A 
ATOM     13  C   UNL     1      32.727 -10.311 -22.389  0.00  0.00    +0.076 A 
ATOM     14  C   UNL     1      34.542 -10.544 -23.971  0.00  0.00    +0.019 C 
ATOM     15  C   UNL     1      32.751  -8.934 -22.441  0.00  0.00    +0.019 C 
ATOM     16  C   UNL     1      34.587  -9.148 -24.041  0.00  0.00    +0.002 C 
ATOM     17  C   UNL     1      33.701  -8.352 -23.285  0.00  0.00    +0.002 C 
ATOM     18  H   UNL     1      31.185 -10.847 -21.029  0.00  0.00    +0.170 HD
ENDBRANCH   2   9
BRANCH   1  19
ATOM     19  C   UNL     1      34.692 -17.693 -24.442  0.00  0.00    -0.077 C 
BRANCH  19  20
ATOM     20  C   UNL     1      35.617 -18.322 -23.399  0.00  0.00    -0.015 C 
BRANCH  20  21
ATOM     21  C   UNL     1      34.919 -19.418 -22.589  0.00  0.00    +0.067 C 
BRANCH  21  23
ATOM     22  O   UNL     1      36.256 -18.748 -20.695  0.00  0.00    -0.291 OA
ATOM     23  C   UNL     1      35.422 -19.524 -21.157  0.00  0.00    +0.173 C 
BRANCH  23  25
ATOM     24  F   UNL     1      33.345 -23.539 -17.880  0.00  0.00    -0.204 F 
ATOM     25  C   UNL     1      34.867 -20.596 -20.282  0.00  0.00    +0.035 C 
ATOM     26  C   UNL     1      35.742 -21.437 -19.632  0.00  0.00    +0.005 C 
ATOM     27  C   UNL     1      33.500 -20.706 -20.157  0.00  0.00    +0.005 C 
ATOM     28  C   UNL     1      35.224 -22.440 -18.813  0.00  0.00    +0.030 C 
ATOM     29  C   UNL     1      32.982 -21.709 -19.338  0.00  0.00    +0.030 C 
ATOM     30  C   UNL     1      33.843 -22.576 -18.666  0.00  0.00    +0.140 C 
ENDBRANCH  23  25
ENDBRANCH  21  23
ENDBRANCH  20  21
ENDBRANCH  19  20
ENDBRANCH   1  19
TORSDOF 6
ENDMDL
MODEL 7
REMARK VINA RESULT:     -11.0      5.403     11.769
REMARK  Name = 16363
REMARK  6 active torsions:
REMARK  status: ('A' for Active; 'I' for Inactive)
REMARK    1  A    between atoms: N_1  and  C_19
REMARK    2  A    between atoms: C_2  and  N_9
REMARK    3  A    between atoms: C_19  and  C_20
REMARK    4  A    between atoms: C_20  and  C_21
REMARK    5  A    between atoms: C_21  and  C_23
REMARK    6  A    between atoms: C_23  and  C_25
REMARK                            x       y       z     vdW  Elec       q    Type
REMARK                         _______ _______ _______ _____ _____    ______ ____
ROOT
ATOM      1  N   UNL     1      31.577  -9.843 -20.306  0.00  0.00    +0.387 N 
ATOM      2  C   UNL     1      32.289  -7.607 -22.054  0.00  0.00    +0.086 C 
ATOM      3  C   UNL     1      31.315  -8.704 -22.485  0.00  0.00    -0.000 C 
ATOM      4  C   UNL     1      32.310  -7.491 -20.530  0.00  0.00    -0.000 C 
ATOM      5  C   UNL     1      31.606 -10.021 -21.764  0.00  0.00    -0.075 C 
ATOM      6  C   UNL     1      32.568  -8.847 -19.872  0.00  0.00    -0.075 C 
ATOM      7  H   UNL     1      30.653  -9.498 -20.049  0.00  0.00    -0.080 HD
ENDROOT
BRANCH   2   9
ATOM      8  O   UNL     1      30.092  -5.668 -21.343  0.00  0.00    -0.247 OA
ATOM      9  N   UNL     1      31.951  -6.345 -22.661  0.00  0.00    -0.282 N 
ATOM     10  N   UNL     1      30.938  -4.373 -23.133  0.00  0.00    -0.305 N 
ATOM     11  C   UNL     1      32.618  -5.761 -23.747  0.00  0.00    +0.079 A 
ATOM     12  C   UNL     1      30.889  -5.492 -22.254  0.00  0.00    +0.328 A 
ATOM     13  C   UNL     1      31.990  -4.551 -24.031  0.00  0.00    +0.076 A 
ATOM     14  C   UNL     1      33.700  -6.201 -24.480  0.00  0.00    +0.019 C 
ATOM     15  C   UNL     1      32.406  -3.724 -25.051  0.00  0.00    +0.019 C 
ATOM     16  C   UNL     1      34.142  -5.379 -25.522  0.00  0.00    +0.002 C 
ATOM     17  C   UNL     1      33.501  -4.154 -25.804  0.00  0.00    +0.002 C 
ATOM     18  H   UNL     1      30.328  -3.600 -23.110  0.00  0.00    +0.170 HD
ENDBRANCH   2   9
BRANCH   1  19
ATOM     19  C   UNL     1      31.806 -11.120 -19.630  0.00  0.00    -0.077 C 
BRANCH  19  20
ATOM     20  C   UNL     1      31.344 -12.278 -20.516  0.00  0.00    -0.015 C 
BRANCH  20  21
ATOM     21  C   UNL     1      32.303 -13.470 -20.462  0.00  0.00    +0.067 C 
BRANCH  21  23
ATOM     22  O   UNL     1      33.090 -12.848 -22.657  0.00  0.00    -0.291 OA
ATOM     23  C   UNL     1      33.074 -13.685 -21.756  0.00  0.00    +0.173 C 
BRANCH  23  25
ATOM     24  F   UNL     1      35.983 -18.409 -22.381  0.00  0.00    -0.204 F 
ATOM     25  C   UNL     1      33.852 -14.946 -21.924  0.00  0.00    +0.035 C 
ATOM     26  C   UNL     1      34.158 -15.686 -20.803  0.00  0.00    +0.005 C 
ATOM     27  C   UNL     1      34.233 -15.324 -23.191  0.00  0.00    +0.005 C 
ATOM     28  C   UNL     1      34.885 -16.866 -20.959  0.00  0.00    +0.030 C 
ATOM     29  C   UNL     1      34.959 -16.504 -23.347  0.00  0.00    +0.030 C 
ATOM     30  C   UNL     1      35.285 -17.276 -22.232  0.00  0.00    +0.140 C 
ENDBRANCH  23  25
ENDBRANCH  21  23
ENDBRANCH  20  21
ENDBRANCH  19  20
ENDBRANCH   1  19
TORSDOF 6
ENDMDL
MODEL 8
REMARK VINA RESULT:     -10.9      1.339      1.562
REMARK  Name = 16363
REMARK  6 active torsions:
REMARK  status: ('A' for Active; 'I' for Inactive)
REMARK    1  A    between atoms: N_1  and  C_19
REMARK    2  A    between atoms: C_2  and  N_9
REMARK    3  A    between atoms: C_19  and  C_20
REMARK    4  A    between atoms: C_20  and  C_21
REMARK    5  A    between atoms: C_21  and  C_23
REMARK    6  A    between atoms: C_23  and  C_25
REMARK                            x       y       z     vdW  Elec       q    Type
REMARK                         _______ _______ _______ _____ _____    ______ ____
ROOT
ATOM      1  N   UNL     1      35.099 -17.076 -23.681  0.00  0.00    +0.387 N 
ATOM      2  C   UNL     1      34.831 -19.048 -21.537  0.00  0.00    +0.086 C 
ATOM      3  C   UNL     1      35.122 -19.448 -22.983  0.00  0.00    -0.000 C 
ATOM      4  C   UNL     1      35.314 -17.621 -21.278  0.00  0.00    -0.000 C 
ATOM      5  C   UNL     1      34.568 -18.416 -23.967  0.00  0.00    -0.075 C 
ATOM      6  C   UNL     1      34.755 -16.648 -22.318  0.00  0.00    -0.075 C 
ATOM      7  H   UNL     1      36.115 -17.118 -23.750  0.00  0.00    -0.080 HD
ENDROOT
BRANCH   2   9
ATOM      8  O   UNL     1      37.738 -19.410 -20.821  0.00  0.00    -0.247 OA
ATOM      9  N   UNL     1      35.437 -19.971 -20.611  0.00  0.00    -0.282 N 
ATOM     10  N   UNL     1      36.957 -21.106 -19.370  0.00  0.00    -0.305 N 
ATOM     11  C   UNL     1      34.749 -20.914 -19.836  0.00  0.00    +0.079 A 
ATOM     12  C   UNL     1      36.829 -20.069 -20.337  0.00  0.00    +0.328 A 
ATOM     13  C   UNL     1      35.689 -21.608 -19.077  0.00  0.00    +0.076 A 
ATOM     14  C   UNL     1      33.402 -21.199 -19.752  0.00  0.00    +0.019 C 
ATOM     15  C   UNL     1      35.336 -22.612 -18.202  0.00  0.00    +0.019 C 
ATOM     16  C   UNL     1      33.019 -22.215 -18.870  0.00  0.00    +0.002 C 
ATOM     17  C   UNL     1      33.975 -22.914 -18.104  0.00  0.00    +0.002 C 
ATOM     18  H   UNL     1      37.802 -21.418 -18.973  0.00  0.00    +0.170 HD
ENDBRANCH   2   9
BRANCH   1  19
ATOM     19  C   UNL     1      34.602 -16.110 -24.661  0.00  0.00    -0.077 C 
BRANCH  19  20
ATOM     20  C   UNL     1      34.646 -14.696 -24.078  0.00  0.00    -0.015 C 
BRANCH  20  21
ATOM     21  C   UNL     1      33.248 -14.100 -23.891  0.00  0.00    +0.067 C 
BRANCH  21  23
ATOM     22  O   UNL     1      33.806 -11.754 -23.992  0.00  0.00    -0.291 OA
ATOM     23  C   UNL     1      33.265 -12.669 -23.374  0.00  0.00    +0.173 C 
BRANCH  23  25
ATOM     24  F   UNL     1      30.713 -11.541 -18.538  0.00  0.00    -0.204 F 
ATOM     25  C   UNL     1      32.585 -12.368 -22.082  0.00  0.00    +0.035 C 
ATOM     26  C   UNL     1      31.988 -11.137 -21.922  0.00  0.00    +0.005 C 
ATOM     27  C   UNL     1      32.576 -13.331 -21.099  0.00  0.00    +0.005 C 
ATOM     28  C   UNL     1      31.350 -10.855 -20.714  0.00  0.00    +0.030 C 
ATOM     29  C   UNL     1      31.939 -13.049 -19.891  0.00  0.00    +0.030 C 
ATOM     30  C   UNL     1      31.325 -11.812 -19.698  0.00  0.00    +0.140 C 
ENDBRANCH  23  25
ENDBRANCH  21  23
ENDBRANCH  20  21
ENDBRANCH  19  20
ENDBRANCH   1  19
TORSDOF 6
ENDMDL
MODEL 9
REMARK VINA RESULT:     -10.8      3.145      4.998
REMARK  Name = 16363
REMARK  6 active torsions:
REMARK  status: ('A' for Active; 'I' for Inactive)
REMARK    1  A    between atoms: N_1  and  C_19
REMARK    2  A    between atoms: C_2  and  N_9
REMARK    3  A    between atoms: C_19  and  C_20
REMARK    4  A    between atoms: C_20  and  C_21
REMARK    5  A    between atoms: C_21  and  C_23
REMARK    6  A    between atoms: C_23  and  C_25
REMARK                            x       y       z     vdW  Elec       q    Type
REMARK                         _______ _______ _______ _____ _____    ______ ____
ROOT
ATOM      1  N   UNL     1      34.753 -20.211 -20.490  0.00  0.00    +0.387 N 
ATOM      2  C   UNL     1      34.418 -22.462 -18.651  0.00  0.00    +0.086 C 
ATOM      3  C   UNL     1      35.764 -21.765 -18.853  0.00  0.00    -0.000 C 
ATOM      4  C   UNL     1      33.274 -21.506 -18.988  0.00  0.00    -0.000 C 
ATOM      5  C   UNL     1      35.863 -21.142 -20.247  0.00  0.00    -0.075 C 
ATOM      6  C   UNL     1      33.454 -20.890 -20.377  0.00  0.00    -0.075 C 
ATOM      7  H   UNL     1      34.789 -19.483 -19.776  0.00  0.00    -0.080 HD
ENDROOT
BRANCH   2   9
ATOM      8  O   UNL     1      31.976 -23.507 -17.223  0.00  0.00    -0.247 OA
ATOM      9  N   UNL     1      34.290 -22.963 -17.306  0.00  0.00    -0.282 N 
ATOM     10  N   UNL     1      33.438 -23.824 -15.391  0.00  0.00    -0.305 N 
ATOM     11  C   UNL     1      35.330 -23.059 -16.372  0.00  0.00    +0.079 A 
ATOM     12  C   UNL     1      33.087 -23.438 -16.716  0.00  0.00    +0.328 A 
ATOM     13  C   UNL     1      34.799 -23.589 -15.198  0.00  0.00    +0.076 A 
ATOM     14  C   UNL     1      36.664 -22.727 -16.475  0.00  0.00    +0.019 C 
ATOM     15  C   UNL     1      35.566 -23.813 -14.076  0.00  0.00    +0.019 C 
ATOM     16  C   UNL     1      37.464 -22.945 -15.348  0.00  0.00    +0.002 C 
ATOM     17  C   UNL     1      36.921 -23.482 -14.162  0.00  0.00    +0.002 C 
ATOM     18  H   UNL     1      32.820 -24.197 -14.721  0.00  0.00    +0.170 HD
ENDBRANCH   2   9
BRANCH   1  19
ATOM     19  C   UNL     1      34.889 -19.584 -21.805  0.00  0.00    -0.077 C 
BRANCH  19  20
ATOM     20  C   UNL     1      35.776 -18.341 -21.710  0.00  0.00    -0.015 C 
BRANCH  20  21
ATOM     21  C   UNL     1      35.055 -17.163 -21.049  0.00  0.00    +0.067 C 
BRANCH  21  23
ATOM     22  O   UNL     1      35.358 -15.903 -23.085  0.00  0.00    -0.291 OA
ATOM     23  C   UNL     1      34.786 -16.007 -22.002  0.00  0.00    +0.173 C 
BRANCH  23  25
ATOM     24  F   UNL     1      31.012 -12.160 -20.546  0.00  0.00    -0.204 F 
ATOM     25  C   UNL     1      33.779 -14.980 -21.612  0.00  0.00    +0.035 C 
ATOM     26  C   UNL     1      33.513 -13.951 -22.488  0.00  0.00    +0.005 C 
ATOM     27  C   UNL     1      33.151 -15.098 -20.393  0.00  0.00    +0.005 C 
ATOM     28  C   UNL     1      32.570 -12.990 -22.125  0.00  0.00    +0.030 C 
ATOM     29  C   UNL     1      32.208 -14.137 -20.029  0.00  0.00    +0.030 C 
ATOM     30  C   UNL     1      31.917 -13.083 -20.894  0.00  0.00    +0.140 C 
ENDBRANCH  23  25
ENDBRANCH  21  23
ENDBRANCH  20  21
ENDBRANCH  19  20
ENDBRANCH   1  19
TORSDOF 6
ENDMDL
