MODEL 1
REMARK VINA RESULT:     -12.0      0.000      0.000
REMARK  Name = 23629645
REMARK  6 active torsions:
REMARK  status: ('A' for Active; 'I' for Inactive)
REMARK    1  A    between atoms: N_1  and  C_6
REMARK    2  A    between atoms: N_1  and  C_21
REMARK    3  A    between atoms: C_3  and  C_16
REMARK    4  A    between atoms: C_11  and  C_18
REMARK    5  A    between atoms: C_18  and  O_19
REMARK    6  A    between atoms: C_21  and  C_28
REMARK                            x       y       z     vdW  Elec       q    Type
REMARK                         _______ _______ _______ _____ _____    ______ ____
ROOT
ATOM      1  N   UNL     1      35.032 -19.099 -22.410  0.00  0.00    -0.300 N 
ATOM      2  C   UNL     1      34.556 -19.402 -23.744  0.00  0.00    +0.113 C 
ENDROOT
BRANCH   1   6
ATOM      3  C   UNL     1      34.154 -21.665 -19.208  0.00  0.00    +0.054 C 
ATOM      4  C   UNL     1      35.476 -21.474 -19.601  0.00  0.00    +0.006 C 
ATOM      5  C   UNL     1      33.121 -21.009 -19.873  0.00  0.00    +0.006 C 
ATOM      6  C   UNL     1      34.736 -19.962 -21.333  0.00  0.00    +0.048 C 
ATOM      7  C   UNL     1      35.768 -20.620 -20.665  0.00  0.00    +0.015 C 
ATOM      8  C   UNL     1      33.413 -20.156 -20.938  0.00  0.00    +0.015 C 
BRANCH   3  16
ATOM      9  O   UNL     1      32.668 -22.894 -17.966  0.00  0.00    -0.270 OA
ATOM     10  N   UNL     1      34.894 -22.960 -17.255  0.00  0.00    -0.276 N 
ATOM     11  C   UNL     1      36.525 -22.747 -14.865  0.00  0.00    +0.102 C 
ATOM     12  C   UNL     1      35.079 -23.253 -14.823  0.00  0.00    +0.033 C 
ATOM     13  C   UNL     1      36.811 -21.910 -16.118  0.00  0.00    +0.033 C 
ATOM     14  C   UNL     1      34.632 -23.874 -16.146  0.00  0.00    +0.094 C 
ATOM     15  C   UNL     1      36.300 -22.567 -17.400  0.00  0.00    +0.094 C 
ATOM     16  C   UNL     1      33.846 -22.564 -18.088  0.00  0.00    +0.249 C 
BRANCH  11  18
ATOM     17  O   UNL     1      38.622 -23.887 -15.193  0.00  0.00    -0.250 OA
ATOM     18  C   UNL     1      37.480 -23.899 -14.755  0.00  0.00    +0.317 C 
BRANCH  18  19
ATOM     19  O   UNL     1      36.875 -24.932 -14.102  0.00  0.00    -0.444 OA
ATOM     20  C   UNL     1      37.265 -26.242 -14.528  0.00  0.00    +0.256 C 
ENDBRANCH  18  19
ENDBRANCH  11  18
ENDBRANCH   3  16
ENDBRANCH   1   6
BRANCH   1  21
ATOM     21  C   UNL     1      35.803 -17.891 -22.192  0.00  0.00    +0.148 C 
BRANCH  21  28
ATOM     22  N   UNL     1      34.514 -15.910 -22.732  0.00  0.00    -0.392 NA
ATOM     23  N   UNL     1      33.825 -15.536 -20.078  0.00  0.00    -0.200 NA
ATOM     24  N   UNL     1      32.607 -13.650 -20.645  0.00  0.00    -0.271 NA
ATOM     25  N   UNL     1      32.463 -12.914 -22.923  0.00  0.00    -0.310 NA
ATOM     26  N   UNL     1      33.578 -14.128 -24.615  0.00  0.00    -0.329 N 
ATOM     27  N   UNL     1      31.370 -11.739 -21.217  0.00  0.00    -0.283 N 
ATOM     28  C   UNL     1      34.933 -16.736 -21.773  0.00  0.00    +0.133 C 
ATOM     29  C   UNL     1      34.603 -16.564 -20.466  0.00  0.00    +0.193 C 
ATOM     30  C   UNL     1      33.736 -14.882 -22.342  0.00  0.00    +0.248 C 
ATOM     31  C   UNL     1      33.381 -14.680 -21.007  0.00  0.00    +0.131 C 
ATOM     32  C   UNL     1      33.241 -13.962 -23.247  0.00  0.00    +0.231 C 
ATOM     33  C   UNL     1      32.186 -12.819 -21.617  0.00  0.00    +0.207 C 
ATOM     34  H   UNL     1      33.243 -13.489 -25.286  0.00  0.00    +0.145 HD
ATOM     35  H   UNL     1      34.146 -14.881 -24.895  0.00  0.00    +0.145 HD
ATOM     36  H   UNL     1      31.137 -11.624 -20.268  0.00  0.00    +0.156 HD
ATOM     37  H   UNL     1      31.035 -11.100 -21.888  0.00  0.00    +0.156 HD
ENDBRANCH  21  28
ENDBRANCH   1  21
TORSDOF 6
ENDMDL
MODEL 2
REMARK VINA RESULT:     -11.9      0.656      1.778
REMARK  Name = 23629645
REMARK  6 active torsions:
REMARK  status: ('A' for Active; 'I' for Inactive)
REMARK    1  A    between atoms: N_1  and  C_6
REMARK    2  A    between atoms: N_1  and  C_21
REMARK    3  A    between atoms: C_3  and  C_16
REMARK    4  A    between atoms: C_11  and  C_18
REMARK    5  A    between atoms: C_18  and  O_19
REMARK    6  A    between atoms: C_21  and  C_28
REMARK                            x       y       z     vdW  Elec       q    Type
REMARK                         _______ _______ _______ _____ _____    ______ ____
ROOT
ATOM      1  N   UNL     1      35.036 -19.103 -22.183  0.00  0.00    -0.300 N 
ATOM      2  C   UNL     1      34.575 -19.349 -23.534  0.00  0.00    +0.113 C 
ENDROOT
BRANCH   1   6
ATOM      3  C   UNL     1      34.069 -21.765 -19.088  0.00  0.00    +0.054 C 
ATOM      4  C   UNL     1      33.059 -21.056 -19.733  0.00  0.00    +0.006 C 
ATOM      5  C   UNL     1      35.399 -21.595 -19.465  0.00  0.00    +0.006 C 
ATOM      6  C   UNL     1      34.711 -19.998 -21.142  0.00  0.00    +0.048 C 
ATOM      7  C   UNL     1      33.380 -20.171 -20.762  0.00  0.00    +0.015 C 
ATOM      8  C   UNL     1      35.721 -20.710 -20.494  0.00  0.00    +0.015 C 
BRANCH   3  16
ATOM      9  O   UNL     1      32.555 -23.050 -17.940  0.00  0.00    -0.270 OA
ATOM     10  N   UNL     1      34.749 -23.095 -17.135  0.00  0.00    -0.276 N 
ATOM     11  C   UNL     1      36.272 -22.911 -14.673  0.00  0.00    +0.102 C 
ATOM     12  C   UNL     1      34.835 -23.444 -14.706  0.00  0.00    +0.033 C 
ATOM     13  C   UNL     1      36.595 -22.039 -15.892  0.00  0.00    +0.033 C 
ATOM     14  C   UNL     1      34.457 -24.040 -16.061  0.00  0.00    +0.094 C 
ATOM     15  C   UNL     1      36.153 -22.674 -17.210  0.00  0.00    +0.094 C 
ATOM     16  C   UNL     1      33.731 -22.697 -18.004  0.00  0.00    +0.249 C 
BRANCH  11  18
ATOM     17  O   UNL     1      38.390 -24.020 -14.972  0.00  0.00    -0.250 OA
ATOM     18  C   UNL     1      37.243 -24.049 -14.549  0.00  0.00    +0.317 C 
BRANCH  18  19
ATOM     19  O   UNL     1      36.644 -25.090 -13.903  0.00  0.00    -0.444 OA
ATOM     20  C   UNL     1      37.163 -26.387 -14.215  0.00  0.00    +0.256 C 
ENDBRANCH  18  19
ENDBRANCH  11  18
ENDBRANCH   3  16
ENDBRANCH   1   6
BRANCH   1  21
ATOM     21  C   UNL     1      35.825 -17.917 -21.910  0.00  0.00    +0.148 C 
BRANCH  21  28
ATOM     22  N   UNL     1      34.186 -16.290 -21.172  0.00  0.00    -0.392 NA
ATOM     23  N   UNL     1      34.500 -14.804 -23.486  0.00  0.00    -0.200 NA
ATOM     24  N   UNL     1      32.928 -13.278 -22.736  0.00  0.00    -0.271 NA
ATOM     25  N   UNL     1      31.849 -13.561 -20.614  0.00  0.00    -0.310 NA
ATOM     26  N   UNL     1      32.395 -15.422 -19.265  0.00  0.00    -0.329 N 
ATOM     27  N   UNL     1      31.335 -11.728 -21.979  0.00  0.00    -0.283 N 
ATOM     28  C   UNL     1      35.036 -16.654 -22.133  0.00  0.00    +0.133 C 
ATOM     29  C   UNL     1      35.200 -15.935 -23.274  0.00  0.00    +0.193 C 
ATOM     30  C   UNL     1      33.487 -15.158 -21.385  0.00  0.00    +0.248 C 
ATOM     31  C   UNL     1      33.635 -14.398 -22.548  0.00  0.00    +0.131 C 
ATOM     32  C   UNL     1      32.578 -14.681 -20.461  0.00  0.00    +0.231 C 
ATOM     33  C   UNL     1      32.072 -12.914 -21.763  0.00  0.00    +0.207 C 
ATOM     34  H   UNL     1      31.755 -15.109 -18.585  0.00  0.00    +0.145 HD
ATOM     35  H   UNL     1      32.909 -16.248 -19.114  0.00  0.00    +0.145 HD
ATOM     36  H   UNL     1      31.462 -11.215 -22.809  0.00  0.00    +0.156 HD
ATOM     37  H   UNL     1      30.694 -11.417 -21.300  0.00  0.00    +0.156 HD
ENDBRANCH  21  28
ENDBRANCH   1  21
TORSDOF 6
ENDMDL
MODEL 3
REMARK VINA RESULT:     -11.9      1.240      2.183
REMARK  Name = 23629645
REMARK  6 active torsions:
REMARK  status: ('A' for Active; 'I' for Inactive)
REMARK    1  A    between atoms: N_1  and  C_6
REMARK    2  A    between atoms: N_1  and  C_21
REMARK    3  A    between atoms: C_3  and  C_16
REMARK    4  A    between atoms: C_11  and  C_18
REMARK    5  A    between atoms: C_18  and  O_19
REMARK    6  A    between atoms: C_21  and  C_28
REMARK                            x       y       z     vdW  Elec       q    Type
REMARK                         _______ _______ _______ _____ _____    ______ ____
ROOT
ATOM      1  N   UNL     1      35.767 -19.437 -21.962  0.00  0.00    -0.300 N 
ATOM      2  C   UNL     1      37.037 -18.767 -21.773  0.00  0.00    +0.113 C 
ENDROOT
BRANCH   1   6
ATOM      3  C   UNL     1      34.186 -21.885 -18.943  0.00  0.00    +0.054 C 
ATOM      4  C   UNL     1      35.560 -21.860 -19.166  0.00  0.00    +0.006 C 
ATOM      5  C   UNL     1      33.334 -21.103 -19.717  0.00  0.00    +0.006 C 
ATOM      6  C   UNL     1      35.235 -20.260 -20.946  0.00  0.00    +0.048 C 
ATOM      7  C   UNL     1      36.086 -21.046 -20.169  0.00  0.00    +0.015 C 
ATOM      8  C   UNL     1      33.859 -20.289 -20.721  0.00  0.00    +0.015 C 
BRANCH   3  16
ATOM      9  O   UNL     1      32.421 -22.946 -17.932  0.00  0.00    -0.270 OA
ATOM     10  N   UNL     1      34.507 -23.246 -16.921  0.00  0.00    -0.276 N 
ATOM     11  C   UNL     1      35.803 -23.200 -14.326  0.00  0.00    +0.102 C 
ATOM     12  C   UNL     1      34.319 -23.550 -14.491  0.00  0.00    +0.033 C 
ATOM     13  C   UNL     1      36.347 -22.402 -15.517  0.00  0.00    +0.033 C 
ATOM     14  C   UNL     1      33.998 -24.124 -15.870  0.00  0.00    +0.094 C 
ATOM     15  C   UNL     1      35.953 -23.005 -16.865  0.00  0.00    +0.094 C 
ATOM     16  C   UNL     1      33.633 -22.743 -17.887  0.00  0.00    +0.249 C 
BRANCH  11  18
ATOM     17  O   UNL     1      36.119 -25.535 -13.821  0.00  0.00    -0.250 OA
ATOM     18  C   UNL     1      36.606 -24.447 -14.098  0.00  0.00    +0.317 C 
BRANCH  18  19
ATOM     19  O   UNL     1      37.932 -24.169 -14.248  0.00  0.00    -0.444 OA
ATOM     20  C   UNL     1      38.810 -25.296 -14.166  0.00  0.00    +0.256 C 
ENDBRANCH  18  19
ENDBRANCH  11  18
ENDBRANCH   3  16
ENDBRANCH   1   6
BRANCH   1  21
ATOM     21  C   UNL     1      35.054 -19.263 -23.212  0.00  0.00    +0.148 C 
BRANCH  21  28
ATOM     22  N   UNL     1      34.654 -17.000 -22.440  0.00  0.00    -0.392 NA
ATOM     23  N   UNL     1      34.337 -16.085 -25.033  0.00  0.00    -0.200 NA
ATOM     24  N   UNL     1      33.960 -13.940 -24.245  0.00  0.00    -0.271 NA
ATOM     25  N   UNL     1      33.994 -13.466 -21.895  0.00  0.00    -0.310 NA
ATOM     26  N   UNL     1      34.418 -15.209 -20.358  0.00  0.00    -0.329 N 
ATOM     27  N   UNL     1      33.580 -11.764 -23.450  0.00  0.00    -0.283 N 
ATOM     28  C   UNL     1      34.757 -17.813 -23.492  0.00  0.00    +0.133 C 
ATOM     29  C   UNL     1      34.603 -17.379 -24.769  0.00  0.00    +0.193 C 
ATOM     30  C   UNL     1      34.388 -15.706 -22.705  0.00  0.00    +0.248 C 
ATOM     31  C   UNL     1      34.225 -15.230 -24.008  0.00  0.00    +0.131 C 
ATOM     32  C   UNL     1      34.260 -14.769 -21.698  0.00  0.00    +0.231 C 
ATOM     33  C   UNL     1      33.858 -13.122 -23.181  0.00  0.00    +0.207 C 
ATOM     34  H   UNL     1      34.333 -14.567 -19.616  0.00  0.00    +0.145 HD
ATOM     35  H   UNL     1      34.613 -16.155 -20.170  0.00  0.00    +0.145 HD
ATOM     36  H   UNL     1      33.470 -11.460 -24.380  0.00  0.00    +0.156 HD
ATOM     37  H   UNL     1      33.494 -11.123 -22.709  0.00  0.00    +0.156 HD
ENDBRANCH  21  28
ENDBRANCH   1  21
TORSDOF 6
ENDMDL
MODEL 4
REMARK VINA RESULT:     -10.8      3.866     10.041
REMARK  Name = 23629645
REMARK  6 active torsions:
REMARK  status: ('A' for Active; 'I' for Inactive)
REMARK    1  A    between atoms: N_1  and  C_6
REMARK    2  A    between atoms: N_1  and  C_21
REMARK    3  A    between atoms: C_3  and  C_16
REMARK    4  A    between atoms: C_11  and  C_18
REMARK    5  A    between atoms: C_18  and  O_19
REMARK    6  A    between atoms: C_21  and  C_28
REMARK                            x       y       z     vdW  Elec       q    Type
REMARK                         _______ _______ _______ _____ _____    ______ ____
ROOT
ATOM      1  N   UNL     1      35.782 -21.894 -18.949  0.00  0.00    -0.300 N 
ATOM      2  C   UNL     1      36.778 -21.798 -17.902  0.00  0.00    +0.113 C 
ENDROOT
BRANCH   1   6
ATOM      3  C   UNL     1      35.271 -18.756 -21.687  0.00  0.00    +0.054 C 
ATOM      4  C   UNL     1      36.531 -19.012 -21.154  0.00  0.00    +0.006 C 
ATOM      5  C   UNL     1      34.179 -19.535 -21.316  0.00  0.00    +0.006 C 
ATOM      6  C   UNL     1      35.610 -20.838 -19.870  0.00  0.00    +0.048 C 
ATOM      7  C   UNL     1      36.702 -20.055 -20.244  0.00  0.00    +0.015 C 
ATOM      8  C   UNL     1      34.348 -20.579 -20.405  0.00  0.00    +0.015 C 
BRANCH   3  16
ATOM      9  O   UNL     1      35.644 -17.792 -23.735  0.00  0.00    -0.270 OA
ATOM     10  N   UNL     1      34.330 -16.555 -22.248  0.00  0.00    -0.276 N 
ATOM     11  C   UNL     1      34.013 -13.875 -21.184  0.00  0.00    +0.102 C 
ATOM     12  C   UNL     1      34.591 -14.135 -22.580  0.00  0.00    +0.033 C 
ATOM     13  C   UNL     1      34.129 -15.101 -20.270  0.00  0.00    +0.033 C 
ATOM     14  C   UNL     1      34.108 -15.454 -23.182  0.00  0.00    +0.094 C 
ATOM     15  C   UNL     1      33.671 -16.392 -20.948  0.00  0.00    +0.094 C 
ATOM     16  C   UNL     1      35.092 -17.656 -22.645  0.00  0.00    +0.249 C 
BRANCH  11  18
ATOM     17  O   UNL     1      32.048 -13.101 -22.344  0.00  0.00    -0.250 OA
ATOM     18  C   UNL     1      32.589 -13.413 -21.292  0.00  0.00    +0.317 C 
BRANCH  18  19
ATOM     19  O   UNL     1      32.019 -13.400 -20.053  0.00  0.00    -0.444 OA
ATOM     20  C   UNL     1      31.659 -12.108 -19.555  0.00  0.00    +0.256 C 
ENDBRANCH  18  19
ENDBRANCH  11  18
ENDBRANCH   3  16
ENDBRANCH   1   6
BRANCH   1  21
ATOM     21  C   UNL     1      34.954 -23.081 -19.032  0.00  0.00    +0.148 C 
BRANCH  21  28
ATOM     22  N   UNL     1      34.368 -23.716 -16.766  0.00  0.00    -0.392 NA
ATOM     23  N   UNL     1      31.806 -22.713 -17.061  0.00  0.00    -0.200 NA
ATOM     24  N   UNL     1      31.296 -23.340 -14.890  0.00  0.00    -0.271 NA
ATOM     25  N   UNL     1      32.926 -24.421 -13.504  0.00  0.00    -0.310 NA
ATOM     26  N   UNL     1      35.085 -24.856 -14.361  0.00  0.00    -0.329 N 
ATOM     27  N   UNL     1      30.776 -23.973 -12.690  0.00  0.00    -0.283 N 
ATOM     28  C   UNL     1      33.959 -23.152 -17.903  0.00  0.00    +0.133 C 
ATOM     29  C   UNL     1      32.705 -22.656 -18.062  0.00  0.00    +0.193 C 
ATOM     30  C   UNL     1      33.468 -23.772 -15.765  0.00  0.00    +0.248 C 
ATOM     31  C   UNL     1      32.172 -23.271 -15.900  0.00  0.00    +0.131 C 
ATOM     32  C   UNL     1      33.777 -24.333 -14.541  0.00  0.00    +0.231 C 
ATOM     33  C   UNL     1      31.714 -23.910 -13.745  0.00  0.00    +0.207 C 
ATOM     34  H   UNL     1      35.337 -25.263 -13.500  0.00  0.00    +0.145 HD
ATOM     35  H   UNL     1      35.738 -24.811 -15.095  0.00  0.00    +0.145 HD
ATOM     36  H   UNL     1      29.870 -23.610 -12.817  0.00  0.00    +0.156 HD
ATOM     37  H   UNL     1      31.029 -24.380 -11.831  0.00  0.00    +0.156 HD
ENDBRANCH  21  28
ENDBRANCH   1  21
TORSDOF 6
ENDMDL
MODEL 5
REMARK VINA RESULT:     -10.7      3.596     10.805
REMARK  Name = 23629645
REMARK  6 active torsions:
REMARK  status: ('A' for Active; 'I' for Inactive)
REMARK    1  A    between atoms: N_1  and  C_6
REMARK    2  A    between atoms: N_1  and  C_21
REMARK    3  A    between atoms: C_3  and  C_16
REMARK    4  A    between atoms: C_11  and  C_18
REMARK    5  A    between atoms: C_18  and  O_19
REMARK    6  A    between atoms: C_21  and  C_28
REMARK                            x       y       z     vdW  Elec       q    Type
REMARK                         _______ _______ _______ _____ _____    ______ ____
ROOT
ATOM      1  N   UNL     1      34.408 -22.925 -17.597  0.00  0.00    -0.300 N 
ATOM      2  C   UNL     1      33.810 -24.232 -17.777  0.00  0.00    +0.113 C 
ENDROOT
BRANCH   1   6
ATOM      3  C   UNL     1      34.983 -20.381 -20.884  0.00  0.00    +0.054 C 
ATOM      4  C   UNL     1      33.692 -20.695 -20.468  0.00  0.00    +0.006 C 
ATOM      5  C   UNL     1      36.085 -20.908 -20.214  0.00  0.00    +0.006 C 
ATOM      6  C   UNL     1      34.601 -22.069 -18.702  0.00  0.00    +0.048 C 
ATOM      7  C   UNL     1      33.500 -21.541 -19.375  0.00  0.00    +0.015 C 
ATOM      8  C   UNL     1      35.894 -21.753 -19.121  0.00  0.00    +0.015 C 
BRANCH   3  16
ATOM      9  O   UNL     1      35.879 -19.935 -22.947  0.00  0.00    -0.270 OA
ATOM     10  N   UNL     1      34.592 -18.228 -22.003  0.00  0.00    -0.276 N 
ATOM     11  C   UNL     1      34.615 -15.369 -21.513  0.00  0.00    +0.102 C 
ATOM     12  C   UNL     1      35.364 -16.000 -22.692  0.00  0.00    +0.033 C 
ATOM     13  C   UNL     1      34.336 -16.380 -20.394  0.00  0.00    +0.033 C 
ATOM     14  C   UNL     1      34.748 -17.326 -23.140  0.00  0.00    +0.094 C 
ATOM     15  C   UNL     1      33.763 -17.697 -20.914  0.00  0.00    +0.094 C 
ATOM     16  C   UNL     1      35.185 -19.492 -22.035  0.00  0.00    +0.249 C 
BRANCH  11  18
ATOM     17  O   UNL     1      33.148 -14.375 -23.145  0.00  0.00    -0.250 OA
ATOM     18  C   UNL     1      33.346 -14.726 -21.990  0.00  0.00    +0.317 C 
BRANCH  18  19
ATOM     19  O   UNL     1      32.477 -14.603 -20.947  0.00  0.00    -0.444 OA
ATOM     20  C   UNL     1      32.222 -13.262 -20.514  0.00  0.00    +0.256 C 
ENDBRANCH  18  19
ENDBRANCH  11  18
ENDBRANCH   3  16
ENDBRANCH   1   6
BRANCH   1  21
ATOM     21  C   UNL     1      34.817 -22.512 -16.269  0.00  0.00    +0.148 C 
BRANCH  21  28
ATOM     22  N   UNL     1      36.002 -24.446 -15.412  0.00  0.00    -0.392 NA
ATOM     23  N   UNL     1      38.423 -23.109 -15.512  0.00  0.00    -0.200 NA
ATOM     24  N   UNL     1      39.508 -24.983 -14.691  0.00  0.00    -0.271 NA
ATOM     25  N   UNL     1      38.292 -26.985 -14.176  0.00  0.00    -0.310 NA
ATOM     26  N   UNL     1      35.954 -27.051 -14.510  0.00  0.00    -0.329 N 
ATOM     27  N   UNL     1      40.611 -26.882 -13.861  0.00  0.00    -0.283 N 
ATOM     28  C   UNL     1      36.093 -23.186 -15.839  0.00  0.00    +0.133 C 
ATOM     29  C   UNL     1      37.274 -22.517 -15.893  0.00  0.00    +0.193 C 
ATOM     30  C   UNL     1      37.151 -25.037 -15.032  0.00  0.00    +0.248 C 
ATOM     31  C   UNL     1      38.380 -24.374 -15.076  0.00  0.00    +0.131 C 
ATOM     32  C   UNL     1      37.181 -26.339 -14.572  0.00  0.00    +0.231 C 
ATOM     33  C   UNL     1      39.410 -26.255 -14.262  0.00  0.00    +0.207 C 
ATOM     34  H   UNL     1      35.941 -27.981 -14.187  0.00  0.00    +0.145 HD
ATOM     35  H   UNL     1      35.118 -26.615 -14.790  0.00  0.00    +0.145 HD
ATOM     36  H   UNL     1      41.461 -26.387 -13.904  0.00  0.00    +0.156 HD
ATOM     37  H   UNL     1      40.596 -27.811 -13.537  0.00  0.00    +0.156 HD
ENDBRANCH  21  28
ENDBRANCH   1  21
TORSDOF 6
ENDMDL
MODEL 6
REMARK VINA RESULT:     -10.7      8.870     14.749
REMARK  Name = 23629645
REMARK  6 active torsions:
REMARK  status: ('A' for Active; 'I' for Inactive)
REMARK    1  A    between atoms: N_1  and  C_6
REMARK    2  A    between atoms: N_1  and  C_21
REMARK    3  A    between atoms: C_3  and  C_16
REMARK    4  A    between atoms: C_11  and  C_18
REMARK    5  A    between atoms: C_18  and  O_19
REMARK    6  A    between atoms: C_21  and  C_28
REMARK                            x       y       z     vdW  Elec       q    Type
REMARK                         _______ _______ _______ _____ _____    ______ ____
ROOT
ATOM      1  N   UNL     1      31.687 -10.116 -20.364  0.00  0.00    -0.300 N 
ATOM      2  C   UNL     1      32.518 -10.256 -19.186  0.00  0.00    +0.113 C 
ENDROOT
BRANCH   1   6
ATOM      3  C   UNL     1      31.421  -6.430 -22.352  0.00  0.00    +0.054 C 
ATOM      4  C   UNL     1      31.837  -6.473 -21.024  0.00  0.00    +0.006 C 
ATOM      5  C   UNL     1      31.092  -7.605 -23.024  0.00  0.00    +0.006 C 
ATOM      6  C   UNL     1      31.598  -8.876 -21.033  0.00  0.00    +0.048 C 
ATOM      7  C   UNL     1      31.926  -7.698 -20.363  0.00  0.00    +0.015 C 
ATOM      8  C   UNL     1      31.181  -8.830 -22.363  0.00  0.00    +0.015 C 
BRANCH   3  16
ATOM      9  O   UNL     1      30.340  -4.455 -22.787  0.00  0.00    -0.270 OA
ATOM     10  N   UNL     1      32.342  -4.799 -23.944  0.00  0.00    -0.276 N 
ATOM     11  C   UNL     1      33.494  -4.608 -26.599  0.00  0.00    +0.102 C 
ATOM     12  C   UNL     1      32.331  -3.717 -26.149  0.00  0.00    +0.033 C 
ATOM     13  C   UNL     1      33.606  -5.885 -25.757  0.00  0.00    +0.033 C 
ATOM     14  C   UNL     1      32.296  -3.513 -24.635  0.00  0.00    +0.094 C 
ATOM     15  C   UNL     1      33.520  -5.616 -24.256  0.00  0.00    +0.094 C 
ATOM     16  C   UNL     1      31.327  -5.140 -23.048  0.00  0.00    +0.249 C 
BRANCH  11  18
ATOM     17  O   UNL     1      34.842  -2.611 -26.607  0.00  0.00    -0.250 OA
ATOM     18  C   UNL     1      34.779  -3.833 -26.579  0.00  0.00    +0.317 C 
BRANCH  18  19
ATOM     19  O   UNL     1      35.833  -4.696 -26.527  0.00  0.00    -0.444 OA
ATOM     20  C   UNL     1      36.656  -4.734 -27.697  0.00  0.00    +0.256 C 
ENDBRANCH  18  19
ENDBRANCH  11  18
ENDBRANCH   3  16
ENDBRANCH   1   6
BRANCH   1  21
ATOM     21  C   UNL     1      30.937 -11.261 -20.841  0.00  0.00    +0.148 C 
BRANCH  21  28
ATOM     22  N   UNL     1      32.493 -12.570 -22.162  0.00  0.00    -0.392 NA
ATOM     23  N   UNL     1      32.673 -14.500 -20.186  0.00  0.00    -0.200 NA
ATOM     24  N   UNL     1      34.157 -15.713 -21.487  0.00  0.00    -0.271 NA
ATOM     25  N   UNL     1      34.821 -14.931 -23.654  0.00  0.00    -0.310 NA
ATOM     26  N   UNL     1      33.953 -12.894 -24.478  0.00  0.00    -0.329 N 
ATOM     27  N   UNL     1      35.661 -16.945 -22.802  0.00  0.00    -0.283 N 
ATOM     28  C   UNL     1      31.815 -12.472 -21.018  0.00  0.00    +0.133 C 
ATOM     29  C   UNL     1      31.892 -13.412 -20.040  0.00  0.00    +0.193 C 
ATOM     30  C   UNL     1      33.274 -13.658 -22.306  0.00  0.00    +0.248 C 
ATOM     31  C   UNL     1      33.374 -14.640 -21.319  0.00  0.00    +0.131 C 
ATOM     32  C   UNL     1      34.025 -13.868 -23.447  0.00  0.00    +0.231 C 
ATOM     33  C   UNL     1      34.840 -15.807 -22.642  0.00  0.00    +0.207 C 
ATOM     34  H   UNL     1      34.475 -13.013 -25.304  0.00  0.00    +0.145 HD
ATOM     35  H   UNL     1      33.382 -12.101 -24.367  0.00  0.00    +0.145 HD
ATOM     36  H   UNL     1      35.710 -17.619 -22.087  0.00  0.00    +0.156 HD
ATOM     37  H   UNL     1      36.182 -17.064 -23.628  0.00  0.00    +0.156 HD
ENDBRANCH  21  28
ENDBRANCH   1  21
TORSDOF 6
ENDMDL
MODEL 7
REMARK VINA RESULT:     -10.7      8.839     15.147
REMARK  Name = 23629645
REMARK  6 active torsions:
REMARK  status: ('A' for Active; 'I' for Inactive)
REMARK    1  A    between atoms: N_1  and  C_6
REMARK    2  A    between atoms: N_1  and  C_21
REMARK    3  A    between atoms: C_3  and  C_16
REMARK    4  A    between atoms: C_11  and  C_18
REMARK    5  A    between atoms: C_18  and  O_19
REMARK    6  A    between atoms: C_21  and  C_28
REMARK                            x       y       z     vdW  Elec       q    Type
REMARK                         _______ _______ _______ _____ _____    ______ ____
ROOT
ATOM      1  N   UNL     1      31.662  -9.827 -20.682  0.00  0.00    -0.300 N 
ATOM      2  C   UNL     1      32.386  -9.964 -19.434  0.00  0.00    +0.113 C 
ENDROOT
BRANCH   1   6
ATOM      3  C   UNL     1      31.372  -6.091 -22.570  0.00  0.00    +0.054 C 
ATOM      4  C   UNL     1      31.880  -6.176 -21.276  0.00  0.00    +0.006 C 
ATOM      5  C   UNL     1      30.960  -7.240 -23.240  0.00  0.00    +0.006 C 
ATOM      6  C   UNL     1      31.565  -8.570 -21.317  0.00  0.00    +0.048 C 
ATOM      7  C   UNL     1      31.977  -7.418 -20.648  0.00  0.00    +0.015 C 
ATOM      8  C   UNL     1      31.056  -8.482 -22.613  0.00  0.00    +0.015 C 
BRANCH   3  16
ATOM      9  O   UNL     1      30.297  -4.096 -22.925  0.00  0.00    -0.270 OA
ATOM     10  N   UNL     1      32.261  -4.429 -24.148  0.00  0.00    -0.276 N 
ATOM     11  C   UNL     1      33.337  -4.182 -26.830  0.00  0.00    +0.102 C 
ATOM     12  C   UNL     1      32.196  -3.293 -26.325  0.00  0.00    +0.033 C 
ATOM     13  C   UNL     1      33.462  -5.481 -26.024  0.00  0.00    +0.033 C 
ATOM     14  C   UNL     1      32.207  -3.126 -24.805  0.00  0.00    +0.094 C 
ATOM     15  C   UNL     1      33.422  -5.248 -24.514  0.00  0.00    +0.094 C 
ATOM     16  C   UNL     1      31.270  -4.783 -23.230  0.00  0.00    +0.249 C 
BRANCH  11  18
ATOM     17  O   UNL     1      34.704  -2.200 -26.753  0.00  0.00    -0.250 OA
ATOM     18  C   UNL     1      34.629  -3.418 -26.829  0.00  0.00    +0.317 C 
BRANCH  18  19
ATOM     19  O   UNL     1      35.674  -4.289 -26.925  0.00  0.00    -0.444 OA
ATOM     20  C   UNL     1      36.276  -4.387 -28.220  0.00  0.00    +0.256 C 
ENDBRANCH  18  19
ENDBRANCH  11  18
ENDBRANCH   3  16
ENDBRANCH   1   6
BRANCH   1  21
ATOM     21  C   UNL     1      31.028 -10.993 -21.263  0.00  0.00    +0.148 C 
BRANCH  21  28
ATOM     22  N   UNL     1      32.130 -13.144 -21.064  0.00  0.00    -0.392 NA
ATOM     23  N   UNL     1      33.720 -12.624 -23.269  0.00  0.00    -0.200 NA
ATOM     24  N   UNL     1      34.743 -14.689 -23.035  0.00  0.00    -0.271 NA
ATOM     25  N   UNL     1      34.111 -16.185 -21.272  0.00  0.00    -0.310 NA
ATOM     26  N   UNL     1      32.422 -15.549 -19.748  0.00  0.00    -0.329 N 
ATOM     27  N   UNL     1      35.781 -16.781 -22.802  0.00  0.00    -0.283 N 
ATOM     28  C   UNL     1      32.038 -12.001 -21.745  0.00  0.00    +0.133 C 
ATOM     29  C   UNL     1      32.813 -11.732 -22.828  0.00  0.00    +0.193 C 
ATOM     30  C   UNL     1      33.038 -14.035 -21.506  0.00  0.00    +0.248 C 
ATOM     31  C   UNL     1      33.848 -13.787 -22.616  0.00  0.00    +0.131 C 
ATOM     32  C   UNL     1      33.223 -15.254 -20.882  0.00  0.00    +0.231 C 
ATOM     33  C   UNL     1      34.832 -15.841 -22.345  0.00  0.00    +0.207 C 
ATOM     34  H   UNL     1      32.528 -16.409 -19.281  0.00  0.00    +0.145 HD
ATOM     35  H   UNL     1      31.759 -14.894 -19.430  0.00  0.00    +0.145 HD
ATOM     36  H   UNL     1      36.337 -16.576 -23.589  0.00  0.00    +0.156 HD
ATOM     37  H   UNL     1      35.888 -17.640 -22.334  0.00  0.00    +0.156 HD
ENDBRANCH  21  28
ENDBRANCH   1  21
TORSDOF 6
ENDMDL
MODEL 8
REMARK VINA RESULT:     -10.4      3.777     10.918
REMARK  Name = 23629645
REMARK  6 active torsions:
REMARK  status: ('A' for Active; 'I' for Inactive)
REMARK    1  A    between atoms: N_1  and  C_6
REMARK    2  A    between atoms: N_1  and  C_21
REMARK    3  A    between atoms: C_3  and  C_16
REMARK    4  A    between atoms: C_11  and  C_18
REMARK    5  A    between atoms: C_18  and  O_19
REMARK    6  A    between atoms: C_21  and  C_28
REMARK                            x       y       z     vdW  Elec       q    Type
REMARK                         _______ _______ _______ _____ _____    ______ ____
ROOT
ATOM      1  N   UNL     1      35.883 -22.003 -18.258  0.00  0.00    -0.300 N 
ATOM      2  C   UNL     1      34.933 -23.078 -18.060  0.00  0.00    +0.113 C 
ENDROOT
BRANCH   1   6
ATOM      3  C   UNL     1      35.425 -19.327 -21.458  0.00  0.00    +0.054 C 
ATOM      4  C   UNL     1      34.329 -20.053 -21.000  0.00  0.00    +0.006 C 
ATOM      5  C   UNL     1      36.673 -19.484 -20.860  0.00  0.00    +0.006 C 
ATOM      6  C   UNL     1      35.729 -21.102 -19.334  0.00  0.00    +0.048 C 
ATOM      7  C   UNL     1      34.481 -20.942 -19.936  0.00  0.00    +0.015 C 
ATOM      8  C   UNL     1      36.825 -20.374 -19.796  0.00  0.00    +0.015 C 
BRANCH   3  16
ATOM      9  O   UNL     1      35.785 -18.724 -23.642  0.00  0.00    -0.270 OA
ATOM     10  N   UNL     1      34.557 -17.209 -22.354  0.00  0.00    -0.276 N 
ATOM     11  C   UNL     1      34.368 -14.381 -21.735  0.00  0.00    +0.102 C 
ATOM     12  C   UNL     1      34.902 -14.888 -23.080  0.00  0.00    +0.033 C 
ATOM     13  C   UNL     1      34.459 -15.446 -20.636  0.00  0.00    +0.033 C 
ATOM     14  C   UNL     1      34.355 -16.266 -23.450  0.00  0.00    +0.094 C 
ATOM     15  C   UNL     1      33.936 -16.809 -21.085  0.00  0.00    +0.094 C 
ATOM     16  C   UNL     1      35.265 -18.391 -22.578  0.00  0.00    +0.249 C 
BRANCH  11  18
ATOM     17  O   UNL     1      32.463 -13.563 -22.962  0.00  0.00    -0.250 OA
ATOM     18  C   UNL     1      32.961 -13.883 -21.892  0.00  0.00    +0.317 C 
BRANCH  18  19
ATOM     19  O   UNL     1      32.351 -13.850 -20.673  0.00  0.00    -0.444 OA
ATOM     20  C   UNL     1      31.747 -12.601 -20.322  0.00  0.00    +0.256 C 
ENDBRANCH  18  19
ENDBRANCH  11  18
ENDBRANCH   3  16
ENDBRANCH   1   6
BRANCH   1  21
ATOM     21  C   UNL     1      37.002 -21.870 -17.346  0.00  0.00    +0.148 C 
BRANCH  21  28
ATOM     22  N   UNL     1      37.844 -23.585 -15.853  0.00  0.00    -0.392 NA
ATOM     23  N   UNL     1      35.567 -23.452 -14.285  0.00  0.00    -0.200 NA
ATOM     24  N   UNL     1      36.415 -25.093 -12.889  0.00  0.00    -0.271 NA
ATOM     25  N   UNL     1      38.563 -26.074 -13.302  0.00  0.00    -0.310 NA
ATOM     26  N   UNL     1      39.836 -25.359 -15.160  0.00  0.00    -0.329 N 
ATOM     27  N   UNL     1      37.272 -26.756 -11.471  0.00  0.00    -0.283 N 
ATOM     28  C   UNL     1      36.844 -22.748 -16.133  0.00  0.00    +0.133 C 
ATOM     29  C   UNL     1      35.721 -22.672 -15.373  0.00  0.00    +0.193 C 
ATOM     30  C   UNL     1      37.689 -24.364 -14.765  0.00  0.00    +0.248 C 
ATOM     31  C   UNL     1      36.545 -24.308 -13.965  0.00  0.00    +0.131 C 
ATOM     32  C   UNL     1      38.657 -25.269 -14.375  0.00  0.00    +0.231 C 
ATOM     33  C   UNL     1      37.427 -25.936 -12.610  0.00  0.00    +0.207 C 
ATOM     34  H   UNL     1      40.546 -25.994 -14.909  0.00  0.00    +0.145 HD
ATOM     35  H   UNL     1      39.945 -24.787 -15.953  0.00  0.00    +0.145 HD
ATOM     36  H   UNL     1      36.454 -26.692 -10.927  0.00  0.00    +0.156 HD
ATOM     37  H   UNL     1      37.982 -27.391 -11.222  0.00  0.00    +0.156 HD
ENDBRANCH  21  28
ENDBRANCH   1  21
TORSDOF 6
ENDMDL
MODEL 9
REMARK VINA RESULT:     -10.4      3.701     10.088
REMARK  Name = 23629645
REMARK  6 active torsions:
REMARK  status: ('A' for Active; 'I' for Inactive)
REMARK    1  A    between atoms: N_1  and  C_6
REMARK    2  A    between atoms: N_1  and  C_21
REMARK    3  A    between atoms: C_3  and  C_16
REMARK    4  A    between atoms: C_11  and  C_18
REMARK    5  A    between atoms: C_18  and  O_19
REMARK    6  A    between atoms: C_21  and  C_28
REMARK                            x       y       z     vdW  Elec       q    Type
REMARK                         _______ _______ _______ _____ _____    ______ ____
ROOT
ATOM      1  N   UNL     1      34.936 -22.531 -18.711  0.00  0.00    -0.300 N 
ATOM      2  C   UNL     1      34.222 -23.731 -19.100  0.00  0.00    +0.113 C 
ENDROOT
BRANCH   1   6
ATOM      3  C   UNL     1      35.142 -19.244 -21.310  0.00  0.00    +0.054 C 
ATOM      4  C   UNL     1      33.909 -19.823 -21.022  0.00  0.00    +0.006 C 
ATOM      5  C   UNL     1      36.307 -19.751 -20.741  0.00  0.00    +0.006 C 
ATOM      6  C   UNL     1      35.005 -21.426 -19.585  0.00  0.00    +0.048 C 
ATOM      7  C   UNL     1      33.840 -20.916 -20.158  0.00  0.00    +0.015 C 
ATOM      8  C   UNL     1      36.239 -20.844 -19.877  0.00  0.00    +0.015 C 
BRANCH   3  16
ATOM      9  O   UNL     1      35.969 -18.212 -23.185  0.00  0.00    -0.270 OA
ATOM     10  N   UNL     1      34.443 -16.969 -21.924  0.00  0.00    -0.276 N 
ATOM     11  C   UNL     1      34.047 -14.325 -20.796  0.00  0.00    +0.102 C 
ATOM     12  C   UNL     1      34.883 -14.556 -22.060  0.00  0.00    +0.033 C 
ATOM     13  C   UNL     1      33.916 -15.596 -19.948  0.00  0.00    +0.033 C 
ATOM     14  C   UNL     1      34.469 -15.816 -22.820  0.00  0.00    +0.094 C 
ATOM     15  C   UNL     1      33.543 -16.826 -20.774  0.00  0.00    +0.094 C 
ATOM     16  C   UNL     1      35.215 -18.094 -22.221  0.00  0.00    +0.249 C 
BRANCH  11  18
ATOM     17  O   UNL     1      32.339 -13.549 -22.307  0.00  0.00    -0.250 OA
ATOM     18  C   UNL     1      32.699 -13.776 -21.161  0.00  0.00    +0.317 C 
BRANCH  18  19
ATOM     19  O   UNL     1      31.966 -13.579 -20.028  0.00  0.00    -0.444 OA
ATOM     20  C   UNL     1      31.636 -12.217 -19.738  0.00  0.00    +0.256 C 
ENDBRANCH  18  19
ENDBRANCH  11  18
ENDBRANCH   3  16
ENDBRANCH   1   6
BRANCH   1  21
ATOM     21  C   UNL     1      35.589 -22.486 -17.418  0.00  0.00    +0.148 C 
BRANCH  21  28
ATOM     22  N   UNL     1      33.433 -23.054 -16.465  0.00  0.00    -0.392 NA
ATOM     23  N   UNL     1      34.627 -24.373 -14.345  0.00  0.00    -0.200 NA
ATOM     24  N   UNL     1      32.544 -24.889 -13.475  0.00  0.00    -0.271 NA
ATOM     25  N   UNL     1      30.537 -24.187 -14.582  0.00  0.00    -0.310 NA
ATOM     26  N   UNL     1      30.681 -22.951 -16.591  0.00  0.00    -0.329 N 
ATOM     27  N   UNL     1      30.434 -25.415 -12.591  0.00  0.00    -0.283 N 
ATOM     28  C   UNL     1      34.759 -23.140 -16.346  0.00  0.00    +0.133 C 
ATOM     29  C   UNL     1      35.358 -23.783 -15.310  0.00  0.00    +0.193 C 
ATOM     30  C   UNL     1      32.703 -23.643 -15.498  0.00  0.00    +0.248 C 
ATOM     31  C   UNL     1      33.292 -24.312 -14.423  0.00  0.00    +0.131 C 
ATOM     32  C   UNL     1      31.322 -23.621 -15.515  0.00  0.00    +0.231 C 
ATOM     33  C   UNL     1      31.207 -24.800 -13.600  0.00  0.00    +0.207 C 
ATOM     34  H   UNL     1      29.698 -22.916 -16.633  0.00  0.00    +0.145 HD
ATOM     35  H   UNL     1      31.220 -22.523 -17.294  0.00  0.00    +0.145 HD
ATOM     36  H   UNL     1      30.879 -25.879 -11.845  0.00  0.00    +0.156 HD
ATOM     37  H   UNL     1      29.452 -25.379 -12.633  0.00  0.00    +0.156 HD
ENDBRANCH  21  28
ENDBRANCH   1  21
TORSDOF 6
ENDMDL
