MODEL 1
REMARK VINA RESULT:     -12.3      0.000      0.000
REMARK  Name = 25101874
REMARK  5 active torsions:
REMARK  status: ('A' for Active; 'I' for Inactive)
REMARK    1  A    between atoms: N_1  and  C_22
REMARK    2  A    between atoms: C_2  and  N_8
REMARK    3  A    between atoms: N_8  and  C_11
REMARK    4  A    between atoms: C_11  and  C_14
REMARK    5  A    between atoms: C_22  and  C_28
REMARK                            x       y       z     vdW  Elec       q    Type
REMARK                         _______ _______ _______ _____ _____    ______ ____
ROOT
ATOM      1  N   UNL     1      34.367 -22.790 -18.952  0.00  0.00    +0.388 N 
ATOM      2  C   UNL     1      34.721 -20.214 -20.293  0.00  0.00    -0.066 C 
ATOM      3  C   UNL     1      35.680 -22.132 -18.964  0.00  0.00    -0.079 C 
ATOM      4  C   UNL     1      33.276 -21.805 -18.969  0.00  0.00    -0.079 C 
ATOM      5  C   UNL     1      35.845 -21.249 -20.204  0.00  0.00    -0.044 C 
ATOM      6  C   UNL     1      33.361 -20.911 -20.210  0.00  0.00    -0.044 C 
ATOM      7  H   UNL     1      34.292 -23.356 -19.797  0.00  0.00    -0.080 HD
ENDROOT
BRANCH   2   8
ATOM      8  N   UNL     1      34.839 -19.445 -21.529  0.00  0.00    +0.389 N 
ATOM      9  H   UNL     1      33.917 -19.104 -21.801  0.00  0.00    -0.084 HD
ATOM     10  H   UNL     1      35.222 -20.051 -22.256  0.00  0.00    -0.084 HD
BRANCH   8  11
ATOM     11  C   UNL     1      35.734 -18.311 -21.350  0.00  0.00    -0.034 C 
BRANCH  11  14
ATOM     12  O   UNL     1      33.273 -13.450 -22.617  0.00  0.00    -0.474 OA
ATOM     13  N   UNL     1      35.360 -16.405 -22.813  0.00  0.00    -0.247 NA
ATOM     14  C   UNL     1      35.048 -17.003 -21.642  0.00  0.00    +0.037 C 
ATOM     15  C   UNL     1      34.152 -16.486 -20.719  0.00  0.00    +0.011 C 
ATOM     16  C   UNL     1      33.533 -15.268 -21.008  0.00  0.00    +0.015 C 
ATOM     17  C   UNL     1      32.557 -14.666 -20.040  0.00  0.00    +0.033 C 
ATOM     18  C   UNL     1      33.818 -14.639 -22.222  0.00  0.00    +0.154 C 
ATOM     19  C   UNL     1      32.327 -13.196 -20.369  0.00  0.00    +0.052 C 
ATOM     20  C   UNL     1      34.737 -15.234 -23.074  0.00  0.00    +0.135 C 
ATOM     21  C   UNL     1      32.121 -13.043 -21.869  0.00  0.00    +0.206 C 
ENDBRANCH  11  14
ENDBRANCH   8  11
ENDBRANCH   2   8
BRANCH   1  22
ATOM     22  C   UNL     1      34.245 -23.668 -17.788  0.00  0.00    -0.055 C 
BRANCH  22  28
ATOM     23  O   UNL     1      31.362 -23.157 -16.071  0.00  0.00    -0.273 OA
ATOM     24  O   UNL     1      37.908 -23.882 -13.943  0.00  0.00    -0.270 OA
ATOM     25  N   UNL     1      33.581 -23.453 -15.406  0.00  0.00    -0.261 N 
ATOM     26  N   UNL     1      35.710 -23.687 -14.660  0.00  0.00    -0.255 N 
ATOM     27  N   UNL     1      32.575 -24.664 -13.085  0.00  0.00    -0.262 NA
ATOM     28  C   UNL     1      34.403 -22.883 -16.492  0.00  0.00    +0.076 C 
ATOM     29  C   UNL     1      35.851 -22.972 -15.936  0.00  0.00    +0.113 C 
ATOM     30  C   UNL     1      34.388 -23.905 -14.414  0.00  0.00    +0.196 C 
ATOM     31  C   UNL     1      33.915 -24.483 -13.313  0.00  0.00    +0.092 C 
ATOM     32  C   UNL     1      32.218 -23.541 -15.290  0.00  0.00    +0.252 C 
ATOM     33  C   UNL     1      36.705 -24.062 -13.778  0.00  0.00    +0.251 C 
ATOM     34  C   UNL     1      34.881 -24.923 -12.330  0.00  0.00    +0.022 C 
ATOM     35  C   UNL     1      31.770 -24.221 -14.007  0.00  0.00    +0.210 C 
ATOM     36  C   UNL     1      36.199 -24.739 -12.529  0.00  0.00    +0.059 C 
ENDBRANCH  22  28
ENDBRANCH   1  22
TORSDOF 5
ENDMDL
MODEL 2
REMARK VINA RESULT:     -12.1      1.009      1.653
REMARK  Name = 25101874
REMARK  5 active torsions:
REMARK  status: ('A' for Active; 'I' for Inactive)
REMARK    1  A    between atoms: N_1  and  C_22
REMARK    2  A    between atoms: C_2  and  N_8
REMARK    3  A    between atoms: N_8  and  C_11
REMARK    4  A    between atoms: C_11  and  C_14
REMARK    5  A    between atoms: C_22  and  C_28
REMARK                            x       y       z     vdW  Elec       q    Type
REMARK                         _______ _______ _______ _____ _____    ______ ____
ROOT
ATOM      1  N   UNL     1      34.293 -23.038 -18.736  0.00  0.00    +0.388 N 
ATOM      2  C   UNL     1      34.584 -20.506 -20.173  0.00  0.00    -0.066 C 
ATOM      3  C   UNL     1      35.604 -22.381 -18.828  0.00  0.00    -0.079 C 
ATOM      4  C   UNL     1      33.202 -22.052 -18.736  0.00  0.00    -0.079 C 
ATOM      5  C   UNL     1      35.712 -21.538 -20.102  0.00  0.00    -0.044 C 
ATOM      6  C   UNL     1      33.229 -21.199 -20.007  0.00  0.00    -0.044 C 
ATOM      7  H   UNL     1      34.181 -23.630 -19.558  0.00  0.00    -0.080 HD
ENDROOT
BRANCH   2   8
ATOM      8  N   UNL     1      34.645 -19.776 -21.438  0.00  0.00    +0.389 N 
ATOM      9  H   UNL     1      33.734 -19.359 -21.628  0.00  0.00    -0.084 HD
ATOM     10  H   UNL     1      34.899 -20.430 -22.179  0.00  0.00    -0.084 HD
BRANCH   8  11
ATOM     11  C   UNL     1      35.650 -18.725 -21.380  0.00  0.00    -0.034 C 
BRANCH  11  14
ATOM     12  O   UNL     1      33.640 -13.748 -22.954  0.00  0.00    -0.474 OA
ATOM     13  N   UNL     1      34.837 -16.484 -20.903  0.00  0.00    -0.247 NA
ATOM     14  C   UNL     1      35.106 -17.403 -21.855  0.00  0.00    +0.037 C 
ATOM     15  C   UNL     1      34.912 -17.198 -23.212  0.00  0.00    +0.011 C 
ATOM     16  C   UNL     1      34.401 -15.967 -23.628  0.00  0.00    +0.015 C 
ATOM     17  C   UNL     1      34.171 -15.696 -25.087  0.00  0.00    +0.033 C 
ATOM     18  C   UNL     1      34.137 -14.988 -22.669  0.00  0.00    +0.154 C 
ATOM     19  C   UNL     1      33.263 -14.486 -25.261  0.00  0.00    +0.052 C 
ATOM     20  C   UNL     1      34.356 -15.296 -21.334  0.00  0.00    +0.135 C 
ATOM     21  C   UNL     1      33.727 -13.372 -24.334  0.00  0.00    +0.206 C 
ENDBRANCH  11  14
ENDBRANCH   8  11
ENDBRANCH   2   8
BRANCH   1  22
ATOM     22  C   UNL     1      34.225 -23.878 -17.541  0.00  0.00    -0.055 C 
BRANCH  22  28
ATOM     23  O   UNL     1      31.400 -23.254 -15.764  0.00  0.00    -0.273 OA
ATOM     24  O   UNL     1      37.990 -24.021 -13.792  0.00  0.00    -0.270 OA
ATOM     25  N   UNL     1      33.632 -23.567 -15.150  0.00  0.00    -0.261 N 
ATOM     26  N   UNL     1      35.776 -23.813 -14.455  0.00  0.00    -0.255 N 
ATOM     27  N   UNL     1      32.671 -24.677 -12.761  0.00  0.00    -0.262 NA
ATOM     28  C   UNL     1      34.432 -23.050 -16.278  0.00  0.00    +0.076 C 
ATOM     29  C   UNL     1      35.893 -23.145 -15.760  0.00  0.00    +0.113 C 
ATOM     30  C   UNL     1      34.458 -23.998 -14.165  0.00  0.00    +0.196 C 
ATOM     31  C   UNL     1      34.007 -24.528 -13.032  0.00  0.00    +0.092 C 
ATOM     32  C   UNL     1      32.271 -23.627 -14.994  0.00  0.00    +0.252 C 
ATOM     33  C   UNL     1      36.789 -24.174 -13.588  0.00  0.00    +0.251 C 
ATOM     34  C   UNL     1      34.992 -24.951 -12.061  0.00  0.00    +0.022 C 
ATOM     35  C   UNL     1      31.848 -24.253 -13.675  0.00  0.00    +0.210 C 
ATOM     36  C   UNL     1      36.307 -24.797 -12.302  0.00  0.00    +0.059 C 
ENDBRANCH  22  28
ENDBRANCH   1  22
TORSDOF 5
ENDMDL
MODEL 3
REMARK VINA RESULT:     -11.9      1.418      2.106
REMARK  Name = 25101874
REMARK  5 active torsions:
REMARK  status: ('A' for Active; 'I' for Inactive)
REMARK    1  A    between atoms: N_1  and  C_22
REMARK    2  A    between atoms: C_2  and  N_8
REMARK    3  A    between atoms: N_8  and  C_11
REMARK    4  A    between atoms: C_11  and  C_14
REMARK    5  A    between atoms: C_22  and  C_28
REMARK                            x       y       z     vdW  Elec       q    Type
REMARK                         _______ _______ _______ _____ _____    ______ ____
ROOT
ATOM      1  N   UNL     1      35.365 -22.281 -17.691  0.00  0.00    +0.388 N 
ATOM      2  C   UNL     1      34.950 -21.252 -20.398  0.00  0.00    -0.066 C 
ATOM      3  C   UNL     1      34.190 -22.692 -18.472  0.00  0.00    -0.079 C 
ATOM      4  C   UNL     1      36.513 -22.001 -18.564  0.00  0.00    -0.079 C 
ATOM      5  C   UNL     1      33.784 -21.607 -19.472  0.00  0.00    -0.044 C 
ATOM      6  C   UNL     1      36.185 -20.893 -19.568  0.00  0.00    -0.044 C 
ATOM      7  H   UNL     1      35.128 -21.421 -17.198  0.00  0.00    -0.080 HD
ENDROOT
BRANCH   2   8
ATOM      8  N   UNL     1      34.576 -20.150 -21.282  0.00  0.00    +0.389 N 
ATOM      9  H   UNL     1      33.773 -19.661 -20.886  0.00  0.00    -0.084 HD
ATOM     10  H   UNL     1      34.343 -20.531 -22.199  0.00  0.00    -0.084 HD
BRANCH   8  11
ATOM     11  C   UNL     1      35.678 -19.212 -21.433  0.00  0.00    -0.034 C 
BRANCH  11  14
ATOM     12  O   UNL     1      33.884 -13.993 -22.345  0.00  0.00    -0.474 OA
ATOM     13  N   UNL     1      34.962 -17.018 -20.668  0.00  0.00    -0.247 NA
ATOM     14  C   UNL     1      35.192 -17.818 -21.732  0.00  0.00    +0.037 C 
ATOM     15  C   UNL     1      35.007 -17.432 -23.050  0.00  0.00    +0.011 C 
ATOM     16  C   UNL     1      34.550 -16.137 -23.302  0.00  0.00    +0.015 C 
ATOM     17  C   UNL     1      34.332 -15.672 -24.713  0.00  0.00    +0.033 C 
ATOM     18  C   UNL     1      34.327 -15.279 -22.224  0.00  0.00    +0.154 C 
ATOM     19  C   UNL     1      33.477 -14.412 -24.726  0.00  0.00    +0.052 C 
ATOM     20  C   UNL     1      34.532 -15.766 -20.940  0.00  0.00    +0.135 C 
ATOM     21  C   UNL     1      33.987 -13.447 -23.666  0.00  0.00    +0.206 C 
ENDBRANCH  11  14
ENDBRANCH   8  11
ENDBRANCH   2   8
BRANCH   1  22
ATOM     22  C   UNL     1      35.708 -23.306 -16.706  0.00  0.00    -0.055 C 
BRANCH  22  28
ATOM     23  O   UNL     1      32.621 -22.964 -15.338  0.00  0.00    -0.273 OA
ATOM     24  O   UNL     1      38.795 -24.231 -12.478  0.00  0.00    -0.270 OA
ATOM     25  N   UNL     1      34.721 -23.434 -14.432  0.00  0.00    -0.261 N 
ATOM     26  N   UNL     1      36.721 -23.853 -13.449  0.00  0.00    -0.255 N 
ATOM     27  N   UNL     1      33.385 -24.950 -12.487  0.00  0.00    -0.262 NA
ATOM     28  C   UNL     1      35.694 -22.734 -15.293  0.00  0.00    +0.076 C 
ATOM     29  C   UNL     1      37.048 -22.957 -14.567  0.00  0.00    +0.113 C 
ATOM     30  C   UNL     1      35.375 -24.060 -13.422  0.00  0.00    +0.196 C 
ATOM     31  C   UNL     1      34.746 -24.783 -12.500  0.00  0.00    +0.092 C 
ATOM     32  C   UNL     1      33.354 -23.492 -14.518  0.00  0.00    +0.252 C 
ATOM     33  C   UNL     1      37.578 -24.393 -12.509  0.00  0.00    +0.251 C 
ATOM     34  C   UNL     1      35.558 -25.401 -11.475  0.00  0.00    +0.022 C 
ATOM     35  C   UNL     1      32.722 -24.344 -13.429  0.00  0.00    +0.210 C 
ATOM     36  C   UNL     1      36.894 -25.235 -11.461  0.00  0.00    +0.059 C 
ENDBRANCH  22  28
ENDBRANCH   1  22
TORSDOF 5
ENDMDL
MODEL 4
REMARK VINA RESULT:     -11.8      1.475      3.330
REMARK  Name = 25101874
REMARK  5 active torsions:
REMARK  status: ('A' for Active; 'I' for Inactive)
REMARK    1  A    between atoms: N_1  and  C_22
REMARK    2  A    between atoms: C_2  and  N_8
REMARK    3  A    between atoms: N_8  and  C_11
REMARK    4  A    between atoms: C_11  and  C_14
REMARK    5  A    between atoms: C_22  and  C_28
REMARK                            x       y       z     vdW  Elec       q    Type
REMARK                         _______ _______ _______ _____ _____    ______ ____
ROOT
ATOM      1  N   UNL     1      35.030 -22.354 -18.469  0.00  0.00    +0.388 N 
ATOM      2  C   UNL     1      34.889 -20.344 -20.592  0.00  0.00    -0.066 C 
ATOM      3  C   UNL     1      36.215 -21.559 -18.822  0.00  0.00    -0.079 C 
ATOM      4  C   UNL     1      33.793 -21.593 -18.692  0.00  0.00    -0.079 C 
ATOM      5  C   UNL     1      36.171 -21.123 -20.289  0.00  0.00    -0.044 C 
ATOM      6  C   UNL     1      33.668 -21.159 -20.155  0.00  0.00    -0.044 C 
ATOM      7  H   UNL     1      35.010 -23.172 -19.077  0.00  0.00    -0.080 HD
ENDROOT
BRANCH   2   8
ATOM      8  N   UNL     1      34.818 -20.020 -22.015  0.00  0.00    +0.389 N 
ATOM      9  H   UNL     1      33.898 -19.633 -22.225  0.00  0.00    -0.084 HD
ATOM     10  H   UNL     1      34.976 -20.873 -22.552  0.00  0.00    -0.084 HD
BRANCH   8  11
ATOM     11  C   UNL     1      35.839 -19.048 -22.375  0.00  0.00    -0.034 C 
BRANCH  11  14
ATOM     12  O   UNL     1      33.689 -13.938 -23.122  0.00  0.00    -0.474 OA
ATOM     13  N   UNL     1      35.108 -16.880 -21.553  0.00  0.00    -0.247 NA
ATOM     14  C   UNL     1      35.252 -17.685 -22.628  0.00  0.00    +0.037 C 
ATOM     15  C   UNL     1      34.894 -17.330 -23.920  0.00  0.00    +0.011 C 
ATOM     16  C   UNL     1      34.346 -16.063 -24.129  0.00  0.00    +0.015 C 
ATOM     17  C   UNL     1      33.942 -15.631 -25.509  0.00  0.00    +0.033 C 
ATOM     18  C   UNL     1      34.208 -15.200 -23.040  0.00  0.00    +0.154 C 
ATOM     19  C   UNL     1      33.028 -14.415 -25.434  0.00  0.00    +0.052 C 
ATOM     20  C   UNL     1      34.587 -15.654 -21.785  0.00  0.00    +0.135 C 
ATOM     21  C   UNL     1      33.610 -13.410 -24.451  0.00  0.00    +0.206 C 
ENDBRANCH  11  14
ENDBRANCH   8  11
ENDBRANCH   2   8
BRANCH   1  22
ATOM     22  C   UNL     1      35.112 -22.804 -17.080  0.00  0.00    -0.055 C 
BRANCH  22  28
ATOM     23  O   UNL     1      36.033 -24.976 -14.640  0.00  0.00    -0.273 OA
ATOM     24  O   UNL     1      29.807 -22.810 -16.749  0.00  0.00    -0.270 OA
ATOM     25  N   UNL     1      33.961 -24.177 -15.362  0.00  0.00    -0.261 N 
ATOM     26  N   UNL     1      31.899 -23.496 -16.016  0.00  0.00    -0.255 N 
ATOM     27  N   UNL     1      33.090 -24.452 -12.710  0.00  0.00    -0.262 NA
ATOM     28  C   UNL     1      34.113 -23.922 -16.808  0.00  0.00    +0.076 C 
ATOM     29  C   UNL     1      32.678 -23.537 -17.261  0.00  0.00    +0.113 C 
ATOM     30  C   UNL     1      32.690 -23.896 -14.981  0.00  0.00    +0.196 C 
ATOM     31  C   UNL     1      32.274 -24.021 -13.724  0.00  0.00    +0.092 C 
ATOM     32  C   UNL     1      34.872 -24.649 -14.453  0.00  0.00    +0.252 C 
ATOM     33  C   UNL     1      30.568 -23.166 -15.853  0.00  0.00    +0.251 C 
ATOM     34  C   UNL     1      30.894 -23.688 -13.448  0.00  0.00    +0.022 C 
ATOM     35  C   UNL     1      34.312 -24.753 -13.044  0.00  0.00    +0.210 C 
ATOM     36  C   UNL     1      30.072 -23.280 -14.433  0.00  0.00    +0.059 C 
ENDBRANCH  22  28
ENDBRANCH   1  22
TORSDOF 5
ENDMDL
MODEL 5
REMARK VINA RESULT:     -11.7      3.515     11.562
REMARK  Name = 25101874
REMARK  5 active torsions:
REMARK  status: ('A' for Active; 'I' for Inactive)
REMARK    1  A    between atoms: N_1  and  C_22
REMARK    2  A    between atoms: C_2  and  N_8
REMARK    3  A    between atoms: N_8  and  C_11
REMARK    4  A    between atoms: C_11  and  C_14
REMARK    5  A    between atoms: C_22  and  C_28
REMARK                            x       y       z     vdW  Elec       q    Type
REMARK                         _______ _______ _______ _____ _____    ______ ____
ROOT
ATOM      1  N   UNL     1      34.096 -14.394 -22.667  0.00  0.00    +0.388 N 
ATOM      2  C   UNL     1      35.099 -17.137 -22.840  0.00  0.00    -0.066 C 
ATOM      3  C   UNL     1      34.753 -15.021 -21.512  0.00  0.00    -0.079 C 
ATOM      4  C   UNL     1      34.639 -14.909 -23.932  0.00  0.00    -0.079 C 
ATOM      5  C   UNL     1      34.573 -16.541 -21.532  0.00  0.00    -0.044 C 
ATOM      6  C   UNL     1      34.455 -16.425 -24.034  0.00  0.00    -0.044 C 
ATOM      7  H   UNL     1      33.106 -14.630 -22.631  0.00  0.00    -0.080 HD
ENDROOT
BRANCH   2   8
ATOM      8  N   UNL     1      34.833 -18.573 -22.884  0.00  0.00    +0.389 N 
ATOM      9  H   UNL     1      34.974 -18.911 -23.836  0.00  0.00    -0.084 HD
ATOM     10  H   UNL     1      33.870 -18.736 -22.588  0.00  0.00    -0.084 HD
BRANCH   8  11
ATOM     11  C   UNL     1      35.724 -19.291 -21.985  0.00  0.00    -0.034 C 
BRANCH  11  14
ATOM     12  O   UNL     1      32.730 -22.390 -18.419  0.00  0.00    -0.474 OA
ATOM     13  N   UNL     1      33.616 -20.096 -21.078  0.00  0.00    -0.247 NA
ATOM     14  C   UNL     1      34.964 -20.140 -21.000  0.00  0.00    +0.037 C 
ATOM     15  C   UNL     1      35.666 -20.906 -20.083  0.00  0.00    +0.011 C 
ATOM     16  C   UNL     1      34.940 -21.681 -19.176  0.00  0.00    +0.015 C 
ATOM     17  C   UNL     1      35.653 -22.527 -18.161  0.00  0.00    +0.033 C 
ATOM     18  C   UNL     1      33.545 -21.674 -19.248  0.00  0.00    +0.154 C 
ATOM     19  C   UNL     1      34.691 -22.950 -17.058  0.00  0.00    +0.052 C 
ATOM     20  C   UNL     1      32.938 -20.864 -20.197  0.00  0.00    +0.135 C 
ATOM     21  C   UNL     1      33.389 -23.428 -17.683  0.00  0.00    +0.206 C 
ENDBRANCH  11  14
ENDBRANCH   8  11
ENDBRANCH   2   8
BRANCH   1  22
ATOM     22  C   UNL     1      34.234 -12.939 -22.606  0.00  0.00    -0.055 C 
BRANCH  22  28
ATOM     23  O   UNL     1      31.935 -13.969 -20.331  0.00  0.00    -0.273 OA
ATOM     24  O   UNL     1      32.875  -7.874 -23.473  0.00  0.00    -0.270 OA
ATOM     25  N   UNL     1      32.326 -11.922 -21.386  0.00  0.00    -0.261 N 
ATOM     26  N   UNL     1      32.595  -9.906 -22.388  0.00  0.00    -0.255 N 
ATOM     27  N   UNL     1      31.357 -10.698 -19.056  0.00  0.00    -0.262 NA
ATOM     28  C   UNL     1      32.875 -12.256 -22.715  0.00  0.00    +0.076 C 
ATOM     29  C   UNL     1      32.978 -10.877 -23.422  0.00  0.00    +0.113 C 
ATOM     30  C   UNL     1      32.213 -10.575 -21.265  0.00  0.00    +0.196 C 
ATOM     31  C   UNL     1      31.758  -9.991 -20.161  0.00  0.00    +0.092 C 
ATOM     32  C   UNL     1      31.929 -12.749 -20.367  0.00  0.00    +0.252 C 
ATOM     33  C   UNL     1      32.554  -8.528 -22.485  0.00  0.00    +0.251 C 
ATOM     34  C   UNL     1      31.687  -8.546 -20.158  0.00  0.00    +0.022 C 
ATOM     35  C   UNL     1      31.430 -11.994 -19.145  0.00  0.00    +0.210 C 
ATOM     36  C   UNL     1      32.060  -7.836 -21.240  0.00  0.00    +0.059 C 
ENDBRANCH  22  28
ENDBRANCH   1  22
TORSDOF 5
ENDMDL
MODEL 6
REMARK VINA RESULT:     -11.5      1.787      2.550
REMARK  Name = 25101874
REMARK  5 active torsions:
REMARK  status: ('A' for Active; 'I' for Inactive)
REMARK    1  A    between atoms: N_1  and  C_22
REMARK    2  A    between atoms: C_2  and  N_8
REMARK    3  A    between atoms: N_8  and  C_11
REMARK    4  A    between atoms: C_11  and  C_14
REMARK    5  A    between atoms: C_22  and  C_28
REMARK                            x       y       z     vdW  Elec       q    Type
REMARK                         _______ _______ _______ _____ _____    ______ ____
ROOT
ATOM      1  N   UNL     1      34.852 -22.735 -17.233  0.00  0.00    +0.388 N 
ATOM      2  C   UNL     1      34.520 -21.596 -19.907  0.00  0.00    -0.066 C 
ATOM      3  C   UNL     1      33.655 -23.039 -18.028  0.00  0.00    -0.079 C 
ATOM      4  C   UNL     1      36.021 -22.508 -18.095  0.00  0.00    -0.079 C 
ATOM      5  C   UNL     1      33.329 -21.898 -18.995  0.00  0.00    -0.044 C 
ATOM      6  C   UNL     1      35.774 -21.349 -19.064  0.00  0.00    -0.044 C 
ATOM      7  H   UNL     1      34.674 -21.876 -16.714  0.00  0.00    -0.080 HD
ENDROOT
BRANCH   2   8
ATOM      8  N   UNL     1      34.227 -20.443 -20.756  0.00  0.00    +0.389 N 
ATOM      9  H   UNL     1      33.626 -19.796 -20.246  0.00  0.00    -0.084 HD
ATOM     10  H   UNL     1      33.758 -20.771 -21.602  0.00  0.00    -0.084 HD
BRANCH   8  11
ATOM     11  C   UNL     1      35.452 -19.758 -21.139  0.00  0.00    -0.034 C 
BRANCH  11  14
ATOM     12  O   UNL     1      34.425 -15.027 -23.941  0.00  0.00    -0.474 OA
ATOM     13  N   UNL     1      35.255 -18.473 -23.194  0.00  0.00    -0.247 NA
ATOM     14  C   UNL     1      35.171 -18.458 -21.846  0.00  0.00    +0.037 C 
ATOM     15  C   UNL     1      34.848 -17.336 -21.099  0.00  0.00    +0.011 C 
ATOM     16  C   UNL     1      34.598 -16.141 -21.776  0.00  0.00    +0.015 C 
ATOM     17  C   UNL     1      34.246 -14.897 -21.012  0.00  0.00    +0.033 C 
ATOM     18  C   UNL     1      34.654 -16.132 -23.171  0.00  0.00    +0.154 C 
ATOM     19  C   UNL     1      34.410 -13.670 -21.900  0.00  0.00    +0.052 C 
ATOM     20  C   UNL     1      34.996 -17.307 -23.825  0.00  0.00    +0.135 C 
ATOM     21  C   UNL     1      33.782 -13.944 -23.258  0.00  0.00    +0.206 C 
ENDBRANCH  11  14
ENDBRANCH   8  11
ENDBRANCH   2   8
BRANCH   1  22
ATOM     22  C   UNL     1      35.120 -23.812 -16.280  0.00  0.00    -0.055 C 
BRANCH  22  28
ATOM     23  O   UNL     1      33.569 -23.591 -13.269  0.00  0.00    -0.273 OA
ATOM     24  O   UNL     1      40.143 -24.945 -14.959  0.00  0.00    -0.270 OA
ATOM     25  N   UNL     1      35.762 -24.087 -13.898  0.00  0.00    -0.261 N 
ATOM     26  N   UNL     1      37.927 -24.537 -14.402  0.00  0.00    -0.255 N 
ATOM     27  N   UNL     1      35.890 -25.732 -11.630  0.00  0.00    -0.262 NA
ATOM     28  C   UNL     1      36.005 -23.324 -15.138  0.00  0.00    +0.076 C 
ATOM     29  C   UNL     1      37.510 -23.572 -15.429  0.00  0.00    +0.113 C 
ATOM     30  C   UNL     1      36.887 -24.763 -13.552  0.00  0.00    +0.196 C 
ATOM     31  C   UNL     1      36.950 -25.547 -12.480  0.00  0.00    +0.092 C 
ATOM     32  C   UNL     1      34.639 -24.157 -13.115  0.00  0.00    +0.252 C 
ATOM     33  C   UNL     1      39.168 -25.120 -14.233  0.00  0.00    +0.251 C 
ATOM     34  C   UNL     1      38.207 -26.214 -12.222  0.00  0.00    +0.022 C 
ATOM     35  C   UNL     1      34.801 -25.081 -11.919  0.00  0.00    +0.210 C 
ATOM     36  C   UNL     1      39.264 -26.032 -13.035  0.00  0.00    +0.059 C 
ENDBRANCH  22  28
ENDBRANCH   1  22
TORSDOF 5
ENDMDL
MODEL 7
REMARK VINA RESULT:     -11.5      2.139     10.874
REMARK  Name = 25101874
REMARK  5 active torsions:
REMARK  status: ('A' for Active; 'I' for Inactive)
REMARK    1  A    between atoms: N_1  and  C_22
REMARK    2  A    between atoms: C_2  and  N_8
REMARK    3  A    between atoms: N_8  and  C_11
REMARK    4  A    between atoms: C_11  and  C_14
REMARK    5  A    between atoms: C_22  and  C_28
REMARK                            x       y       z     vdW  Elec       q    Type
REMARK                         _______ _______ _______ _____ _____    ______ ____
ROOT
ATOM      1  N   UNL     1      35.752 -18.353 -21.711  0.00  0.00    +0.388 N 
ATOM      2  C   UNL     1      35.938 -20.876 -20.239  0.00  0.00    -0.066 C 
ATOM      3  C   UNL     1      37.058 -18.988 -21.483  0.00  0.00    -0.079 C 
ATOM      4  C   UNL     1      34.684 -19.357 -21.817  0.00  0.00    -0.079 C 
ATOM      5  C   UNL     1      37.050 -19.824 -20.200  0.00  0.00    -0.044 C 
ATOM      6  C   UNL     1      34.596 -20.206 -20.546  0.00  0.00    -0.044 C 
ATOM      7  H   UNL     1      35.547 -17.761 -20.907  0.00  0.00    -0.080 HD
ENDROOT
BRANCH   2   8
ATOM      8  N   UNL     1      35.883 -21.599 -18.971  0.00  0.00    +0.389 N 
ATOM      9  H   UNL     1      35.672 -20.943 -18.220  0.00  0.00    -0.084 HD
ATOM     10  H   UNL     1      36.787 -22.045 -18.810  0.00  0.00    -0.084 HD
BRANCH   8  11
ATOM     11  C   UNL     1      34.855 -22.629 -19.008  0.00  0.00    -0.034 C 
BRANCH  11  14
ATOM     12  O   UNL     1      33.097 -23.795 -13.827  0.00  0.00    -0.474 OA
ATOM     13  N   UNL     1      35.249 -23.057 -16.647  0.00  0.00    -0.247 NA
ATOM     14  C   UNL     1      34.331 -22.948 -17.632  0.00  0.00    +0.037 C 
ATOM     15  C   UNL     1      32.968 -23.113 -17.448  0.00  0.00    +0.011 C 
ATOM     16  C   UNL     1      32.506 -23.414 -16.165  0.00  0.00    +0.015 C 
ATOM     17  C   UNL     1      31.038 -23.603 -15.913  0.00  0.00    +0.033 C 
ATOM     18  C   UNL     1      33.429 -23.509 -15.121  0.00  0.00    +0.154 C 
ATOM     19  C   UNL     1      30.818 -24.299 -14.577  0.00  0.00    +0.052 C 
ATOM     20  C   UNL     1      34.774 -23.338 -15.413  0.00  0.00    +0.135 C 
ATOM     21  C   UNL     1      31.704 -23.654 -13.522  0.00  0.00    +0.206 C 
ENDBRANCH  11  14
ENDBRANCH   8  11
ENDBRANCH   2   8
BRANCH   1  22
ATOM     22  C   UNL     1      35.792 -17.519 -22.911  0.00  0.00    -0.055 C 
BRANCH  22  28
ATOM     23  O   UNL     1      34.046 -16.159 -20.338  0.00  0.00    -0.273 OA
ATOM     24  O   UNL     1      33.982 -14.843 -27.132  0.00  0.00    -0.270 OA
ATOM     25  N   UNL     1      34.098 -15.725 -22.632  0.00  0.00    -0.261 N 
ATOM     26  N   UNL     1      34.043 -15.256 -24.849  0.00  0.00    -0.255 N 
ATOM     27  N   UNL     1      33.526 -13.054 -21.996  0.00  0.00    -0.262 NA
ATOM     28  C   UNL     1      34.399 -17.019 -23.276  0.00  0.00    +0.076 C 
ATOM     29  C   UNL     1      34.277 -16.706 -24.792  0.00  0.00    +0.113 C 
ATOM     30  C   UNL     1      33.928 -14.772 -23.582  0.00  0.00    +0.196 C 
ATOM     31  C   UNL     1      33.661 -13.504 -23.284  0.00  0.00    +0.092 C 
ATOM     32  C   UNL     1      33.957 -15.418 -21.303  0.00  0.00    +0.252 C 
ATOM     33  C   UNL     1      33.900 -14.459 -25.969  0.00  0.00    +0.251 C 
ATOM     34  C   UNL     1      33.504 -12.584 -24.389  0.00  0.00    +0.022 C 
ATOM     35  C   UNL     1      33.660 -13.947 -21.058  0.00  0.00    +0.210 C 
ATOM     36  C   UNL     1      33.615 -13.010 -25.662  0.00  0.00    +0.059 C 
ENDBRANCH  22  28
ENDBRANCH   1  22
TORSDOF 5
ENDMDL
MODEL 8
REMARK VINA RESULT:     -11.2      1.814     10.781
REMARK  Name = 25101874
REMARK  5 active torsions:
REMARK  status: ('A' for Active; 'I' for Inactive)
REMARK    1  A    between atoms: N_1  and  C_22
REMARK    2  A    between atoms: C_2  and  N_8
REMARK    3  A    between atoms: N_8  and  C_11
REMARK    4  A    between atoms: C_11  and  C_14
REMARK    5  A    between atoms: C_22  and  C_28
REMARK                            x       y       z     vdW  Elec       q    Type
REMARK                         _______ _______ _______ _____ _____    ______ ____
ROOT
ATOM      1  N   UNL     1      34.918 -19.252 -21.343  0.00  0.00    +0.388 N 
ATOM      2  C   UNL     1      35.305 -21.614 -19.660  0.00  0.00    -0.066 C 
ATOM      3  C   UNL     1      36.246 -19.868 -21.220  0.00  0.00    -0.079 C 
ATOM      4  C   UNL     1      33.851 -20.254 -21.212  0.00  0.00    -0.079 C 
ATOM      5  C   UNL     1      36.405 -20.571 -19.869  0.00  0.00    -0.044 C 
ATOM      6  C   UNL     1      33.930 -20.970 -19.861  0.00  0.00    -0.044 C 
ATOM      7  H   UNL     1      34.813 -18.580 -20.584  0.00  0.00    -0.080 HD
ENDROOT
BRANCH   2   8
ATOM      8  N   UNL     1      35.415 -22.206 -18.329  0.00  0.00    +0.389 N 
ATOM      9  H   UNL     1      35.597 -21.468 -17.649  0.00  0.00    -0.084 HD
ATOM     10  H   UNL     1      36.180 -22.881 -18.335  0.00  0.00    -0.084 HD
BRANCH   8  11
ATOM     11  C   UNL     1      34.186 -22.896 -17.967  0.00  0.00    -0.034 C 
BRANCH  11  14
ATOM     12  O   UNL     1      33.986 -24.517 -12.617  0.00  0.00    -0.474 OA
ATOM     13  N   UNL     1      33.000 -23.719 -16.010  0.00  0.00    -0.247 NA
ATOM     14  C   UNL     1      34.185 -23.318 -16.521  0.00  0.00    +0.037 C 
ATOM     15  C   UNL     1      35.368 -23.276 -15.801  0.00  0.00    +0.011 C 
ATOM     16  C   UNL     1      35.341 -23.666 -14.461  0.00  0.00    +0.015 C 
ATOM     17  C   UNL     1      36.596 -23.636 -13.637  0.00  0.00    +0.033 C 
ATOM     18  C   UNL     1      34.135 -24.108 -13.912  0.00  0.00    +0.154 C 
ATOM     19  C   UNL     1      36.255 -23.713 -12.155  0.00  0.00    +0.052 C 
ATOM     20  C   UNL     1      33.004 -24.103 -14.715  0.00  0.00    +0.135 C 
ATOM     21  C   UNL     1      35.213 -24.799 -11.934  0.00  0.00    +0.206 C 
ENDBRANCH  11  14
ENDBRANCH   8  11
ENDBRANCH   2   8
BRANCH   1  22
ATOM     22  C   UNL     1      34.800 -18.542 -22.617  0.00  0.00    -0.055 C 
BRANCH  22  28
ATOM     23  O   UNL     1      35.279 -16.908 -25.553  0.00  0.00    -0.273 OA
ATOM     24  O   UNL     1      33.223 -14.671 -19.334  0.00  0.00    -0.270 OA
ATOM     25  N   UNL     1      34.546 -16.216 -23.446  0.00  0.00    -0.261 N 
ATOM     26  N   UNL     1      33.867 -15.437 -21.428  0.00  0.00    -0.255 N 
ATOM     27  N   UNL     1      32.977 -14.309 -24.774  0.00  0.00    -0.262 NA
ATOM     28  C   UNL     1      35.238 -17.089 -22.476  0.00  0.00    +0.076 C 
ATOM     29  C   UNL     1      34.832 -16.495 -21.100  0.00  0.00    +0.113 C 
ATOM     30  C   UNL     1      33.775 -15.320 -22.782  0.00  0.00    +0.196 C 
ATOM     31  C   UNL     1      33.026 -14.416 -23.408  0.00  0.00    +0.092 C 
ATOM     32  C   UNL     1      34.615 -16.197 -24.815  0.00  0.00    +0.252 C 
ATOM     33  C   UNL     1      33.170 -14.619 -20.559  0.00  0.00    +0.251 C 
ATOM     34  C   UNL     1      32.248 -13.517 -22.585  0.00  0.00    +0.022 C 
ATOM     35  C   UNL     1      33.723 -15.139 -25.444  0.00  0.00    +0.210 C 
ATOM     36  C   UNL     1      32.296 -13.596 -21.242  0.00  0.00    +0.059 C 
ENDBRANCH  22  28
ENDBRANCH   1  22
TORSDOF 5
ENDMDL
MODEL 9
REMARK VINA RESULT:     -11.2      1.926     10.603
REMARK  Name = 25101874
REMARK  5 active torsions:
REMARK  status: ('A' for Active; 'I' for Inactive)
REMARK    1  A    between atoms: N_1  and  C_22
REMARK    2  A    between atoms: C_2  and  N_8
REMARK    3  A    between atoms: N_8  and  C_11
REMARK    4  A    between atoms: C_11  and  C_14
REMARK    5  A    between atoms: C_22  and  C_28
REMARK                            x       y       z     vdW  Elec       q    Type
REMARK                         _______ _______ _______ _____ _____    ______ ____
ROOT
ATOM      1  N   UNL     1      34.886 -19.130 -21.467  0.00  0.00    +0.388 N 
ATOM      2  C   UNL     1      35.169 -21.498 -19.773  0.00  0.00    -0.066 C 
ATOM      3  C   UNL     1      36.193 -19.784 -21.315  0.00  0.00    -0.079 C 
ATOM      4  C   UNL     1      33.788 -20.101 -21.357  0.00  0.00    -0.079 C 
ATOM      5  C   UNL     1      36.304 -20.488 -19.960  0.00  0.00    -0.044 C 
ATOM      6  C   UNL     1      33.818 -20.816 -20.003  0.00  0.00    -0.044 C 
ATOM      7  H   UNL     1      34.783 -18.454 -20.712  0.00  0.00    -0.080 HD
ENDROOT
BRANCH   2   8
ATOM      8  N   UNL     1      35.235 -22.090 -18.439  0.00  0.00    +0.389 N 
ATOM      9  H   UNL     1      34.935 -21.399 -17.751  0.00  0.00    -0.084 HD
ATOM     10  H   UNL     1      36.196 -22.379 -18.256  0.00  0.00    -0.084 HD
BRANCH   8  11
ATOM     11  C   UNL     1      34.372 -23.259 -18.349  0.00  0.00    -0.034 C 
BRANCH  11  14
ATOM     12  O   UNL     1      32.553 -23.970 -13.107  0.00  0.00    -0.474 OA
ATOM     13  N   UNL     1      34.743 -23.591 -15.969  0.00  0.00    -0.247 NA
ATOM     14  C   UNL     1      33.832 -23.452 -16.956  0.00  0.00    +0.037 C 
ATOM     15  C   UNL     1      32.460 -23.479 -16.759  0.00  0.00    +0.011 C 
ATOM     16  C   UNL     1      31.982 -23.665 -15.461  0.00  0.00    +0.015 C 
ATOM     17  C   UNL     1      30.505 -23.704 -15.195  0.00  0.00    +0.033 C 
ATOM     18  C   UNL     1      32.900 -23.787 -14.416  0.00  0.00    +0.154 C 
ATOM     19  C   UNL     1      30.232 -24.301 -13.821  0.00  0.00    +0.052 C 
ATOM     20  C   UNL     1      34.254 -23.757 -14.720  0.00  0.00    +0.135 C 
ATOM     21  C   UNL     1      31.182 -23.683 -12.806  0.00  0.00    +0.206 C 
ENDBRANCH  11  14
ENDBRANCH   8  11
ENDBRANCH   2   8
BRANCH   1  22
ATOM     22  C   UNL     1      34.815 -18.420 -22.744  0.00  0.00    -0.055 C 
BRANCH  22  28
ATOM     23  O   UNL     1      35.245 -16.733 -25.658  0.00  0.00    -0.273 OA
ATOM     24  O   UNL     1      33.217 -14.623 -19.386  0.00  0.00    -0.270 OA
ATOM     25  N   UNL     1      34.523 -16.085 -23.534  0.00  0.00    -0.261 N 
ATOM     26  N   UNL     1      33.851 -15.346 -21.498  0.00  0.00    -0.255 N 
ATOM     27  N   UNL     1      32.916 -14.178 -24.818  0.00  0.00    -0.262 NA
ATOM     28  C   UNL     1      35.234 -16.964 -22.585  0.00  0.00    +0.076 C 
ATOM     29  C   UNL     1      34.834 -16.397 -21.195  0.00  0.00    +0.113 C 
ATOM     30  C   UNL     1      33.745 -15.209 -22.849  0.00  0.00    +0.196 C 
ATOM     31  C   UNL     1      32.979 -14.306 -23.454  0.00  0.00    +0.092 C 
ATOM     32  C   UNL     1      34.578 -16.044 -24.903  0.00  0.00    +0.252 C 
ATOM     33  C   UNL     1      33.152 -14.552 -20.610  0.00  0.00    +0.251 C 
ATOM     34  C   UNL     1      32.196 -13.431 -22.610  0.00  0.00    +0.022 C 
ATOM     35  C   UNL     1      33.666 -14.988 -25.507  0.00  0.00    +0.210 C 
ATOM     36  C   UNL     1      32.258 -13.530 -21.268  0.00  0.00    +0.059 C 
ENDBRANCH  22  28
ENDBRANCH   1  22
TORSDOF 5
ENDMDL
