MODEL 1
REMARK VINA RESULT:     -11.5      0.000      0.000
REMARK  Name = 11224409
REMARK  8 active torsions:
REMARK  status: ('A' for Active; 'I' for Inactive)
REMARK    1  A    between atoms: C_2  and  N_10
REMARK    2  A    between atoms: C_5  and  C_20
REMARK    3  A    between atoms: C_11  and  C_14
REMARK    4  A    between atoms: C_14  and  N_16
REMARK    5  A    between atoms: C_21  and  C_26
REMARK    6  A    between atoms: C_26  and  N_27
REMARK    7  A    between atoms: N_27  and  C_30
REMARK    8  A    between atoms: C_30  and  C_34
REMARK                            x       y       z     vdW  Elec       q    Type
REMARK                         _______ _______ _______ _____ _____    ______ ____
ROOT
ATOM      1  F   UNL     1      37.168 -20.176 -20.542  0.00  0.00    -0.204 F 
ATOM      2  C   UNL     1      34.744 -22.000 -18.539  0.00  0.00    +0.059 C 
ATOM      3  C   UNL     1      35.963 -21.521 -19.020  0.00  0.00    +0.045 C 
ATOM      4  C   UNL     1      33.550 -21.583 -19.129  0.00  0.00    +0.015 C 
ATOM      5  C   UNL     1      34.794 -20.211 -20.680  0.00  0.00    +0.028 C 
ATOM      6  C   UNL     1      35.988 -20.627 -20.091  0.00  0.00    +0.141 C 
ATOM      7  C   UNL     1      33.575 -20.688 -20.199  0.00  0.00    +0.004 C 
ENDROOT
BRANCH   2  10
ATOM      8  O   UNL     1      35.279 -24.066 -15.589  0.00  0.00    -0.434 OA
ATOM      9  O   UNL     1      36.754 -22.502 -16.312  0.00  0.00    -0.226 OA
ATOM     10  N   UNL     1      34.719 -22.912 -17.447  0.00  0.00    -0.221 N 
ATOM     11  C   UNL     1      33.917 -24.410 -15.875  0.00  0.00    +0.210 C 
ATOM     12  C   UNL     1      33.690 -23.904 -17.284  0.00  0.00    +0.147 C 
ATOM     13  C   UNL     1      35.684 -23.075 -16.456  0.00  0.00    +0.409 C 
BRANCH  11  14
ATOM     14  C   UNL     1      33.015 -23.744 -14.845  0.00  0.00    +0.135 C 
BRANCH  14  16
ATOM     15  O   UNL     1      31.740 -25.465 -12.885  0.00  0.00    -0.275 OA
ATOM     16  N   UNL     1      31.688 -24.283 -14.892  0.00  0.00    -0.301 N 
ATOM     17  C   UNL     1      31.156 -25.104 -13.903  0.00  0.00    +0.223 C 
ATOM     18  C   UNL     1      29.735 -25.509 -14.189  0.00  0.00    +0.095 C 
ATOM     19  H   UNL     1      31.123 -24.061 -15.667  0.00  0.00    +0.150 HD
ENDBRANCH  14  16
ENDBRANCH  11  14
ENDBRANCH   2  10
BRANCH   5  20
ATOM     20  C   UNL     1      34.815 -19.283 -21.790  0.00  0.00    +0.002 C 
ATOM     21  C   UNL     1      34.853 -17.495 -23.931  0.00  0.00    -0.044 C 
ATOM     22  C   UNL     1      34.573 -19.741 -23.085  0.00  0.00    -0.000 C 
ATOM     23  C   UNL     1      35.077 -17.931 -21.566  0.00  0.00    -0.000 C 
ATOM     24  C   UNL     1      34.591 -18.847 -24.156  0.00  0.00    -0.006 C 
ATOM     25  C   UNL     1      35.097 -17.038 -22.636  0.00  0.00    -0.006 C 
BRANCH  21  26
ATOM     26  C   UNL     1      34.872 -16.540 -25.076  0.00  0.00    -0.054 C 
BRANCH  26  27
ATOM     27  N   UNL     1      33.530 -16.097 -25.456  0.00  0.00    +0.390 N 
ATOM     28  H   UNL     1      32.898 -16.225 -24.665  0.00  0.00    -0.083 HD
ATOM     29  H   UNL     1      33.215 -16.651 -26.253  0.00  0.00    -0.083 HD
BRANCH  27  30
ATOM     30  C   UNL     1      33.540 -14.694 -25.837  0.00  0.00    -0.031 C 
BRANCH  30  34
ATOM     31  N   UNL     1      33.948 -12.535 -24.698  0.00  0.00    -0.170 NA
ATOM     32  N   UNL     1      33.705 -12.112 -23.448  0.00  0.00    -0.157 N 
ATOM     33  N   UNL     1      33.130 -12.964 -22.583  0.00  0.00    -0.162 NA
ATOM     34  C   UNL     1      33.484 -13.787 -24.637  0.00  0.00    +0.077 C 
ATOM     35  C   UNL     1      32.988 -14.047 -23.352  0.00  0.00    +0.133 C 
ATOM     36  H   UNL     1      33.942 -11.197 -23.171  0.00  0.00    +0.197 HD
ENDBRANCH  30  34
ENDBRANCH  27  30
ENDBRANCH  26  27
ENDBRANCH  21  26
ENDBRANCH   5  20
TORSDOF 8
ENDMDL
MODEL 2
REMARK VINA RESULT:     -11.2      4.491     11.232
REMARK  Name = 11224409
REMARK  8 active torsions:
REMARK  status: ('A' for Active; 'I' for Inactive)
REMARK    1  A    between atoms: C_2  and  N_10
REMARK    2  A    between atoms: C_5  and  C_20
REMARK    3  A    between atoms: C_11  and  C_14
REMARK    4  A    between atoms: C_14  and  N_16
REMARK    5  A    between atoms: C_21  and  C_26
REMARK    6  A    between atoms: C_26  and  N_27
REMARK    7  A    between atoms: N_27  and  C_30
REMARK    8  A    between atoms: C_30  and  C_34
REMARK                            x       y       z     vdW  Elec       q    Type
REMARK                         _______ _______ _______ _____ _____    ______ ____
ROOT
ATOM      1  F   UNL     1      32.812 -20.983 -19.690  0.00  0.00    -0.204 F 
ATOM      2  C   UNL     1      35.071 -19.198 -21.908  0.00  0.00    +0.059 C 
ATOM      3  C   UNL     1      33.894 -19.674 -21.330  0.00  0.00    +0.045 C 
ATOM      4  C   UNL     1      36.307 -19.584 -21.389  0.00  0.00    +0.015 C 
ATOM      5  C   UNL     1      35.189 -20.920 -19.716  0.00  0.00    +0.028 C 
ATOM      6  C   UNL     1      33.953 -20.535 -20.235  0.00  0.00    +0.141 C 
ATOM      7  C   UNL     1      36.367 -20.445 -20.293  0.00  0.00    +0.004 C 
ENDROOT
BRANCH   2  10
ATOM      8  O   UNL     1      34.600 -17.463 -25.074  0.00  0.00    -0.434 OA
ATOM      9  O   UNL     1      33.899 -19.585 -24.688  0.00  0.00    -0.226 OA
ATOM     10  N   UNL     1      35.011 -18.320 -23.026  0.00  0.00    -0.221 N 
ATOM     11  C   UNL     1      35.076 -16.372 -24.275  0.00  0.00    +0.210 C 
ATOM     12  C   UNL     1      35.656 -17.034 -23.043  0.00  0.00    +0.147 C 
ATOM     13  C   UNL     1      34.442 -18.572 -24.273  0.00  0.00    +0.409 C 
BRANCH  11  14
ATOM     14  C   UNL     1      33.910 -15.444 -23.966  0.00  0.00    +0.135 C 
BRANCH  14  16
ATOM     15  O   UNL     1      32.372 -13.397 -22.595  0.00  0.00    -0.275 OA
ATOM     16  N   UNL     1      33.733 -15.288 -22.552  0.00  0.00    -0.301 N 
ATOM     17  C   UNL     1      32.975 -14.272 -21.979  0.00  0.00    +0.223 C 
ATOM     18  C   UNL     1      32.936 -14.356 -20.476  0.00  0.00    +0.095 C 
ATOM     19  H   UNL     1      34.174 -15.935 -21.954  0.00  0.00    +0.150 HD
ENDBRANCH  14  16
ENDBRANCH  11  14
ENDBRANCH   2  10
BRANCH   5  20
ATOM     20  C   UNL     1      35.255 -21.814 -18.580  0.00  0.00    +0.002 C 
ATOM     21  C   UNL     1      35.381 -23.534 -16.387  0.00  0.00    -0.044 C 
ATOM     22  C   UNL     1      36.422 -21.892 -17.822  0.00  0.00    -0.000 C 
ATOM     23  C   UNL     1      34.149 -22.595 -18.241  0.00  0.00    -0.000 C 
ATOM     24  C   UNL     1      36.485 -22.752 -16.725  0.00  0.00    -0.006 C 
ATOM     25  C   UNL     1      34.213 -23.456 -17.146  0.00  0.00    -0.006 C 
BRANCH  21  26
ATOM     26  C   UNL     1      35.449 -24.453 -15.214  0.00  0.00    -0.054 C 
BRANCH  26  27
ATOM     27  N   UNL     1      36.671 -25.258 -15.207  0.00  0.00    +0.390 N 
ATOM     28  H   UNL     1      37.264 -24.975 -15.987  0.00  0.00    -0.083 HD
ATOM     29  H   UNL     1      36.416 -26.242 -15.295  0.00  0.00    -0.083 HD
BRANCH  27  30
ATOM     30  C   UNL     1      37.400 -25.074 -13.962  0.00  0.00    -0.031 C 
BRANCH  30  34
ATOM     31  N   UNL     1      39.234 -26.537 -13.174  0.00  0.00    -0.170 NA
ATOM     32  N   UNL     1      40.489 -26.727 -13.610  0.00  0.00    -0.157 N 
ATOM     33  N   UNL     1      40.912 -26.026 -14.674  0.00  0.00    -0.162 NA
ATOM     34  C   UNL     1      38.800 -25.621 -14.046  0.00  0.00    +0.077 C 
ATOM     35  C   UNL     1      39.819 -25.310 -14.956  0.00  0.00    +0.133 C 
ATOM     36  H   UNL     1      41.087 -27.366 -13.159  0.00  0.00    +0.197 HD
ENDBRANCH  30  34
ENDBRANCH  27  30
ENDBRANCH  26  27
ENDBRANCH  21  26
ENDBRANCH   5  20
TORSDOF 8
ENDMDL
MODEL 3
REMARK VINA RESULT:     -11.1      7.439     13.383
REMARK  Name = 11224409
REMARK  8 active torsions:
REMARK  status: ('A' for Active; 'I' for Inactive)
REMARK    1  A    between atoms: C_2  and  N_10
REMARK    2  A    between atoms: C_5  and  C_20
REMARK    3  A    between atoms: C_11  and  C_14
REMARK    4  A    between atoms: C_14  and  N_16
REMARK    5  A    between atoms: C_21  and  C_26
REMARK    6  A    between atoms: C_26  and  N_27
REMARK    7  A    between atoms: N_27  and  C_30
REMARK    8  A    between atoms: C_30  and  C_34
REMARK                            x       y       z     vdW  Elec       q    Type
REMARK                         _______ _______ _______ _____ _____    ______ ____
ROOT
ATOM      1  F   UNL     1      34.542 -11.034 -24.321  0.00  0.00    -0.204 F 
ATOM      2  C   UNL     1      32.112  -9.462 -22.122  0.00  0.00    +0.059 C 
ATOM      3  C   UNL     1      33.120  -9.620 -23.074  0.00  0.00    +0.045 C 
ATOM      4  C   UNL     1      31.558 -10.581 -21.500  0.00  0.00    +0.015 C 
ATOM      5  C   UNL     1      33.019 -12.016 -22.782  0.00  0.00    +0.028 C 
ATOM      6  C   UNL     1      33.573 -10.898 -23.403  0.00  0.00    +0.141 C 
ATOM      7  C   UNL     1      32.011 -11.859 -21.830  0.00  0.00    +0.004 C 
ENDROOT
BRANCH   2  10
ATOM      8  O   UNL     1      31.182  -6.264 -20.651  0.00  0.00    -0.434 OA
ATOM      9  O   UNL     1      32.253  -7.907 -19.511  0.00  0.00    -0.226 OA
ATOM     10  N   UNL     1      31.650  -8.158 -21.786  0.00  0.00    -0.221 N 
ATOM     11  C   UNL     1      30.881  -5.988 -22.025  0.00  0.00    +0.210 C 
ATOM     12  C   UNL     1      30.875  -7.349 -22.688  0.00  0.00    +0.147 C 
ATOM     13  C   UNL     1      31.763  -7.509 -20.559  0.00  0.00    +0.409 C 
BRANCH  11  14
ATOM     14  C   UNL     1      31.945  -5.053 -22.583  0.00  0.00    +0.135 C 
BRANCH  14  16
ATOM     15  O   UNL     1      32.571  -3.493 -24.951  0.00  0.00    -0.275 OA
ATOM     16  N   UNL     1      32.453  -5.534 -23.833  0.00  0.00    -0.301 N 
ATOM     17  C   UNL     1      32.726  -4.711 -24.921  0.00  0.00    +0.223 C 
ATOM     18  C   UNL     1      33.274  -5.471 -26.099  0.00  0.00    +0.095 C 
ATOM     19  H   UNL     1      32.618  -6.501 -23.928  0.00  0.00    +0.150 HD
ENDBRANCH  14  16
ENDBRANCH  11  14
ENDBRANCH   2  10
BRANCH   5  20
ATOM     20  C   UNL     1      33.487 -13.343 -23.120  0.00  0.00    +0.002 C 
ATOM     21  C   UNL     1      34.390 -15.900 -23.774  0.00  0.00    -0.044 C 
ATOM     22  C   UNL     1      33.187 -13.891 -24.367  0.00  0.00    -0.000 C 
ATOM     23  C   UNL     1      34.239 -14.074 -22.200  0.00  0.00    -0.000 C 
ATOM     24  C   UNL     1      33.639 -15.170 -24.694  0.00  0.00    -0.006 C 
ATOM     25  C   UNL     1      34.690 -15.353 -22.526  0.00  0.00    -0.006 C 
BRANCH  21  26
ATOM     26  C   UNL     1      34.873 -17.267 -24.124  0.00  0.00    -0.054 C 
BRANCH  26  27
ATOM     27  N   UNL     1      35.735 -17.838 -23.087  0.00  0.00    +0.390 N 
ATOM     28  H   UNL     1      35.846 -17.159 -22.333  0.00  0.00    -0.083 HD
ATOM     29  H   UNL     1      36.640 -18.061 -23.498  0.00  0.00    -0.083 HD
BRANCH  27  30
ATOM     30  C   UNL     1      35.152 -19.056 -22.548  0.00  0.00    -0.031 C 
BRANCH  30  34
ATOM     31  N   UNL     1      36.995 -18.921 -20.902  0.00  0.00    -0.170 NA
ATOM     32  N   UNL     1      37.294 -19.653 -19.817  0.00  0.00    -0.157 N 
ATOM     33  N   UNL     1      36.488 -20.677 -19.492  0.00  0.00    -0.162 NA
ATOM     34  C   UNL     1      35.883 -19.532 -21.321  0.00  0.00    +0.077 C 
ATOM     35  C   UNL     1      35.575 -20.599 -20.465  0.00  0.00    +0.133 C 
ATOM     36  H   UNL     1      38.087 -19.444 -19.272  0.00  0.00    +0.197 HD
ENDBRANCH  30  34
ENDBRANCH  27  30
ENDBRANCH  26  27
ENDBRANCH  21  26
ENDBRANCH   5  20
TORSDOF 8
ENDMDL
MODEL 4
REMARK VINA RESULT:     -11.1      7.637     13.450
REMARK  Name = 11224409
REMARK  8 active torsions:
REMARK  status: ('A' for Active; 'I' for Inactive)
REMARK    1  A    between atoms: C_2  and  N_10
REMARK    2  A    between atoms: C_5  and  C_20
REMARK    3  A    between atoms: C_11  and  C_14
REMARK    4  A    between atoms: C_14  and  N_16
REMARK    5  A    between atoms: C_21  and  C_26
REMARK    6  A    between atoms: C_26  and  N_27
REMARK    7  A    between atoms: N_27  and  C_30
REMARK    8  A    between atoms: C_30  and  C_34
REMARK                            x       y       z     vdW  Elec       q    Type
REMARK                         _______ _______ _______ _____ _____    ______ ____
ROOT
ATOM      1  F   UNL     1      34.548 -11.401 -24.461  0.00  0.00    -0.204 F 
ATOM      2  C   UNL     1      32.203  -9.765 -22.217  0.00  0.00    +0.059 C 
ATOM      3  C   UNL     1      33.165  -9.953 -23.211  0.00  0.00    +0.045 C 
ATOM      4  C   UNL     1      31.700 -10.862 -21.518  0.00  0.00    +0.015 C 
ATOM      5  C   UNL     1      33.120 -12.333 -22.804  0.00  0.00    +0.028 C 
ATOM      6  C   UNL     1      33.624 -11.237 -23.503  0.00  0.00    +0.141 C 
ATOM      7  C   UNL     1      32.158 -12.147 -21.811  0.00  0.00    +0.004 C 
ENDROOT
BRANCH   2  10
ATOM      8  O   UNL     1      31.314  -6.506 -20.858  0.00  0.00    -0.434 OA
ATOM      9  O   UNL     1      32.520  -8.055 -19.721  0.00  0.00    -0.226 OA
ATOM     10  N   UNL     1      31.736  -8.454 -21.918  0.00  0.00    -0.221 N 
ATOM     11  C   UNL     1      30.891  -6.319 -22.215  0.00  0.00    +0.210 C 
ATOM     12  C   UNL     1      30.867  -7.717 -22.796  0.00  0.00    +0.147 C 
ATOM     13  C   UNL     1      31.934  -7.730 -20.744  0.00  0.00    +0.409 C 
BRANCH  11  14
ATOM     14  C   UNL     1      31.879  -5.396 -22.914  0.00  0.00    +0.135 C 
BRANCH  14  16
ATOM     15  O   UNL     1      30.035  -3.482 -24.084  0.00  0.00    -0.275 OA
ATOM     16  N   UNL     1      31.678  -4.031 -22.525  0.00  0.00    -0.301 N 
ATOM     17  C   UNL     1      30.767  -3.181 -23.145  0.00  0.00    +0.223 C 
ATOM     18  C   UNL     1      30.740  -1.810 -22.523  0.00  0.00    +0.095 C 
ATOM     19  H   UNL     1      32.214  -3.676 -21.779  0.00  0.00    +0.150 HD
ENDBRANCH  14  16
ENDBRANCH  11  14
ENDBRANCH   2  10
BRANCH   5  20
ATOM     20  C   UNL     1      33.593 -13.668 -23.105  0.00  0.00    +0.002 C 
ATOM     21  C   UNL     1      34.503 -16.240 -23.683  0.00  0.00    -0.044 C 
ATOM     22  C   UNL     1      34.295 -14.392 -22.141  0.00  0.00    -0.000 C 
ATOM     23  C   UNL     1      33.346 -14.230 -24.357  0.00  0.00    -0.000 C 
ATOM     24  C   UNL     1      34.749 -15.679 -22.430  0.00  0.00    -0.006 C 
ATOM     25  C   UNL     1      33.801 -15.516 -24.647  0.00  0.00    -0.006 C 
BRANCH  21  26
ATOM     26  C   UNL     1      34.988 -17.617 -23.991  0.00  0.00    -0.054 C 
BRANCH  26  27
ATOM     27  N   UNL     1      35.757 -18.198 -22.889  0.00  0.00    +0.390 N 
ATOM     28  H   UNL     1      36.027 -17.457 -22.242  0.00  0.00    -0.083 HD
ATOM     29  H   UNL     1      36.585 -18.653 -23.271  0.00  0.00    -0.083 HD
BRANCH  27  30
ATOM     30  C   UNL     1      34.965 -19.188 -22.177  0.00  0.00    -0.031 C 
BRANCH  30  34
ATOM     31  N   UNL     1      36.872 -19.246 -20.600  0.00  0.00    -0.170 NA
ATOM     32  N   UNL     1      37.180 -20.067 -19.584  0.00  0.00    -0.157 N 
ATOM     33  N   UNL     1      36.345 -21.080 -19.302  0.00  0.00    -0.162 NA
ATOM     34  C   UNL     1      35.720 -19.781 -21.017  0.00  0.00    +0.077 C 
ATOM     35  C   UNL     1      35.401 -20.895 -20.229  0.00  0.00    +0.133 C 
ATOM     36  H   UNL     1      38.001 -19.930 -19.058  0.00  0.00    +0.197 HD
ENDBRANCH  30  34
ENDBRANCH  27  30
ENDBRANCH  26  27
ENDBRANCH  21  26
ENDBRANCH   5  20
TORSDOF 8
ENDMDL
MODEL 5
REMARK VINA RESULT:     -10.9      4.273     11.497
REMARK  Name = 11224409
REMARK  8 active torsions:
REMARK  status: ('A' for Active; 'I' for Inactive)
REMARK    1  A    between atoms: C_2  and  N_10
REMARK    2  A    between atoms: C_5  and  C_20
REMARK    3  A    between atoms: C_11  and  C_14
REMARK    4  A    between atoms: C_14  and  N_16
REMARK    5  A    between atoms: C_21  and  C_26
REMARK    6  A    between atoms: C_26  and  N_27
REMARK    7  A    between atoms: N_27  and  C_30
REMARK    8  A    between atoms: C_30  and  C_34
REMARK                            x       y       z     vdW  Elec       q    Type
REMARK                         _______ _______ _______ _____ _____    ______ ____
ROOT
ATOM      1  F   UNL     1      37.125 -21.447 -19.340  0.00  0.00    -0.204 F 
ATOM      2  C   UNL     1      34.887 -19.524 -21.463  0.00  0.00    +0.059 C 
ATOM      3  C   UNL     1      36.059 -20.049 -20.916  0.00  0.00    +0.045 C 
ATOM      4  C   UNL     1      33.647 -19.902 -20.947  0.00  0.00    +0.015 C 
ATOM      5  C   UNL     1      34.750 -21.328 -19.339  0.00  0.00    +0.028 C 
ATOM      6  C   UNL     1      35.990 -20.951 -19.854  0.00  0.00    +0.141 C 
ATOM      7  C   UNL     1      33.578 -20.804 -19.885  0.00  0.00    +0.004 C 
ENDROOT
BRANCH   2  10
ATOM      8  O   UNL     1      34.826 -17.682 -24.603  0.00  0.00    -0.434 OA
ATOM      9  O   UNL     1      34.176 -19.846 -24.403  0.00  0.00    -0.226 OA
ATOM     10  N   UNL     1      34.958 -18.604 -22.547  0.00  0.00    -0.221 N 
ATOM     11  C   UNL     1      35.121 -16.605 -23.703  0.00  0.00    +0.210 C 
ATOM     12  C   UNL     1      35.535 -17.293 -22.419  0.00  0.00    +0.147 C 
ATOM     13  C   UNL     1      34.600 -18.828 -23.874  0.00  0.00    +0.409 C 
BRANCH  11  14
ATOM     14  C   UNL     1      33.878 -15.741 -23.547  0.00  0.00    +0.135 C 
BRANCH  14  16
ATOM     15  O   UNL     1      32.859 -15.908 -26.261  0.00  0.00    -0.275 OA
ATOM     16  N   UNL     1      33.845 -14.699 -24.531  0.00  0.00    -0.301 N 
ATOM     17  C   UNL     1      33.336 -14.868 -25.814  0.00  0.00    +0.223 C 
ATOM     18  C   UNL     1      33.400 -13.606 -26.634  0.00  0.00    +0.095 C 
ATOM     19  H   UNL     1      34.203 -13.815 -24.284  0.00  0.00    +0.150 HD
ENDBRANCH  14  16
ENDBRANCH  11  14
ENDBRANCH   2  10
BRANCH   5  20
ATOM     20  C   UNL     1      34.674 -22.263 -18.237  0.00  0.00    +0.002 C 
ATOM     21  C   UNL     1      34.528 -24.066 -16.114  0.00  0.00    -0.044 C 
ATOM     22  C   UNL     1      33.520 -23.022 -18.045  0.00  0.00    -0.000 C 
ATOM     23  C   UNL     1      35.755 -22.406 -17.367  0.00  0.00    -0.000 C 
ATOM     24  C   UNL     1      33.447 -23.925 -16.984  0.00  0.00    -0.006 C 
ATOM     25  C   UNL     1      35.682 -23.307 -16.305  0.00  0.00    -0.006 C 
BRANCH  21  26
ATOM     26  C   UNL     1      34.449 -25.032 -14.980  0.00  0.00    -0.054 C 
BRANCH  26  27
ATOM     27  N   UNL     1      35.703 -25.112 -14.228  0.00  0.00    +0.390 N 
ATOM     28  H   UNL     1      35.495 -25.108 -13.229  0.00  0.00    -0.083 HD
ATOM     29  H   UNL     1      36.283 -24.310 -14.471  0.00  0.00    -0.083 HD
BRANCH  27  30
ATOM     30  C   UNL     1      36.424 -26.330 -14.561  0.00  0.00    -0.031 C 
BRANCH  30  34
ATOM     31  N   UNL     1      38.699 -27.279 -14.341  0.00  0.00    -0.170 NA
ATOM     32  N   UNL     1      39.869 -26.744 -13.957  0.00  0.00    -0.157 N 
ATOM     33  N   UNL     1      39.898 -25.447 -13.608  0.00  0.00    -0.162 NA
ATOM     34  C   UNL     1      37.889 -26.222 -14.229  0.00  0.00    +0.077 C 
ATOM     35  C   UNL     1      38.617 -25.110 -13.784  0.00  0.00    +0.133 C 
ATOM     36  H   UNL     1      40.688 -27.290 -13.932  0.00  0.00    +0.197 HD
ENDBRANCH  30  34
ENDBRANCH  27  30
ENDBRANCH  26  27
ENDBRANCH  21  26
ENDBRANCH   5  20
TORSDOF 8
ENDMDL
MODEL 6
REMARK VINA RESULT:     -10.9      3.138      5.055
REMARK  Name = 11224409
REMARK  8 active torsions:
REMARK  status: ('A' for Active; 'I' for Inactive)
REMARK    1  A    between atoms: C_2  and  N_10
REMARK    2  A    between atoms: C_5  and  C_20
REMARK    3  A    between atoms: C_11  and  C_14
REMARK    4  A    between atoms: C_14  and  N_16
REMARK    5  A    between atoms: C_21  and  C_26
REMARK    6  A    between atoms: C_26  and  N_27
REMARK    7  A    between atoms: N_27  and  C_30
REMARK    8  A    between atoms: C_30  and  C_34
REMARK                            x       y       z     vdW  Elec       q    Type
REMARK                         _______ _______ _______ _____ _____    ______ ____
ROOT
ATOM      1  F   UNL     1      33.269 -23.315 -17.730  0.00  0.00    -0.204 F 
ATOM      2  C   UNL     1      35.621 -23.580 -14.971  0.00  0.00    +0.059 C 
ATOM      3  C   UNL     1      34.479 -23.763 -15.753  0.00  0.00    +0.045 C 
ATOM      4  C   UNL     1      36.656 -22.765 -15.430  0.00  0.00    +0.015 C 
ATOM      5  C   UNL     1      35.408 -22.315 -17.449  0.00  0.00    +0.028 C 
ATOM      6  C   UNL     1      34.373 -23.130 -16.991  0.00  0.00    +0.141 C 
ATOM      7  C   UNL     1      36.550 -22.132 -16.669  0.00  0.00    +0.004 C 
ENDROOT
BRANCH   2  10
ATOM      8  O   UNL     1      35.247 -25.384 -11.831  0.00  0.00    -0.434 OA
ATOM      9  O   UNL     1      33.563 -25.098 -13.324  0.00  0.00    -0.226 OA
ATOM     10  N   UNL     1      35.729 -24.226 -13.708  0.00  0.00    -0.221 N 
ATOM     11  C   UNL     1      36.669 -25.205 -11.832  0.00  0.00    +0.210 C 
ATOM     12  C   UNL     1      36.914 -24.154 -12.895  0.00  0.00    +0.147 C 
ATOM     13  C   UNL     1      34.733 -24.914 -13.019  0.00  0.00    +0.409 C 
BRANCH  11  14
ATOM     14  C   UNL     1      37.332 -26.539 -12.144  0.00  0.00    +0.135 C 
BRANCH  14  16
ATOM     15  O   UNL     1      38.095 -26.951 -14.915  0.00  0.00    -0.275 OA
ATOM     16  N   UNL     1      38.628 -26.350 -12.728  0.00  0.00    -0.301 N 
ATOM     17  C   UNL     1      38.905 -26.573 -14.073  0.00  0.00    +0.223 C 
ATOM     18  C   UNL     1      40.337 -26.274 -14.426  0.00  0.00    +0.095 C 
ATOM     19  H   UNL     1      39.361 -26.047 -12.145  0.00  0.00    +0.150 HD
ENDBRANCH  14  16
ENDBRANCH  11  14
ENDBRANCH   2  10
BRANCH   5  20
ATOM     20  C   UNL     1      35.302 -21.656 -18.733  0.00  0.00    +0.002 C 
ATOM     21  C   UNL     1      35.097 -20.384 -21.207  0.00  0.00    -0.044 C 
ATOM     22  C   UNL     1      34.047 -21.426 -19.297  0.00  0.00    -0.000 C 
ATOM     23  C   UNL     1      36.454 -21.249 -19.406  0.00  0.00    -0.000 C 
ATOM     24  C   UNL     1      33.945 -20.790 -20.534  0.00  0.00    -0.006 C 
ATOM     25  C   UNL     1      36.352 -20.614 -20.643  0.00  0.00    -0.006 C 
BRANCH  21  26
ATOM     26  C   UNL     1      34.987 -19.703 -22.529  0.00  0.00    -0.054 C 
BRANCH  26  27
ATOM     27  N   UNL     1      35.920 -18.583 -22.660  0.00  0.00    +0.390 N 
ATOM     28  H   UNL     1      36.260 -18.540 -23.620  0.00  0.00    -0.083 HD
ATOM     29  H   UNL     1      36.697 -18.727 -22.016  0.00  0.00    -0.083 HD
BRANCH  27  30
ATOM     30  C   UNL     1      35.265 -17.327 -22.330  0.00  0.00    -0.031 C 
BRANCH  30  34
ATOM     31  N   UNL     1      34.178 -15.421 -23.475  0.00  0.00    -0.170 NA
ATOM     32  N   UNL     1      33.838 -15.211 -24.756  0.00  0.00    -0.157 N 
ATOM     33  N   UNL     1      34.104 -16.171 -25.657  0.00  0.00    -0.162 NA
ATOM     34  C   UNL     1      34.719 -16.641 -23.554  0.00  0.00    +0.077 C 
ATOM     35  C   UNL     1      34.674 -17.096 -24.879  0.00  0.00    +0.133 C 
ATOM     36  H   UNL     1      33.403 -14.371 -25.030  0.00  0.00    +0.197 HD
ENDBRANCH  30  34
ENDBRANCH  27  30
ENDBRANCH  26  27
ENDBRANCH  21  26
ENDBRANCH   5  20
TORSDOF 8
ENDMDL
MODEL 7
REMARK VINA RESULT:     -10.8      4.351     11.207
REMARK  Name = 11224409
REMARK  8 active torsions:
REMARK  status: ('A' for Active; 'I' for Inactive)
REMARK    1  A    between atoms: C_2  and  N_10
REMARK    2  A    between atoms: C_5  and  C_20
REMARK    3  A    between atoms: C_11  and  C_14
REMARK    4  A    between atoms: C_14  and  N_16
REMARK    5  A    between atoms: C_21  and  C_26
REMARK    6  A    between atoms: C_26  and  N_27
REMARK    7  A    between atoms: N_27  and  C_30
REMARK    8  A    between atoms: C_30  and  C_34
REMARK                            x       y       z     vdW  Elec       q    Type
REMARK                         _______ _______ _______ _____ _____    ______ ____
ROOT
ATOM      1  F   UNL     1      33.063 -21.098 -19.692  0.00  0.00    -0.204 F 
ATOM      2  C   UNL     1      35.186 -19.195 -21.946  0.00  0.00    +0.059 C 
ATOM      3  C   UNL     1      34.047 -19.747 -21.360  0.00  0.00    +0.045 C 
ATOM      4  C   UNL     1      36.447 -19.472 -21.416  0.00  0.00    +0.015 C 
ATOM      5  C   UNL     1      35.428 -20.852 -19.715  0.00  0.00    +0.028 C 
ATOM      6  C   UNL     1      34.168 -20.576 -20.244  0.00  0.00    +0.141 C 
ATOM      7  C   UNL     1      36.568 -20.300 -20.300  0.00  0.00    +0.004 C 
ENDROOT
BRANCH   2  10
ATOM      8  O   UNL     1      34.545 -17.557 -25.134  0.00  0.00    -0.434 OA
ATOM      9  O   UNL     1      33.888 -19.674 -24.655  0.00  0.00    -0.226 OA
ATOM     10  N   UNL     1      35.063 -18.350 -23.085  0.00  0.00    -0.221 N 
ATOM     11  C   UNL     1      35.046 -16.438 -24.390  0.00  0.00    +0.210 C 
ATOM     12  C   UNL     1      35.691 -17.059 -23.169  0.00  0.00    +0.147 C 
ATOM     13  C   UNL     1      34.438 -18.643 -24.295  0.00  0.00    +0.409 C 
BRANCH  11  14
ATOM     14  C   UNL     1      33.885 -15.514 -24.051  0.00  0.00    +0.135 C 
BRANCH  14  16
ATOM     15  O   UNL     1      32.239 -13.558 -22.673  0.00  0.00    -0.275 OA
ATOM     16  N   UNL     1      33.793 -15.294 -22.638  0.00  0.00    -0.301 N 
ATOM     17  C   UNL     1      32.974 -14.329 -22.061  0.00  0.00    +0.223 C 
ATOM     18  C   UNL     1      33.050 -14.328 -20.557  0.00  0.00    +0.095 C 
ATOM     19  H   UNL     1      34.341 -15.856 -22.043  0.00  0.00    +0.150 HD
ENDBRANCH  14  16
ENDBRANCH  11  14
ENDBRANCH   2  10
BRANCH   5  20
ATOM     20  C   UNL     1      35.559 -21.711 -18.558  0.00  0.00    +0.002 C 
ATOM     21  C   UNL     1      35.809 -23.366 -16.326  0.00  0.00    -0.044 C 
ATOM     22  C   UNL     1      36.762 -21.757 -17.855  0.00  0.00    -0.000 C 
ATOM     23  C   UNL     1      34.480 -22.494 -18.144  0.00  0.00    -0.000 C 
ATOM     24  C   UNL     1      36.887 -22.583 -16.738  0.00  0.00    -0.006 C 
ATOM     25  C   UNL     1      34.605 -23.321 -17.029  0.00  0.00    -0.006 C 
BRANCH  21  26
ATOM     26  C   UNL     1      35.943 -24.250 -15.132  0.00  0.00    -0.054 C 
BRANCH  26  27
ATOM     27  N   UNL     1      35.366 -23.651 -13.927  0.00  0.00    +0.390 N 
ATOM     28  H   UNL     1      34.509 -23.158 -14.176  0.00  0.00    -0.083 HD
ATOM     29  H   UNL     1      36.043 -23.003 -13.526  0.00  0.00    -0.083 HD
BRANCH  27  30
ATOM     30  C   UNL     1      35.058 -24.676 -12.942  0.00  0.00    -0.031 C 
BRANCH  30  34
ATOM     31  N   UNL     1      36.675 -23.469 -11.508  0.00  0.00    -0.170 NA
ATOM     32  N   UNL     1      36.967 -23.558 -10.201  0.00  0.00    -0.157 N 
ATOM     33  N   UNL     1      36.298 -24.452  -9.454  0.00  0.00    -0.162 NA
ATOM     34  C   UNL     1      35.720 -24.397 -11.618  0.00  0.00    +0.077 C 
ATOM     35  C   UNL     1      35.492 -24.995 -10.371  0.00  0.00    +0.133 C 
ATOM     36  H   UNL     1      37.656 -22.981  -9.799  0.00  0.00    +0.197 HD
ENDBRANCH  30  34
ENDBRANCH  27  30
ENDBRANCH  26  27
ENDBRANCH  21  26
ENDBRANCH   5  20
TORSDOF 8
ENDMDL
MODEL 8
REMARK VINA RESULT:     -10.7      4.172     11.407
REMARK  Name = 11224409
REMARK  8 active torsions:
REMARK  status: ('A' for Active; 'I' for Inactive)
REMARK    1  A    between atoms: C_2  and  N_10
REMARK    2  A    between atoms: C_5  and  C_20
REMARK    3  A    between atoms: C_11  and  C_14
REMARK    4  A    between atoms: C_14  and  N_16
REMARK    5  A    between atoms: C_21  and  C_26
REMARK    6  A    between atoms: C_26  and  N_27
REMARK    7  A    between atoms: N_27  and  C_30
REMARK    8  A    between atoms: C_30  and  C_34
REMARK                            x       y       z     vdW  Elec       q    Type
REMARK                         _______ _______ _______ _____ _____    ______ ____
ROOT
ATOM      1  F   UNL     1      37.060 -21.443 -19.411  0.00  0.00    -0.204 F 
ATOM      2  C   UNL     1      34.852 -19.452 -21.502  0.00  0.00    +0.059 C 
ATOM      3  C   UNL     1      36.016 -20.005 -20.965  0.00  0.00    +0.045 C 
ATOM      4  C   UNL     1      33.607 -19.814 -20.987  0.00  0.00    +0.015 C 
ATOM      5  C   UNL     1      34.688 -21.281 -19.402  0.00  0.00    +0.028 C 
ATOM      6  C   UNL     1      35.933 -20.919 -19.915  0.00  0.00    +0.141 C 
ATOM      7  C   UNL     1      33.525 -20.729 -19.938  0.00  0.00    +0.004 C 
ENDROOT
BRANCH   2  10
ATOM      8  O   UNL     1      34.822 -17.568 -24.617  0.00  0.00    -0.434 OA
ATOM      9  O   UNL     1      34.146 -19.726 -24.447  0.00  0.00    -0.226 OA
ATOM     10  N   UNL     1      34.937 -18.518 -22.573  0.00  0.00    -0.221 N 
ATOM     11  C   UNL     1      35.128 -16.507 -23.702  0.00  0.00    +0.210 C 
ATOM     12  C   UNL     1      35.530 -17.216 -22.427  0.00  0.00    +0.147 C 
ATOM     13  C   UNL     1      34.581 -18.721 -23.904  0.00  0.00    +0.409 C 
BRANCH  11  14
ATOM     14  C   UNL     1      33.895 -15.629 -23.538  0.00  0.00    +0.135 C 
BRANCH  14  16
ATOM     15  O   UNL     1      33.257 -13.023 -22.428  0.00  0.00    -0.275 OA
ATOM     16  N   UNL     1      34.083 -14.350 -24.156  0.00  0.00    -0.301 N 
ATOM     17  C   UNL     1      33.747 -13.145 -23.548  0.00  0.00    +0.223 C 
ATOM     18  C   UNL     1      34.073 -11.952 -24.407  0.00  0.00    +0.095 C 
ATOM     19  H   UNL     1      34.471 -14.323 -25.061  0.00  0.00    +0.150 HD
ENDBRANCH  14  16
ENDBRANCH  11  14
ENDBRANCH   2  10
BRANCH   5  20
ATOM     20  C   UNL     1      34.598 -22.229 -18.312  0.00  0.00    +0.002 C 
ATOM     21  C   UNL     1      34.424 -24.059 -16.214  0.00  0.00    -0.044 C 
ATOM     22  C   UNL     1      33.456 -23.016 -18.166  0.00  0.00    -0.000 C 
ATOM     23  C   UNL     1      35.653 -22.357 -17.409  0.00  0.00    -0.000 C 
ATOM     24  C   UNL     1      33.369 -23.932 -17.117  0.00  0.00    -0.006 C 
ATOM     25  C   UNL     1      35.567 -23.271 -16.359  0.00  0.00    -0.006 C 
BRANCH  21  26
ATOM     26  C   UNL     1      34.332 -25.038 -15.092  0.00  0.00    -0.054 C 
BRANCH  26  27
ATOM     27  N   UNL     1      35.327 -24.787 -14.048  0.00  0.00    +0.390 N 
ATOM     28  H   UNL     1      35.829 -23.926 -14.265  0.00  0.00    -0.083 HD
ATOM     29  H   UNL     1      35.973 -25.575 -14.014  0.00  0.00    -0.083 HD
BRANCH  27  30
ATOM     30  C   UNL     1      34.686 -24.651 -12.750  0.00  0.00    -0.031 C 
BRANCH  30  34
ATOM     31  N   UNL     1      35.510 -24.590 -10.417  0.00  0.00    -0.170 NA
ATOM     32  N   UNL     1      36.561 -23.980  -9.845  0.00  0.00    -0.157 N 
ATOM     33  N   UNL     1      37.372 -23.240 -10.618  0.00  0.00    -0.162 NA
ATOM     34  C   UNL     1      35.657 -24.206 -11.689  0.00  0.00    +0.077 C 
ATOM     35  C   UNL     1      36.787 -23.386 -11.811  0.00  0.00    +0.133 C 
ATOM     36  H   UNL     1      36.732 -24.073  -8.880  0.00  0.00    +0.197 HD
ENDBRANCH  30  34
ENDBRANCH  27  30
ENDBRANCH  26  27
ENDBRANCH  21  26
ENDBRANCH   5  20
TORSDOF 8
ENDMDL
MODEL 9
REMARK VINA RESULT:     -10.7      1.573      2.082
REMARK  Name = 11224409
REMARK  8 active torsions:
REMARK  status: ('A' for Active; 'I' for Inactive)
REMARK    1  A    between atoms: C_2  and  N_10
REMARK    2  A    between atoms: C_5  and  C_20
REMARK    3  A    between atoms: C_11  and  C_14
REMARK    4  A    between atoms: C_14  and  N_16
REMARK    5  A    between atoms: C_21  and  C_26
REMARK    6  A    between atoms: C_26  and  N_27
REMARK    7  A    between atoms: N_27  and  C_30
REMARK    8  A    between atoms: C_30  and  C_34
REMARK                            x       y       z     vdW  Elec       q    Type
REMARK                         _______ _______ _______ _____ _____    ______ ____
ROOT
ATOM      1  F   UNL     1      37.454 -19.983 -20.539  0.00  0.00    -0.204 F 
ATOM      2  C   UNL     1      35.250 -21.971 -18.442  0.00  0.00    +0.059 C 
ATOM      3  C   UNL     1      36.410 -21.398 -18.964  0.00  0.00    +0.045 C 
ATOM      4  C   UNL     1      34.010 -21.671 -19.006  0.00  0.00    +0.015 C 
ATOM      5  C   UNL     1      35.090 -20.227 -20.613  0.00  0.00    +0.028 C 
ATOM      6  C   UNL     1      36.330 -20.526 -20.049  0.00  0.00    +0.141 C 
ATOM      7  C   UNL     1      33.930 -20.799 -20.092  0.00  0.00    +0.004 C 
ENDROOT
BRANCH   2  10
ATOM      8  O   UNL     1      36.102 -24.044 -15.572  0.00  0.00    -0.434 OA
ATOM      9  O   UNL     1      37.573 -22.657 -16.601  0.00  0.00    -0.226 OA
ATOM     10  N   UNL     1      35.332 -22.862 -17.334  0.00  0.00    -0.221 N 
ATOM     11  C   UNL     1      34.683 -24.244 -15.594  0.00  0.00    +0.210 C 
ATOM     12  C   UNL     1      34.254 -23.735 -16.954  0.00  0.00    +0.147 C 
ATOM     13  C   UNL     1      36.441 -23.114 -16.529  0.00  0.00    +0.409 C 
BRANCH  11  14
ATOM     14  C   UNL     1      34.059 -23.471 -14.440  0.00  0.00    +0.135 C 
BRANCH  14  16
ATOM     15  O   UNL     1      36.322 -23.382 -12.622  0.00  0.00    -0.275 OA
ATOM     16  N   UNL     1      34.210 -24.177 -13.202  0.00  0.00    -0.301 N 
ATOM     17  C   UNL     1      35.335 -24.075 -12.390  0.00  0.00    +0.223 C 
ATOM     18  C   UNL     1      35.222 -24.903 -11.138  0.00  0.00    +0.095 C 
ATOM     19  H   UNL     1      33.478 -24.768 -12.912  0.00  0.00    +0.150 HD
ENDBRANCH  14  16
ENDBRANCH  11  14
ENDBRANCH   2  10
BRANCH   5  20
ATOM     20  C   UNL     1      35.002 -19.323 -21.740  0.00  0.00    +0.002 C 
ATOM     21  C   UNL     1      34.835 -17.580 -23.911  0.00  0.00    -0.044 C 
ATOM     22  C   UNL     1      35.233 -17.959 -21.559  0.00  0.00    -0.000 C 
ATOM     23  C   UNL     1      34.688 -19.815 -23.007  0.00  0.00    -0.000 C 
ATOM     24  C   UNL     1      35.150 -17.088 -22.645  0.00  0.00    -0.006 C 
ATOM     25  C   UNL     1      34.604 -18.944 -24.092  0.00  0.00    -0.006 C 
BRANCH  21  26
ATOM     26  C   UNL     1      34.747 -16.648 -25.073  0.00  0.00    -0.054 C 
BRANCH  26  27
ATOM     27  N   UNL     1      33.370 -16.241 -25.358  0.00  0.00    +0.390 N 
ATOM     28  H   UNL     1      32.813 -16.322 -24.507  0.00  0.00    -0.083 HD
ATOM     29  H   UNL     1      32.993 -16.847 -26.086  0.00  0.00    -0.083 HD
BRANCH  27  30
ATOM     30  C   UNL     1      33.328 -14.865 -25.827  0.00  0.00    -0.031 C 
BRANCH  30  34
ATOM     31  N   UNL     1      33.003 -14.203 -23.464  0.00  0.00    -0.170 NA
ATOM     32  N   UNL     1      33.276 -13.071 -22.797  0.00  0.00    -0.157 N 
ATOM     33  N   UNL     1      33.835 -12.050 -23.467  0.00  0.00    -0.162 NA
ATOM     34  C   UNL     1      33.428 -13.883 -24.690  0.00  0.00    +0.077 C 
ATOM     35  C   UNL     1      33.933 -12.575 -24.692  0.00  0.00    +0.133 C 
ATOM     36  H   UNL     1      33.071 -12.991 -21.837  0.00  0.00    +0.197 HD
ENDBRANCH  30  34
ENDBRANCH  27  30
ENDBRANCH  26  27
ENDBRANCH  21  26
ENDBRANCH   5  20
TORSDOF 8
ENDMDL
