MODEL 1
REMARK VINA RESULT:     -11.0      0.000      0.000
REMARK  Name = 4823
REMARK  3 active torsions:
REMARK  status: ('A' for Active; 'I' for Inactive)
REMARK    1  A    between atoms: C_3  and  C_16
REMARK    2  A    between atoms: C_9  and  C_21
REMARK    3  A    between atoms: C_26  and  O_27
REMARK                            x       y       z     vdW  Elec       q    Type
REMARK                         _______ _______ _______ _____ _____    ______ ____
ROOT
ATOM      1  N   UNL     1      35.802 -20.601 -19.857  0.00  0.00    -0.315 N 
ATOM      2  N   UNL     1      33.631 -20.897 -20.227  0.00  0.00    -0.315 N 
ATOM      3  C   UNL     1      35.303 -23.016 -17.082  0.00  0.00    +0.016 C 
ATOM      4  C   UNL     1      35.387 -21.496 -18.905  0.00  0.00    +0.059 C 
ATOM      5  C   UNL     1      36.062 -22.154 -17.876  0.00  0.00    +0.017 C 
ATOM      6  C   UNL     1      34.028 -21.665 -19.158  0.00  0.00    +0.059 C 
ATOM      7  C   UNL     1      33.941 -23.208 -17.306  0.00  0.00    +0.003 C 
ATOM      8  C   UNL     1      33.284 -22.537 -18.345  0.00  0.00    +0.016 C 
ATOM      9  C   UNL     1      34.718 -20.273 -20.622  0.00  0.00    +0.168 C 
ATOM     10  H   UNL     1      36.717 -20.256 -19.968  0.00  0.00    +0.149 HD
ATOM     11  H   UNL     1      32.727 -20.830 -20.614  0.00  0.00    +0.149 HD
ENDROOT
BRANCH   3  16
ATOM     12  O   UNL     1      38.015 -25.945 -13.275  0.00  0.00    -0.273 OA
ATOM     13  N   UNL     1      37.207 -23.463 -15.674  0.00  0.00    -0.184 NA
ATOM     14  N   UNL     1      37.833 -24.153 -14.694  0.00  0.00    -0.206 N 
ATOM     15  C   UNL     1      35.188 -24.789 -15.166  0.00  0.00    +0.051 C 
ATOM     16  C   UNL     1      35.973 -23.753 -15.959  0.00  0.00    +0.076 C 
ATOM     17  C   UNL     1      36.141 -25.900 -14.756  0.00  0.00    +0.093 C 
ATOM     18  C   UNL     1      34.529 -24.134 -13.950  0.00  0.00    +0.007 C 
ATOM     19  C   UNL     1      37.397 -25.339 -14.150  0.00  0.00    +0.241 C 
ATOM     20  H   UNL     1      38.670 -23.775 -14.340  0.00  0.00    +0.177 HD
ENDBRANCH   3  16
BRANCH   9  21
ATOM     21  C   UNL     1      34.812 -19.345 -21.723  0.00  0.00    +0.015 C 
ATOM     22  C   UNL     1      34.553 -19.778 -23.023  0.00  0.00    +0.002 C 
ATOM     23  C   UNL     1      35.164 -18.016 -21.487  0.00  0.00    +0.002 C 
ATOM     24  C   UNL     1      34.644 -18.881 -24.088  0.00  0.00    +0.037 C 
ATOM     25  C   UNL     1      35.255 -17.119 -22.551  0.00  0.00    +0.037 C 
ATOM     26  C   UNL     1      34.995 -17.552 -23.852  0.00  0.00    +0.139 C 
BRANCH  26  27
ATOM     27  O   UNL     1      35.084 -16.678 -24.890  0.00  0.00    -0.471 OA
ATOM     28  C   UNL     1      33.951 -15.845 -25.138  0.00  0.00    +0.252 C 
ENDBRANCH  26  27
ENDBRANCH   9  21
TORSDOF 3
ENDMDL
MODEL 2
REMARK VINA RESULT:     -10.5      1.173      1.425
REMARK  Name = 4823
REMARK  3 active torsions:
REMARK  status: ('A' for Active; 'I' for Inactive)
REMARK    1  A    between atoms: C_3  and  C_16
REMARK    2  A    between atoms: C_9  and  C_21
REMARK    3  A    between atoms: C_26  and  O_27
REMARK                            x       y       z     vdW  Elec       q    Type
REMARK                         _______ _______ _______ _____ _____    ______ ____
ROOT
ATOM      1  N   UNL     1      35.659 -20.863 -19.436  0.00  0.00    -0.315 N 
ATOM      2  N   UNL     1      33.523 -21.206 -19.946  0.00  0.00    -0.315 N 
ATOM      3  C   UNL     1      35.027 -23.264 -16.677  0.00  0.00    +0.016 C 
ATOM      4  C   UNL     1      35.200 -21.759 -18.505  0.00  0.00    +0.059 C 
ATOM      5  C   UNL     1      35.819 -22.394 -17.428  0.00  0.00    +0.017 C 
ATOM      6  C   UNL     1      33.864 -21.958 -18.845  0.00  0.00    +0.059 C 
ATOM      7  C   UNL     1      33.687 -23.487 -16.988  0.00  0.00    +0.003 C 
ATOM      8  C   UNL     1      33.086 -22.838 -18.075  0.00  0.00    +0.016 C 
ATOM      9  C   UNL     1      34.621 -20.564 -20.274  0.00  0.00    +0.168 C 
ATOM     10  H   UNL     1      36.573 -20.500 -19.491  0.00  0.00    +0.149 HD
ATOM     11  H   UNL     1      32.646 -21.161 -20.391  0.00  0.00    +0.149 HD
ENDROOT
BRANCH   3  16
ATOM     12  O   UNL     1      36.873 -25.811 -12.146  0.00  0.00    -0.273 OA
ATOM     13  N   UNL     1      35.186 -25.157 -15.195  0.00  0.00    -0.184 NA
ATOM     14  N   UNL     1      35.698 -25.789 -14.114  0.00  0.00    -0.206 N 
ATOM     15  C   UNL     1      36.779 -23.327 -14.739  0.00  0.00    +0.051 C 
ATOM     16  C   UNL     1      35.636 -23.978 -15.506  0.00  0.00    +0.076 C 
ATOM     17  C   UNL     1      36.655 -23.716 -13.275  0.00  0.00    +0.093 C 
ATOM     18  C   UNL     1      38.123 -23.761 -15.326  0.00  0.00    +0.007 C 
ATOM     19  C   UNL     1      36.449 -25.198 -13.125  0.00  0.00    +0.241 C 
ATOM     20  H   UNL     1      35.519 -26.754 -14.029  0.00  0.00    +0.177 HD
ENDBRANCH   3  16
BRANCH   9  21
ATOM     21  C   UNL     1      34.769 -19.643 -21.376  0.00  0.00    +0.015 C 
ATOM     22  C   UNL     1      34.596 -20.090 -22.685  0.00  0.00    +0.002 C 
ATOM     23  C   UNL     1      35.087 -18.307 -21.130  0.00  0.00    +0.002 C 
ATOM     24  C   UNL     1      34.739 -19.200 -23.750  0.00  0.00    +0.037 C 
ATOM     25  C   UNL     1      35.230 -17.418 -22.195  0.00  0.00    +0.037 C 
ATOM     26  C   UNL     1      35.056 -17.865 -23.505  0.00  0.00    +0.139 C 
BRANCH  26  27
ATOM     27  O   UNL     1      35.195 -16.997 -24.544  0.00  0.00    -0.471 OA
ATOM     28  C   UNL     1      34.207 -15.975 -24.675  0.00  0.00    +0.252 C 
ENDBRANCH  26  27
ENDBRANCH   9  21
TORSDOF 3
ENDMDL
MODEL 3
REMARK VINA RESULT:     -10.5      2.234      3.004
REMARK  Name = 4823
REMARK  3 active torsions:
REMARK  status: ('A' for Active; 'I' for Inactive)
REMARK    1  A    between atoms: C_3  and  C_16
REMARK    2  A    between atoms: C_9  and  C_21
REMARK    3  A    between atoms: C_26  and  O_27
REMARK                            x       y       z     vdW  Elec       q    Type
REMARK                         _______ _______ _______ _____ _____    ______ ____
ROOT
ATOM      1  N   UNL     1      33.800 -20.547 -20.419  0.00  0.00    -0.315 N 
ATOM      2  N   UNL     1      36.022 -20.488 -20.437  0.00  0.00    -0.315 N 
ATOM      3  C   UNL     1      34.227 -22.723 -17.442  0.00  0.00    +0.016 C 
ATOM      4  C   UNL     1      34.195 -21.319 -19.357  0.00  0.00    +0.059 C 
ATOM      5  C   UNL     1      33.478 -22.036 -18.400  0.00  0.00    +0.017 C 
ATOM      6  C   UNL     1      35.586 -21.266 -19.389  0.00  0.00    +0.059 C 
ATOM      7  C   UNL     1      35.621 -22.692 -17.445  0.00  0.00    +0.003 C 
ATOM      8  C   UNL     1      36.320 -21.965 -18.416  0.00  0.00    +0.016 C 
ATOM      9  C   UNL     1      34.926 -20.074 -21.032  0.00  0.00    +0.168 C 
ATOM     10  H   UNL     1      32.871 -20.367 -20.692  0.00  0.00    +0.149 HD
ATOM     11  H   UNL     1      36.953 -20.285 -20.686  0.00  0.00    +0.149 HD
ENDROOT
BRANCH   3  16
ATOM     12  O   UNL     1      31.345 -25.252 -13.478  0.00  0.00    -0.273 OA
ATOM     13  N   UNL     1      32.293 -23.895 -16.613  0.00  0.00    -0.184 NA
ATOM     14  N   UNL     1      31.626 -24.568 -15.648  0.00  0.00    -0.206 N 
ATOM     15  C   UNL     1      34.240 -23.874 -15.096  0.00  0.00    +0.051 C 
ATOM     16  C   UNL     1      33.513 -23.513 -16.385  0.00  0.00    +0.076 C 
ATOM     17  C   UNL     1      33.231 -23.867 -13.960  0.00  0.00    +0.093 C 
ATOM     18  C   UNL     1      34.920 -25.237 -15.238  0.00  0.00    +0.007 C 
ATOM     19  C   UNL     1      31.998 -24.646 -14.327  0.00  0.00    +0.241 C 
ATOM     20  H   UNL     1      30.805 -25.043 -15.914  0.00  0.00    +0.177 HD
ENDBRANCH   3  16
BRANCH   9  21
ATOM     21  C   UNL     1      34.862 -19.220 -22.195  0.00  0.00    +0.015 C 
ATOM     22  C   UNL     1      35.202 -17.872 -22.089  0.00  0.00    +0.002 C 
ATOM     23  C   UNL     1      34.459 -19.744 -23.423  0.00  0.00    +0.002 C 
ATOM     24  C   UNL     1      35.140 -17.047 -23.212  0.00  0.00    +0.037 C 
ATOM     25  C   UNL     1      34.397 -18.920 -24.546  0.00  0.00    +0.037 C 
ATOM     26  C   UNL     1      34.738 -17.571 -24.441  0.00  0.00    +0.139 C 
BRANCH  26  27
ATOM     27  O   UNL     1      34.678 -16.766 -25.536  0.00  0.00    -0.471 OA
ATOM     28  C   UNL     1      33.703 -15.724 -25.524  0.00  0.00    +0.252 C 
ENDBRANCH  26  27
ENDBRANCH   9  21
TORSDOF 3
ENDMDL
MODEL 4
REMARK VINA RESULT:     -10.3      1.592      2.252
REMARK  Name = 4823
REMARK  3 active torsions:
REMARK  status: ('A' for Active; 'I' for Inactive)
REMARK    1  A    between atoms: C_3  and  C_16
REMARK    2  A    between atoms: C_9  and  C_21
REMARK    3  A    between atoms: C_26  and  O_27
REMARK                            x       y       z     vdW  Elec       q    Type
REMARK                         _______ _______ _______ _____ _____    ______ ____
ROOT
ATOM      1  N   UNL     1      35.847 -21.629 -18.490  0.00  0.00    -0.315 N 
ATOM      2  N   UNL     1      33.745 -21.939 -19.140  0.00  0.00    -0.315 N 
ATOM      3  C   UNL     1      34.989 -23.996 -15.763  0.00  0.00    +0.016 C 
ATOM      4  C   UNL     1      35.311 -22.509 -17.586  0.00  0.00    +0.059 C 
ATOM      5  C   UNL     1      35.845 -23.145 -16.465  0.00  0.00    +0.017 C 
ATOM      6  C   UNL     1      33.998 -22.687 -18.013  0.00  0.00    +0.059 C 
ATOM      7  C   UNL     1      33.669 -24.198 -16.162  0.00  0.00    +0.003 C 
ATOM      8  C   UNL     1      33.155 -23.548 -17.291  0.00  0.00    +0.016 C 
ATOM      9  C   UNL     1      34.873 -21.318 -19.397  0.00  0.00    +0.168 C 
ATOM     10  H   UNL     1      36.769 -21.282 -18.486  0.00  0.00    +0.149 HD
ATOM     11  H   UNL     1      32.900 -21.883 -19.643  0.00  0.00    +0.149 HD
ENDROOT
BRANCH   3  16
ATOM     12  O   UNL     1      36.958 -26.211 -11.111  0.00  0.00    -0.273 OA
ATOM     13  N   UNL     1      34.782 -24.707 -13.471  0.00  0.00    -0.184 NA
ATOM     14  N   UNL     1      35.258 -25.311 -12.358  0.00  0.00    -0.206 N 
ATOM     15  C   UNL     1      36.837 -25.448 -14.619  0.00  0.00    +0.051 C 
ATOM     16  C   UNL     1      35.506 -24.711 -14.549  0.00  0.00    +0.076 C 
ATOM     17  C   UNL     1      37.516 -25.337 -13.263  0.00  0.00    +0.093 C 
ATOM     18  C   UNL     1      36.613 -26.907 -15.020  0.00  0.00    +0.007 C 
ATOM     19  C   UNL     1      36.565 -25.686 -12.152  0.00  0.00    +0.241 C 
ATOM     20  H   UNL     1      34.616 -25.498 -11.635  0.00  0.00    +0.177 HD
ENDBRANCH   3  16
BRANCH   9  21
ATOM     21  C   UNL     1      35.111 -20.409 -20.493  0.00  0.00    +0.015 C 
ATOM     22  C   UNL     1      36.333 -19.747 -20.596  0.00  0.00    +0.002 C 
ATOM     23  C   UNL     1      34.117 -20.192 -21.448  0.00  0.00    +0.002 C 
ATOM     24  C   UNL     1      36.563 -18.868 -21.655  0.00  0.00    +0.037 C 
ATOM     25  C   UNL     1      34.347 -19.314 -22.506  0.00  0.00    +0.037 C 
ATOM     26  C   UNL     1      35.570 -18.652 -22.610  0.00  0.00    +0.139 C 
BRANCH  26  27
ATOM     27  O   UNL     1      35.795 -17.795 -23.643  0.00  0.00    -0.471 OA
ATOM     28  C   UNL     1      34.969 -16.633 -23.714  0.00  0.00    +0.252 C 
ENDBRANCH  26  27
ENDBRANCH   9  21
TORSDOF 3
ENDMDL
MODEL 5
REMARK VINA RESULT:     -10.2      2.844      9.379
REMARK  Name = 4823
REMARK  3 active torsions:
REMARK  status: ('A' for Active; 'I' for Inactive)
REMARK    1  A    between atoms: C_3  and  C_16
REMARK    2  A    between atoms: C_9  and  C_21
REMARK    3  A    between atoms: C_26  and  O_27
REMARK                            x       y       z     vdW  Elec       q    Type
REMARK                         _______ _______ _______ _____ _____    ______ ____
ROOT
ATOM      1  N   UNL     1      32.724 -21.829 -18.613  0.00  0.00    -0.315 N 
ATOM      2  N   UNL     1      34.598 -22.706 -17.801  0.00  0.00    -0.315 N 
ATOM      3  C   UNL     1      34.953 -20.287 -21.149  0.00  0.00    +0.016 C 
ATOM      4  C   UNL     1      33.725 -21.373 -19.431  0.00  0.00    +0.059 C 
ATOM      5  C   UNL     1      33.717 -20.544 -20.552  0.00  0.00    +0.017 C 
ATOM      6  C   UNL     1      34.885 -21.935 -18.904  0.00  0.00    +0.059 C 
ATOM      7  C   UNL     1      36.134 -20.832 -20.648  0.00  0.00    +0.003 C 
ATOM      8  C   UNL     1      36.118 -21.663 -19.520  0.00  0.00    +0.016 C 
ATOM      9  C   UNL     1      33.295 -22.620 -17.656  0.00  0.00    +0.168 C 
ATOM     10  H   UNL     1      31.765 -21.622 -18.699  0.00  0.00    +0.149 HD
ATOM     11  H   UNL     1      35.232 -23.213 -17.243  0.00  0.00    +0.149 HD
ENDROOT
BRANCH   3  16
ATOM     12  O   UNL     1      34.851 -16.766 -25.393  0.00  0.00    -0.273 OA
ATOM     13  N   UNL     1      35.589 -18.244 -22.256  0.00  0.00    -0.184 NA
ATOM     14  N   UNL     1      35.606 -17.421 -23.330  0.00  0.00    -0.206 N 
ATOM     15  C   UNL     1      34.424 -19.892 -23.677  0.00  0.00    +0.051 C 
ATOM     16  C   UNL     1      35.010 -19.402 -22.359  0.00  0.00    +0.076 C 
ATOM     17  C   UNL     1      33.841 -18.698 -24.415  0.00  0.00    +0.093 C 
ATOM     18  C   UNL     1      35.502 -20.596 -24.504  0.00  0.00    +0.007 C 
ATOM     19  C   UNL     1      34.818 -17.555 -24.449  0.00  0.00    +0.241 C 
ATOM     20  H   UNL     1      36.234 -16.664 -23.308  0.00  0.00    +0.177 HD
ENDBRANCH   3  16
BRANCH   9  21
ATOM     21  C   UNL     1      32.512 -23.264 -16.629  0.00  0.00    +0.015 C 
ATOM     22  C   UNL     1      31.120 -23.185 -16.661  0.00  0.00    +0.002 C 
ATOM     23  C   UNL     1      33.147 -23.964 -15.603  0.00  0.00    +0.002 C 
ATOM     24  C   UNL     1      30.362 -23.807 -15.669  0.00  0.00    +0.037 C 
ATOM     25  C   UNL     1      32.390 -24.587 -14.611  0.00  0.00    +0.037 C 
ATOM     26  C   UNL     1      30.997 -24.508 -14.644  0.00  0.00    +0.139 C 
BRANCH  26  27
ATOM     27  O   UNL     1      30.258 -25.115 -13.676  0.00  0.00    -0.471 OA
ATOM     28  C   UNL     1      29.076 -25.798 -14.092  0.00  0.00    +0.252 C 
ENDBRANCH  26  27
ENDBRANCH   9  21
TORSDOF 3
ENDMDL
MODEL 6
REMARK VINA RESULT:     -10.0      7.519     13.447
REMARK  Name = 4823
REMARK  3 active torsions:
REMARK  status: ('A' for Active; 'I' for Inactive)
REMARK    1  A    between atoms: C_3  and  C_16
REMARK    2  A    between atoms: C_9  and  C_21
REMARK    3  A    between atoms: C_26  and  O_27
REMARK                            x       y       z     vdW  Elec       q    Type
REMARK                         _______ _______ _______ _____ _____    ______ ____
ROOT
ATOM      1  N   UNL     1      33.885 -12.938 -22.882  0.00  0.00    -0.315 N 
ATOM      2  N   UNL     1      32.452 -13.786 -21.411  0.00  0.00    -0.315 N 
ATOM      3  C   UNL     1      32.097  -9.744 -22.261  0.00  0.00    +0.016 C 
ATOM      4  C   UNL     1      33.090 -11.889 -22.500  0.00  0.00    +0.059 C 
ATOM      5  C   UNL     1      33.069 -10.543 -22.867  0.00  0.00    +0.017 C 
ATOM      6  C   UNL     1      32.203 -12.444 -21.580  0.00  0.00    +0.059 C 
ATOM      7  C   UNL     1      31.194 -10.267 -21.336  0.00  0.00    +0.003 C 
ATOM      8  C   UNL     1      31.233 -11.621 -20.983  0.00  0.00    +0.016 C 
ATOM      9  C   UNL     1      33.465 -14.048 -22.205  0.00  0.00    +0.168 C 
ATOM     10  H   UNL     1      34.626 -12.898 -23.530  0.00  0.00    +0.149 HD
ATOM     11  H   UNL     1      31.974 -14.414 -20.821  0.00  0.00    +0.149 HD
ENDROOT
BRANCH   3  16
ATOM     12  O   UNL     1      31.906  -4.512 -23.995  0.00  0.00    -0.273 OA
ATOM     13  N   UNL     1      30.986  -7.856 -23.263  0.00  0.00    -0.184 NA
ATOM     14  N   UNL     1      30.933  -6.554 -23.625  0.00  0.00    -0.206 N 
ATOM     15  C   UNL     1      33.143  -7.351 -22.176  0.00  0.00    +0.051 C 
ATOM     16  C   UNL     1      32.025  -8.288 -22.613  0.00  0.00    +0.076 C 
ATOM     17  C   UNL     1      33.321  -6.286 -23.245  0.00  0.00    +0.093 C 
ATOM     18  C   UNL     1      32.813  -6.736 -20.814  0.00  0.00    +0.007 C 
ATOM     19  C   UNL     1      31.998  -5.685 -23.634  0.00  0.00    +0.241 C 
ATOM     20  H   UNL     1      30.058  -6.199 -23.905  0.00  0.00    +0.177 HD
ENDBRANCH   3  16
BRANCH   9  21
ATOM     21  C   UNL     1      34.098 -15.334 -22.379  0.00  0.00    +0.015 C 
ATOM     22  C   UNL     1      34.332 -15.827 -23.661  0.00  0.00    +0.002 C 
ATOM     23  C   UNL     1      34.472 -16.083 -21.263  0.00  0.00    +0.002 C 
ATOM     24  C   UNL     1      34.944 -17.070 -23.829  0.00  0.00    +0.037 C 
ATOM     25  C   UNL     1      35.083 -17.325 -21.430  0.00  0.00    +0.037 C 
ATOM     26  C   UNL     1      35.319 -17.819 -22.714  0.00  0.00    +0.139 C 
BRANCH  26  27
ATOM     27  O   UNL     1      35.915 -19.031 -22.878  0.00  0.00    -0.471 OA
ATOM     28  C   UNL     1      35.093 -20.104 -23.335  0.00  0.00    +0.252 C 
ENDBRANCH  26  27
ENDBRANCH   9  21
TORSDOF 3
ENDMDL
MODEL 7
REMARK VINA RESULT:      -9.9      5.601     11.240
REMARK  Name = 4823
REMARK  3 active torsions:
REMARK  status: ('A' for Active; 'I' for Inactive)
REMARK    1  A    between atoms: C_3  and  C_16
REMARK    2  A    between atoms: C_9  and  C_21
REMARK    3  A    between atoms: C_26  and  O_27
REMARK                            x       y       z     vdW  Elec       q    Type
REMARK                         _______ _______ _______ _____ _____    ______ ____
ROOT
ATOM      1  N   UNL     1      34.227 -16.118 -20.824  0.00  0.00    -0.315 N 
ATOM      2  N   UNL     1      34.896 -16.656 -22.873  0.00  0.00    -0.315 N 
ATOM      3  C   UNL     1      33.221 -12.897 -22.371  0.00  0.00    +0.016 C 
ATOM      4  C   UNL     1      33.941 -15.025 -21.600  0.00  0.00    +0.059 C 
ATOM      5  C   UNL     1      33.362 -13.790 -21.306  0.00  0.00    +0.017 C 
ATOM      6  C   UNL     1      34.367 -15.385 -22.875  0.00  0.00    +0.059 C 
ATOM      7  C   UNL     1      33.638 -13.225 -23.660  0.00  0.00    +0.003 C 
ATOM      8  C   UNL     1      34.216 -14.471 -23.932  0.00  0.00    +0.016 C 
ATOM      9  C   UNL     1      34.796 -17.064 -21.629  0.00  0.00    +0.168 C 
ATOM     10  H   UNL     1      34.054 -16.204 -19.858  0.00  0.00    +0.149 HD
ATOM     11  H   UNL     1      35.268 -17.150 -23.639  0.00  0.00    +0.149 HD
ENDROOT
BRANCH   3  16
ATOM     12  O   UNL     1      31.383  -7.785 -21.415  0.00  0.00    -0.273 OA
ATOM     13  N   UNL     1      32.676 -10.652 -23.052  0.00  0.00    -0.184 NA
ATOM     14  N   UNL     1      32.163  -9.422 -22.818  0.00  0.00    -0.206 N 
ATOM     15  C   UNL     1      31.888 -11.288 -20.802  0.00  0.00    +0.051 C 
ATOM     16  C   UNL     1      32.605 -11.552 -22.119  0.00  0.00    +0.076 C 
ATOM     17  C   UNL     1      32.108  -9.833 -20.421  0.00  0.00    +0.093 C 
ATOM     18  C   UNL     1      30.400 -11.617 -20.936  0.00  0.00    +0.007 C 
ATOM     19  C   UNL     1      31.825  -8.922 -21.583  0.00  0.00    +0.241 C 
ATOM     20  H   UNL     1      32.019  -8.837 -23.597  0.00  0.00    +0.177 HD
ENDBRANCH   3  16
BRANCH   9  21
ATOM     21  C   UNL     1      35.219 -18.347 -21.120  0.00  0.00    +0.015 C 
ATOM     22  C   UNL     1      36.573 -18.602 -20.911  0.00  0.00    +0.002 C 
ATOM     23  C   UNL     1      34.271 -19.332 -20.839  0.00  0.00    +0.002 C 
ATOM     24  C   UNL     1      36.982 -19.842 -20.419  0.00  0.00    +0.037 C 
ATOM     25  C   UNL     1      34.679 -20.572 -20.347  0.00  0.00    +0.037 C 
ATOM     26  C   UNL     1      36.035 -20.826 -20.137  0.00  0.00    +0.139 C 
BRANCH  26  27
ATOM     27  O   UNL     1      36.433 -22.036 -19.657  0.00  0.00    -0.471 OA
ATOM     28  C   UNL     1      36.549 -22.167 -18.241  0.00  0.00    +0.252 C 
ENDBRANCH  26  27
ENDBRANCH   9  21
TORSDOF 3
ENDMDL
MODEL 8
REMARK VINA RESULT:      -9.8      1.683      9.409
REMARK  Name = 4823
REMARK  3 active torsions:
REMARK  status: ('A' for Active; 'I' for Inactive)
REMARK    1  A    between atoms: C_3  and  C_16
REMARK    2  A    between atoms: C_9  and  C_21
REMARK    3  A    between atoms: C_26  and  O_27
REMARK                            x       y       z     vdW  Elec       q    Type
REMARK                         _______ _______ _______ _____ _____    ______ ____
ROOT
ATOM      1  N   UNL     1      36.416 -21.887 -18.253  0.00  0.00    -0.315 N 
ATOM      2  N   UNL     1      34.376 -22.564 -17.689  0.00  0.00    -0.315 N 
ATOM      3  C   UNL     1      34.696 -20.176 -21.062  0.00  0.00    +0.016 C 
ATOM      4  C   UNL     1      35.579 -21.350 -19.196  0.00  0.00    +0.059 C 
ATOM      5  C   UNL     1      35.814 -20.543 -20.310  0.00  0.00    +0.017 C 
ATOM      6  C   UNL     1      34.310 -21.786 -18.822  0.00  0.00    +0.059 C 
ATOM      7  C   UNL     1      33.412 -20.595 -20.717  0.00  0.00    +0.003 C 
ATOM      8  C   UNL     1      33.200 -21.405 -19.594  0.00  0.00    +0.016 C 
ATOM      9  C   UNL     1      35.651 -22.604 -17.376  0.00  0.00    +0.168 C 
ATOM     10  H   UNL     1      37.394 -21.777 -18.215  0.00  0.00    +0.149 HD
ATOM     11  H   UNL     1      33.628 -22.997 -17.216  0.00  0.00    +0.149 HD
ENDROOT
BRANCH   3  16
ATOM     12  O   UNL     1      35.067 -16.704 -25.332  0.00  0.00    -0.273 OA
ATOM     13  N   UNL     1      35.486 -18.166 -22.130  0.00  0.00    -0.184 NA
ATOM     14  N   UNL     1      35.621 -17.357 -23.205  0.00  0.00    -0.206 N 
ATOM     15  C   UNL     1      34.399 -19.796 -23.631  0.00  0.00    +0.051 C 
ATOM     16  C   UNL     1      34.884 -19.308 -22.272  0.00  0.00    +0.076 C 
ATOM     17  C   UNL     1      33.919 -18.594 -24.427  0.00  0.00    +0.093 C 
ATOM     18  C   UNL     1      35.522 -20.541 -24.355  0.00  0.00    +0.007 C 
ATOM     19  C   UNL     1      34.929 -17.481 -24.387  0.00  0.00    +0.241 C 
ATOM     20  H   UNL     1      36.268 -16.618 -23.136  0.00  0.00    +0.177 HD
ENDBRANCH   3  16
BRANCH   9  21
ATOM     21  C   UNL     1      36.228 -23.302 -16.252  0.00  0.00    +0.015 C 
ATOM     22  C   UNL     1      35.430 -24.129 -15.462  0.00  0.00    +0.002 C 
ATOM     23  C   UNL     1      37.582 -23.148 -15.955  0.00  0.00    +0.002 C 
ATOM     24  C   UNL     1      35.988 -24.805 -14.376  0.00  0.00    +0.037 C 
ATOM     25  C   UNL     1      38.139 -23.822 -14.870  0.00  0.00    +0.037 C 
ATOM     26  C   UNL     1      37.342 -24.651 -14.080  0.00  0.00    +0.139 C 
BRANCH  26  27
ATOM     27  O   UNL     1      37.885 -25.309 -13.020  0.00  0.00    -0.471 OA
ATOM     28  C   UNL     1      37.288 -26.552 -12.651  0.00  0.00    +0.252 C 
ENDBRANCH  26  27
ENDBRANCH   9  21
TORSDOF 3
ENDMDL
MODEL 9
REMARK VINA RESULT:      -9.7      7.137     13.001
REMARK  Name = 4823
REMARK  3 active torsions:
REMARK  status: ('A' for Active; 'I' for Inactive)
REMARK    1  A    between atoms: C_3  and  C_16
REMARK    2  A    between atoms: C_9  and  C_21
REMARK    3  A    between atoms: C_26  and  O_27
REMARK                            x       y       z     vdW  Elec       q    Type
REMARK                         _______ _______ _______ _____ _____    ______ ____
ROOT
ATOM      1  N   UNL     1      33.437 -13.713 -21.934  0.00  0.00    -0.315 N 
ATOM      2  N   UNL     1      34.670 -13.713 -23.782  0.00  0.00    -0.315 N 
ATOM      3  C   UNL     1      32.807 -10.151 -22.769  0.00  0.00    +0.016 C 
ATOM      4  C   UNL     1      33.347 -12.440 -22.433  0.00  0.00    +0.059 C 
ATOM      5  C   UNL     1      32.672 -11.302 -21.990  0.00  0.00    +0.017 C 
ATOM      6  C   UNL     1      34.124 -12.465 -23.588  0.00  0.00    +0.059 C 
ATOM      7  C   UNL     1      33.578 -10.141 -23.930  0.00  0.00    +0.003 C 
ATOM      8  C   UNL     1      34.247 -11.295 -24.357  0.00  0.00    +0.016 C 
ATOM      9  C   UNL     1      34.238 -14.435 -22.774  0.00  0.00    +0.168 C 
ATOM     10  H   UNL     1      33.004 -14.046 -21.115  0.00  0.00    +0.149 HD
ATOM     11  H   UNL     1      35.257 -14.002 -24.519  0.00  0.00    +0.149 HD
ENDROOT
BRANCH   3  16
ATOM     12  O   UNL     1      30.383  -5.338 -21.593  0.00  0.00    -0.273 OA
ATOM     13  N   UNL     1      31.044  -8.526 -22.997  0.00  0.00    -0.184 NA
ATOM     14  N   UNL     1      30.429  -7.372 -22.651  0.00  0.00    -0.206 N 
ATOM     15  C   UNL     1      32.625  -8.110 -21.148  0.00  0.00    +0.051 C 
ATOM     16  C   UNL     1      32.105  -8.895 -22.345  0.00  0.00    +0.076 C 
ATOM     17  C   UNL     1      32.384  -6.631 -21.406  0.00  0.00    +0.093 C 
ATOM     18  C   UNL     1      31.933  -8.579 -19.867  0.00  0.00    +0.007 C 
ATOM     19  C   UNL     1      30.972  -6.385 -21.862  0.00  0.00    +0.241 C 
ATOM     20  H   UNL     1      29.517  -7.227 -22.992  0.00  0.00    +0.177 HD
ENDBRANCH   3  16
BRANCH   9  21
ATOM     21  C   UNL     1      34.540 -15.826 -22.534  0.00  0.00    +0.015 C 
ATOM     22  C   UNL     1      34.753 -16.688 -23.609  0.00  0.00    +0.002 C 
ATOM     23  C   UNL     1      34.616 -16.307 -21.227  0.00  0.00    +0.002 C 
ATOM     24  C   UNL     1      35.045 -18.032 -23.377  0.00  0.00    +0.037 C 
ATOM     25  C   UNL     1      34.908 -17.651 -20.995  0.00  0.00    +0.037 C 
ATOM     26  C   UNL     1      35.123 -18.514 -22.070  0.00  0.00    +0.139 C 
BRANCH  26  27
ATOM     27  O   UNL     1      35.407 -19.825 -21.844  0.00  0.00    -0.471 OA
ATOM     28  C   UNL     1      34.901 -20.402 -20.641  0.00  0.00    +0.252 C 
ENDBRANCH  26  27
ENDBRANCH   9  21
TORSDOF 3
ENDMDL
