MODEL 1
REMARK VINA RESULT:     -11.4      0.000      0.000
REMARK  Name = 15984937
REMARK  6 active torsions:
REMARK  status: ('A' for Active; 'I' for Inactive)
REMARK    1  A    between atoms: C_1  and  C_9
REMARK    2  A    between atoms: C_1  and  C_20
REMARK    3  A    between atoms: C_4  and  N_10
REMARK    4  A    between atoms: N_10  and  C_13
REMARK    5  A    between atoms: C_19  and  C_25
REMARK    6  A    between atoms: C_25  and  N_26
REMARK                            x       y       z     vdW  Elec       q    Type
REMARK                         _______ _______ _______ _____ _____    ______ ____
ROOT
ATOM      1  C   UNL     1      31.020 -11.962 -21.010  0.00  0.00    +0.112 C 
ENDROOT
BRANCH   1   9
ATOM      2  O   UNL     1      31.580 -10.878 -18.978  0.00  0.00    -0.275 OA
ATOM      3  N   UNL     1      31.978  -9.685 -20.932  0.00  0.00    -0.279 N 
ATOM      4  C   UNL     1      31.663  -7.046 -22.115  0.00  0.00    +0.072 C 
ATOM      5  C   UNL     1      31.171  -8.317 -22.817  0.00  0.00    +0.041 C 
ATOM      6  C   UNL     1      31.773  -7.250 -20.600  0.00  0.00    +0.041 C 
ATOM      7  C   UNL     1      31.953  -9.561 -22.394  0.00  0.00    +0.095 C 
ATOM      8  C   UNL     1      32.528  -8.526 -20.229  0.00  0.00    +0.095 C 
ATOM      9  C   UNL     1      31.550 -10.799 -20.209  0.00  0.00    +0.230 C 
BRANCH   4  10
ATOM     10  N   UNL     1      32.942  -6.642 -22.665  0.00  0.00    -0.334 N 
ATOM     11  H   UNL     1      33.762  -6.964 -22.223  0.00  0.00    +0.147 HD
BRANCH  10  13
ATOM     12  F   UNL     1      31.442  -2.941 -25.324  0.00  0.00    -0.204 F 
ATOM     13  C   UNL     1      33.074  -5.826 -23.774  0.00  0.00    +0.047 C 
ATOM     14  C   UNL     1      32.175  -4.766 -24.005  0.00  0.00    +0.044 C 
ATOM     15  C   UNL     1      34.110  -6.031 -24.706  0.00  0.00    +0.014 C 
ATOM     16  C   UNL     1      32.307  -3.945 -25.124  0.00  0.00    +0.141 C 
ATOM     17  C   UNL     1      34.242  -5.210 -25.826  0.00  0.00    +0.004 C 
ATOM     18  C   UNL     1      33.340  -4.166 -26.034  0.00  0.00    +0.030 C 
ENDBRANCH  10  13
ENDBRANCH   4  10
ENDBRANCH   1   9
BRANCH   1  20
ATOM     19  C   UNL     1      34.119 -14.821 -21.748  0.00  0.00    -0.043 C 
ATOM     20  C   UNL     1      32.103 -12.961 -21.268  0.00  0.00    -0.013 C 
ATOM     21  C   UNL     1      33.347 -14.913 -20.590  0.00  0.00    -0.007 C 
ATOM     22  C   UNL     1      33.881 -13.798 -22.665  0.00  0.00    -0.007 C 
ATOM     23  C   UNL     1      32.337 -13.981 -20.349  0.00  0.00    -0.004 C 
ATOM     24  C   UNL     1      32.872 -12.866 -22.425  0.00  0.00    -0.004 C 
BRANCH  19  25
ATOM     25  C   UNL     1      35.198 -15.817 -22.005  0.00  0.00    -0.050 C 
BRANCH  25  26
ATOM     26  N   UNL     1      34.672 -17.161 -22.240  0.00  0.00    +0.387 N 
ATOM     27  N   UNL     1      34.954 -19.966 -22.870  0.00  0.00    +0.382 N 
ATOM     28  C   UNL     1      34.654 -19.524 -21.503  0.00  0.00    -0.083 C 
ATOM     29  C   UNL     1      35.211 -18.111 -21.257  0.00  0.00    -0.099 C 
ATOM     30  C   UNL     1      34.977 -17.607 -23.605  0.00  0.00    -0.101 C 
ATOM     31  C   UNL     1      34.431 -19.015 -23.850  0.00  0.00    -0.105 C 
ATOM     32  C   UNL     1      35.257 -20.520 -20.514  0.00  0.00    -0.026 C 
ATOM     33  H   UNL     1      33.659 -17.126 -22.132  0.00  0.00    -0.079 HD
ATOM     34  H   UNL     1      34.526 -20.878 -23.028  0.00  0.00    -0.085 HD
ATOM     35  H   UNL     1      35.966 -20.024 -22.980  0.00  0.00    -0.085 HD
ENDBRANCH  25  26
ENDBRANCH  19  25
ENDBRANCH   1  20
TORSDOF 6
ENDMDL
MODEL 2
REMARK VINA RESULT:     -11.0      4.806      8.850
REMARK  Name = 15984937
REMARK  6 active torsions:
REMARK  status: ('A' for Active; 'I' for Inactive)
REMARK    1  A    between atoms: C_1  and  C_9
REMARK    2  A    between atoms: C_1  and  C_20
REMARK    3  A    between atoms: C_4  and  N_10
REMARK    4  A    between atoms: N_10  and  C_13
REMARK    5  A    between atoms: C_19  and  C_25
REMARK    6  A    between atoms: C_25  and  N_26
REMARK                            x       y       z     vdW  Elec       q    Type
REMARK                         _______ _______ _______ _____ _____    ______ ____
ROOT
ATOM      1  C   UNL     1      35.925 -19.335 -21.240  0.00  0.00    +0.112 C 
ENDROOT
BRANCH   1   9
ATOM      2  O   UNL     1      35.342 -20.297 -23.326  0.00  0.00    -0.275 OA
ATOM      3  N   UNL     1      34.768 -18.066 -23.017  0.00  0.00    -0.279 N 
ATOM      4  C   UNL     1      34.799 -15.482 -24.352  0.00  0.00    +0.072 C 
ATOM      5  C   UNL     1      35.379 -15.680 -22.948  0.00  0.00    +0.041 C 
ATOM      6  C   UNL     1      34.762 -16.800 -25.134  0.00  0.00    +0.041 C 
ATOM      7  C   UNL     1      34.728 -16.847 -22.203  0.00  0.00    +0.095 C 
ATOM      8  C   UNL     1      34.140 -17.944 -24.333  0.00  0.00    +0.095 C 
ATOM      9  C   UNL     1      35.321 -19.284 -22.621  0.00  0.00    +0.230 C 
BRANCH   4  10
ATOM     10  N   UNL     1      33.470 -14.911 -24.262  0.00  0.00    -0.334 N 
ATOM     11  H   UNL     1      32.727 -15.388 -24.700  0.00  0.00    +0.147 HD
BRANCH  10  13
ATOM     12  F   UNL     1      31.343 -12.556 -20.664  0.00  0.00    -0.204 F 
ATOM     13  C   UNL     1      33.188 -13.731 -23.598  0.00  0.00    +0.047 C 
ATOM     14  C   UNL     1      32.389 -13.727 -22.436  0.00  0.00    +0.044 C 
ATOM     15  C   UNL     1      33.689 -12.499 -24.061  0.00  0.00    +0.014 C 
ATOM     16  C   UNL     1      32.104 -12.537 -21.767  0.00  0.00    +0.141 C 
ATOM     17  C   UNL     1      33.403 -11.309 -23.392  0.00  0.00    +0.004 C 
ATOM     18  C   UNL     1      32.610 -11.329 -22.244  0.00  0.00    +0.030 C 
ENDBRANCH  10  13
ENDBRANCH   4  10
ENDBRANCH   1   9
BRANCH   1  20
ATOM     19  C   UNL     1      34.104 -22.429 -18.909  0.00  0.00    -0.043 C 
ATOM     20  C   UNL     1      35.288 -20.416 -20.426  0.00  0.00    -0.013 C 
ATOM     21  C   UNL     1      35.492 -22.375 -19.034  0.00  0.00    -0.007 C 
ATOM     22  C   UNL     1      33.309 -21.475 -19.544  0.00  0.00    -0.007 C 
ATOM     23  C   UNL     1      36.086 -21.367 -19.793  0.00  0.00    -0.004 C 
ATOM     24  C   UNL     1      33.902 -20.467 -20.305  0.00  0.00    -0.004 C 
BRANCH  19  25
ATOM     25  C   UNL     1      33.469 -23.507 -18.098  0.00  0.00    -0.050 C 
BRANCH  25  26
ATOM     26  N   UNL     1      33.387 -23.161 -16.679  0.00  0.00    +0.387 N 
ATOM     27  N   UNL     1      33.010 -23.801 -13.888  0.00  0.00    +0.382 N 
ATOM     28  C   UNL     1      34.341 -23.492 -14.420  0.00  0.00    -0.083 C 
ATOM     29  C   UNL     1      34.427 -23.858 -15.911  0.00  0.00    -0.099 C 
ATOM     30  C   UNL     1      32.057 -23.476 -16.144  0.00  0.00    -0.101 C 
ATOM     31  C   UNL     1      31.971 -23.119 -14.659  0.00  0.00    -0.105 C 
ATOM     32  C   UNL     1      35.390 -24.259 -13.616  0.00  0.00    -0.026 C 
ATOM     33  H   UNL     1      33.539 -22.157 -16.590  0.00  0.00    -0.079 HD
ATOM     34  H   UNL     1      32.958 -23.496 -12.916  0.00  0.00    -0.085 HD
ATOM     35  H   UNL     1      32.857 -24.807 -13.954  0.00  0.00    -0.085 HD
ENDBRANCH  25  26
ENDBRANCH  19  25
ENDBRANCH   1  20
TORSDOF 6
ENDMDL
MODEL 3
REMARK VINA RESULT:     -10.8      6.456     11.145
REMARK  Name = 15984937
REMARK  6 active torsions:
REMARK  status: ('A' for Active; 'I' for Inactive)
REMARK    1  A    between atoms: C_1  and  C_9
REMARK    2  A    between atoms: C_1  and  C_20
REMARK    3  A    between atoms: C_4  and  N_10
REMARK    4  A    between atoms: N_10  and  C_13
REMARK    5  A    between atoms: C_19  and  C_25
REMARK    6  A    between atoms: C_25  and  N_26
REMARK                            x       y       z     vdW  Elec       q    Type
REMARK                         _______ _______ _______ _____ _____    ______ ____
ROOT
ATOM      1  C   UNL     1      36.769 -21.657 -19.155  0.00  0.00    +0.112 C 
ENDROOT
BRANCH   1   9
ATOM      2  O   UNL     1      34.456 -21.878 -19.617  0.00  0.00    -0.275 OA
ATOM      3  N   UNL     1      35.526 -20.037 -20.546  0.00  0.00    -0.279 N 
ATOM      4  C   UNL     1      35.752 -18.518 -23.016  0.00  0.00    +0.072 C 
ATOM      5  C   UNL     1      36.982 -19.039 -22.265  0.00  0.00    +0.041 C 
ATOM      6  C   UNL     1      34.501 -19.335 -22.676  0.00  0.00    +0.041 C 
ATOM      7  C   UNL     1      36.723 -19.219 -20.769  0.00  0.00    +0.095 C 
ATOM      8  C   UNL     1      34.308 -19.521 -21.171  0.00  0.00    +0.095 C 
ATOM      9  C   UNL     1      35.477 -21.207 -19.788  0.00  0.00    +0.230 C 
BRANCH   4  10
ATOM     10  N   UNL     1      35.541 -17.117 -22.707  0.00  0.00    -0.334 N 
ATOM     11  H   UNL     1      35.983 -16.744 -21.910  0.00  0.00    +0.147 HD
BRANCH  10  13
ATOM     12  F   UNL     1      32.862 -13.160 -23.134  0.00  0.00    -0.204 F 
ATOM     13  C   UNL     1      34.750 -16.277 -23.469  0.00  0.00    +0.047 C 
ATOM     14  C   UNL     1      34.186 -15.111 -22.914  0.00  0.00    +0.044 C 
ATOM     15  C   UNL     1      34.483 -16.562 -24.823  0.00  0.00    +0.014 C 
ATOM     16  C   UNL     1      33.387 -14.265 -23.682  0.00  0.00    +0.141 C 
ATOM     17  C   UNL     1      33.684 -15.715 -25.591  0.00  0.00    +0.004 C 
ATOM     18  C   UNL     1      33.136 -14.566 -25.020  0.00  0.00    +0.030 C 
ENDBRANCH  10  13
ENDBRANCH   4  10
ENDBRANCH   1   9
BRANCH   1  20
ATOM     19  C   UNL     1      36.075 -23.134 -15.198  0.00  0.00    -0.043 C 
ATOM     20  C   UNL     1      36.527 -22.173 -17.772  0.00  0.00    -0.013 C 
ATOM     21  C   UNL     1      35.078 -23.243 -16.168  0.00  0.00    -0.007 C 
ATOM     22  C   UNL     1      37.297 -22.544 -15.518  0.00  0.00    -0.007 C 
ATOM     23  C   UNL     1      35.304 -22.761 -17.457  0.00  0.00    -0.004 C 
ATOM     24  C   UNL     1      37.524 -22.062 -16.807  0.00  0.00    -0.004 C 
BRANCH  19  25
ATOM     25  C   UNL     1      35.833 -23.648 -13.820  0.00  0.00    -0.050 C 
BRANCH  25  26
ATOM     26  N   UNL     1      36.531 -24.907 -13.564  0.00  0.00    +0.387 N 
ATOM     27  N   UNL     1      38.255 -27.098 -14.320  0.00  0.00    +0.382 N 
ATOM     28  C   UNL     1      38.720 -26.052 -13.402  0.00  0.00    -0.083 C 
ATOM     29  C   UNL     1      37.986 -24.728 -13.674  0.00  0.00    -0.099 C 
ATOM     30  C   UNL     1      36.073 -25.953 -14.486  0.00  0.00    -0.101 C 
ATOM     31  C   UNL     1      36.806 -27.269 -14.223  0.00  0.00    -0.105 C 
ATOM     32  C   UNL     1      40.228 -25.876 -13.570  0.00  0.00    -0.026 C 
ATOM     33  H   UNL     1      36.315 -25.201 -12.612  0.00  0.00    -0.079 HD
ATOM     34  H   UNL     1      38.712 -27.979 -14.083  0.00  0.00    -0.085 HD
ATOM     35  H   UNL     1      38.487 -26.822 -15.274  0.00  0.00    -0.085 HD
ENDBRANCH  25  26
ENDBRANCH  19  25
ENDBRANCH   1  20
TORSDOF 6
ENDMDL
MODEL 4
REMARK VINA RESULT:     -10.7      3.823      7.037
REMARK  Name = 15984937
REMARK  6 active torsions:
REMARK  status: ('A' for Active; 'I' for Inactive)
REMARK    1  A    between atoms: C_1  and  C_9
REMARK    2  A    between atoms: C_1  and  C_20
REMARK    3  A    between atoms: C_4  and  N_10
REMARK    4  A    between atoms: N_10  and  C_13
REMARK    5  A    between atoms: C_19  and  C_25
REMARK    6  A    between atoms: C_25  and  N_26
REMARK                            x       y       z     vdW  Elec       q    Type
REMARK                         _______ _______ _______ _____ _____    ______ ____
ROOT
ATOM      1  C   UNL     1      35.332 -18.211 -22.030  0.00  0.00    +0.112 C 
ENDROOT
BRANCH   1   9
ATOM      2  O   UNL     1      34.808 -16.980 -20.075  0.00  0.00    -0.275 OA
ATOM      3  N   UNL     1      34.746 -15.811 -22.083  0.00  0.00    -0.279 N 
ATOM      4  C   UNL     1      33.146 -13.896 -23.577  0.00  0.00    +0.072 C 
ATOM      5  C   UNL     1      33.615 -15.219 -24.191  0.00  0.00    +0.041 C 
ATOM      6  C   UNL     1      33.104 -13.972 -22.047  0.00  0.00    +0.041 C 
ATOM      7  C   UNL     1      34.895 -15.746 -23.541  0.00  0.00    +0.095 C 
ATOM      8  C   UNL     1      34.389 -14.543 -21.447  0.00  0.00    +0.095 C 
ATOM      9  C   UNL     1      34.940 -16.951 -21.302  0.00  0.00    +0.230 C 
BRANCH   4  10
ATOM     10  N   UNL     1      34.015 -12.817 -24.004  0.00  0.00    -0.334 N 
ATOM     11  H   UNL     1      34.785 -13.038 -24.579  0.00  0.00    +0.147 HD
BRANCH  10  13
ATOM     12  F   UNL     1      31.406  -9.410 -21.859  0.00  0.00    -0.204 F 
ATOM     13  C   UNL     1      33.824 -11.495 -23.648  0.00  0.00    +0.047 C 
ATOM     14  C   UNL     1      32.687 -11.099 -22.915  0.00  0.00    +0.044 C 
ATOM     15  C   UNL     1      34.758 -10.504 -24.008  0.00  0.00    +0.014 C 
ATOM     16  C   UNL     1      32.494  -9.764 -22.557  0.00  0.00    +0.141 C 
ATOM     17  C   UNL     1      34.565  -9.169 -23.650  0.00  0.00    +0.004 C 
ATOM     18  C   UNL     1      33.431  -8.801 -22.924  0.00  0.00    +0.030 C 
ENDBRANCH  10  13
ENDBRANCH   4  10
ENDBRANCH   1   9
BRANCH   1  20
ATOM     19  C   UNL     1      34.391 -21.665 -19.683  0.00  0.00    -0.043 C 
ATOM     20  C   UNL     1      35.004 -19.418 -21.209  0.00  0.00    -0.013 C 
ATOM     21  C   UNL     1      33.366 -20.900 -20.240  0.00  0.00    -0.007 C 
ATOM     22  C   UNL     1      35.722 -21.304 -19.891  0.00  0.00    -0.007 C 
ATOM     23  C   UNL     1      33.673 -19.774 -21.005  0.00  0.00    -0.004 C 
ATOM     24  C   UNL     1      36.029 -20.179 -20.655  0.00  0.00    -0.004 C 
BRANCH  19  25
ATOM     25  C   UNL     1      34.063 -22.867 -18.864  0.00  0.00    -0.050 C 
BRANCH  25  26
ATOM     26  N   UNL     1      34.336 -22.664 -17.442  0.00  0.00    +0.387 N 
ATOM     27  N   UNL     1      35.231 -23.538 -14.838  0.00  0.00    +0.382 N 
ATOM     28  C   UNL     1      36.050 -22.638 -15.656  0.00  0.00    -0.083 C 
ATOM     29  C   UNL     1      35.764 -22.854 -17.152  0.00  0.00    -0.099 C 
ATOM     30  C   UNL     1      33.521 -23.568 -16.621  0.00  0.00    -0.101 C 
ATOM     31  C   UNL     1      33.809 -23.360 -15.134  0.00  0.00    -0.105 C 
ATOM     32  C   UNL     1      37.525 -22.889 -15.349  0.00  0.00    -0.026 C 
ATOM     33  H   UNL     1      34.085 -21.704 -17.206  0.00  0.00    -0.079 HD
ATOM     34  H   UNL     1      35.394 -23.336 -13.852  0.00  0.00    -0.085 HD
ATOM     35  H   UNL     1      35.490 -24.501 -15.052  0.00  0.00    -0.085 HD
ENDBRANCH  25  26
ENDBRANCH  19  25
ENDBRANCH   1  20
TORSDOF 6
ENDMDL
MODEL 5
REMARK VINA RESULT:     -10.6      6.907     14.415
REMARK  Name = 15984937
REMARK  6 active torsions:
REMARK  status: ('A' for Active; 'I' for Inactive)
REMARK    1  A    between atoms: C_1  and  C_9
REMARK    2  A    between atoms: C_1  and  C_20
REMARK    3  A    between atoms: C_4  and  N_10
REMARK    4  A    between atoms: N_10  and  C_13
REMARK    5  A    between atoms: C_19  and  C_25
REMARK    6  A    between atoms: C_25  and  N_26
REMARK                            x       y       z     vdW  Elec       q    Type
REMARK                         _______ _______ _______ _____ _____    ______ ____
ROOT
ATOM      1  C   UNL     1      35.584 -22.340 -19.206  0.00  0.00    +0.112 C 
ENDROOT
BRANCH   1   9
ATOM      2  O   UNL     1      37.262 -21.550 -17.732  0.00  0.00    -0.275 OA
ATOM      3  N   UNL     1      35.409 -22.551 -16.750  0.00  0.00    -0.279 N 
ATOM      4  C   UNL     1      34.651 -24.450 -14.681  0.00  0.00    +0.072 C 
ATOM      5  C   UNL     1      34.136 -24.565 -16.119  0.00  0.00    +0.041 C 
ATOM      6  C   UNL     1      35.962 -23.658 -14.617  0.00  0.00    +0.041 C 
ATOM      7  C   UNL     1      34.105 -23.217 -16.841  0.00  0.00    +0.095 C 
ATOM      8  C   UNL     1      35.894 -22.339 -15.386  0.00  0.00    +0.095 C 
ATOM      9  C   UNL     1      36.166 -22.107 -17.835  0.00  0.00    +0.230 C 
BRANCH   4  10
ATOM     10  N   UNL     1      33.645 -23.828 -13.843  0.00  0.00    -0.334 N 
ATOM     11  H   UNL     1      33.940 -23.178 -13.165  0.00  0.00    +0.147 HD
BRANCH  10  13
ATOM     12  F   UNL     1      29.171 -22.422 -14.857  0.00  0.00    -0.204 F 
ATOM     13  C   UNL     1      32.293 -24.100 -13.943  0.00  0.00    +0.047 C 
ATOM     14  C   UNL     1      31.383 -23.107 -14.359  0.00  0.00    +0.044 C 
ATOM     15  C   UNL     1      31.784 -25.376 -13.632  0.00  0.00    +0.014 C 
ATOM     16  C   UNL     1      30.019 -23.380 -14.458  0.00  0.00    +0.141 C 
ATOM     17  C   UNL     1      30.419 -25.649 -13.731  0.00  0.00    +0.004 C 
ATOM     18  C   UNL     1      29.537 -24.650 -14.145  0.00  0.00    +0.030 C 
ENDBRANCH  10  13
ENDBRANCH   4  10
ENDBRANCH   1   9
BRANCH   1  20
ATOM     19  C   UNL     1      35.665 -18.734 -21.511  0.00  0.00    -0.043 C 
ATOM     20  C   UNL     1      35.612 -21.080 -20.011  0.00  0.00    -0.013 C 
ATOM     21  C   UNL     1      36.853 -19.270 -21.013  0.00  0.00    -0.007 C 
ATOM     22  C   UNL     1      34.452 -19.373 -21.258  0.00  0.00    -0.007 C 
ATOM     23  C   UNL     1      36.827 -20.445 -20.262  0.00  0.00    -0.004 C 
ATOM     24  C   UNL     1      34.425 -20.548 -20.506  0.00  0.00    -0.004 C 
BRANCH  19  25
ATOM     25  C   UNL     1      35.693 -17.478 -22.313  0.00  0.00    -0.050 C 
BRANCH  25  26
ATOM     26  N   UNL     1      34.572 -16.593 -22.000  0.00  0.00    +0.387 N 
ATOM     27  N   UNL     1      33.432 -14.084 -21.133  0.00  0.00    +0.382 N 
ATOM     28  C   UNL     1      33.400 -14.482 -22.545  0.00  0.00    -0.083 C 
ATOM     29  C   UNL     1      34.581 -15.411 -22.873  0.00  0.00    -0.099 C 
ATOM     30  C   UNL     1      34.606 -16.188 -20.589  0.00  0.00    -0.101 C 
ATOM     31  C   UNL     1      33.437 -15.258 -20.262  0.00  0.00    -0.105 C 
ATOM     32  C   UNL     1      33.443 -13.228 -23.417  0.00  0.00    -0.026 C 
ATOM     33  H   UNL     1      33.707 -17.108 -22.165  0.00  0.00    -0.079 HD
ATOM     34  H   UNL     1      32.610 -13.517 -20.926  0.00  0.00    -0.085 HD
ATOM     35  H   UNL     1      34.284 -13.549 -20.964  0.00  0.00    -0.085 HD
ENDBRANCH  25  26
ENDBRANCH  19  25
ENDBRANCH   1  20
TORSDOF 6
ENDMDL
MODEL 6
REMARK VINA RESULT:     -10.4      6.769     11.346
REMARK  Name = 15984937
REMARK  6 active torsions:
REMARK  status: ('A' for Active; 'I' for Inactive)
REMARK    1  A    between atoms: C_1  and  C_9
REMARK    2  A    between atoms: C_1  and  C_20
REMARK    3  A    between atoms: C_4  and  N_10
REMARK    4  A    between atoms: N_10  and  C_13
REMARK    5  A    between atoms: C_19  and  C_25
REMARK    6  A    between atoms: C_25  and  N_26
REMARK                            x       y       z     vdW  Elec       q    Type
REMARK                         _______ _______ _______ _____ _____    ______ ____
ROOT
ATOM      1  C   UNL     1      34.141 -22.064 -19.177  0.00  0.00    +0.112 C 
ENDROOT
BRANCH   1   9
ATOM      2  O   UNL     1      36.506 -22.177 -19.269  0.00  0.00    -0.275 OA
ATOM      3  N   UNL     1      35.494 -20.558 -20.594  0.00  0.00    -0.279 N 
ATOM      4  C   UNL     1      35.716 -17.766 -21.378  0.00  0.00    +0.072 C 
ATOM      5  C   UNL     1      34.407 -18.361 -20.849  0.00  0.00    +0.041 C 
ATOM      6  C   UNL     1      36.929 -18.578 -20.913  0.00  0.00    +0.041 C 
ATOM      7  C   UNL     1      34.303 -19.867 -21.100  0.00  0.00    +0.095 C 
ATOM      8  C   UNL     1      36.761 -20.079 -21.148  0.00  0.00    +0.095 C 
ATOM      9  C   UNL     1      35.488 -21.612 -19.680  0.00  0.00    +0.230 C 
BRANCH   4  10
ATOM     10  N   UNL     1      35.678 -17.698 -22.826  0.00  0.00    -0.334 N 
ATOM     11  H   UNL     1      36.186 -18.371 -23.337  0.00  0.00    +0.147 HD
BRANCH  10  13
ATOM     12  F   UNL     1      33.813 -13.290 -23.146  0.00  0.00    -0.204 F 
ATOM     13  C   UNL     1      34.971 -16.740 -23.529  0.00  0.00    +0.047 C 
ATOM     14  C   UNL     1      34.737 -15.464 -22.979  0.00  0.00    +0.044 C 
ATOM     15  C   UNL     1      34.461 -17.011 -24.813  0.00  0.00    +0.014 C 
ATOM     16  C   UNL     1      34.022 -14.498 -23.687  0.00  0.00    +0.141 C 
ATOM     17  C   UNL     1      33.746 -16.046 -25.521  0.00  0.00    +0.004 C 
ATOM     18  C   UNL     1      33.527 -14.788 -24.957  0.00  0.00    +0.030 C 
ENDBRANCH  10  13
ENDBRANCH   4  10
ENDBRANCH   1   9
BRANCH   1  20
ATOM     19  C   UNL     1      34.486 -23.772 -15.268  0.00  0.00    -0.043 C 
ATOM     20  C   UNL     1      34.262 -22.661 -17.811  0.00  0.00    -0.013 C 
ATOM     21  C   UNL     1      35.572 -23.107 -15.836  0.00  0.00    -0.007 C 
ATOM     22  C   UNL     1      33.288 -23.881 -15.973  0.00  0.00    -0.007 C 
ATOM     23  C   UNL     1      35.460 -22.550 -17.110  0.00  0.00    -0.004 C 
ATOM     24  C   UNL     1      33.175 -23.325 -17.247  0.00  0.00    -0.004 C 
BRANCH  19  25
ATOM     25  C   UNL     1      34.607 -24.368 -13.906  0.00  0.00    -0.050 C 
BRANCH  25  26
ATOM     26  N   UNL     1      35.894 -24.070 -13.280  0.00  0.00    +0.387 N 
ATOM     27  N   UNL     1      38.024 -24.579 -11.396  0.00  0.00    +0.382 N 
ATOM     28  C   UNL     1      38.196 -24.858 -12.825  0.00  0.00    -0.083 C 
ATOM     29  C   UNL     1      36.841 -25.174 -13.482  0.00  0.00    -0.099 C 
ATOM     30  C   UNL     1      35.725 -23.796 -11.847  0.00  0.00    -0.101 C 
ATOM     31  C   UNL     1      37.071 -23.489 -11.190  0.00  0.00    -0.105 C 
ATOM     32  C   UNL     1      39.161 -26.031 -12.991  0.00  0.00    -0.026 C 
ATOM     33  H   UNL     1      36.275 -23.234 -13.723  0.00  0.00    -0.079 HD
ATOM     34  H   UNL     1      38.924 -24.316 -10.995  0.00  0.00    -0.085 HD
ATOM     35  H   UNL     1      37.663 -25.417 -10.940  0.00  0.00    -0.085 HD
ENDBRANCH  25  26
ENDBRANCH  19  25
ENDBRANCH   1  20
TORSDOF 6
ENDMDL
MODEL 7
REMARK VINA RESULT:     -10.3      4.126     11.858
REMARK  Name = 15984937
REMARK  6 active torsions:
REMARK  status: ('A' for Active; 'I' for Inactive)
REMARK    1  A    between atoms: C_1  and  C_9
REMARK    2  A    between atoms: C_1  and  C_20
REMARK    3  A    between atoms: C_4  and  N_10
REMARK    4  A    between atoms: N_10  and  C_13
REMARK    5  A    between atoms: C_19  and  C_25
REMARK    6  A    between atoms: C_25  and  N_26
REMARK                            x       y       z     vdW  Elec       q    Type
REMARK                         _______ _______ _______ _____ _____    ______ ____
ROOT
ATOM      1  C   UNL     1      33.399 -12.871 -23.560  0.00  0.00    +0.112 C 
ENDROOT
BRANCH   1   9
ATOM      2  O   UNL     1      32.753 -13.008 -21.284  0.00  0.00    -0.275 OA
ATOM      3  N   UNL     1      33.548 -14.964 -22.255  0.00  0.00    -0.279 N 
ATOM      4  C   UNL     1      35.325 -17.213 -21.763  0.00  0.00    +0.072 C 
ATOM      5  C   UNL     1      35.414 -16.370 -23.039  0.00  0.00    +0.041 C 
ATOM      6  C   UNL     1      34.667 -16.433 -20.620  0.00  0.00    +0.041 C 
ATOM      7  C   UNL     1      34.083 -15.709 -23.400  0.00  0.00    +0.095 C 
ATOM      8  C   UNL     1      33.361 -15.759 -21.041  0.00  0.00    +0.095 C 
ATOM      9  C   UNL     1      33.201 -13.613 -22.263  0.00  0.00    +0.230 C 
BRANCH   4  10
ATOM     10  N   UNL     1      34.592 -18.435 -22.029  0.00  0.00    -0.334 N 
ATOM     11  H   UNL     1      34.087 -18.502 -22.872  0.00  0.00    +0.147 HD
BRANCH  10  13
ATOM     12  F   UNL     1      36.864 -21.810 -19.485  0.00  0.00    -0.204 F 
ATOM     13  C   UNL     1      34.561 -19.512 -21.162  0.00  0.00    +0.047 C 
ATOM     14  C   UNL     1      35.752 -20.141 -20.744  0.00  0.00    +0.044 C 
ATOM     15  C   UNL     1      33.340 -20.014 -20.671  0.00  0.00    +0.014 C 
ATOM     16  C   UNL     1      35.720 -21.228 -19.871  0.00  0.00    +0.141 C 
ATOM     17  C   UNL     1      33.309 -21.101 -19.797  0.00  0.00    +0.004 C 
ATOM     18  C   UNL     1      34.500 -21.707 -19.397  0.00  0.00    +0.030 C 
ENDBRANCH  10  13
ENDBRANCH   4  10
ENDBRANCH   1   9
BRANCH   1  20
ATOM     19  C   UNL     1      33.528  -8.647 -22.878  0.00  0.00    -0.043 C 
ATOM     20  C   UNL     1      33.444 -11.395 -23.321  0.00  0.00    -0.013 C 
ATOM     21  C   UNL     1      34.550  -9.269 -23.595  0.00  0.00    -0.007 C 
ATOM     22  C   UNL     1      32.465  -9.401 -22.383  0.00  0.00    -0.007 C 
ATOM     23  C   UNL     1      34.508 -10.645 -23.818  0.00  0.00    -0.004 C 
ATOM     24  C   UNL     1      32.423 -10.778 -22.604  0.00  0.00    -0.004 C 
BRANCH  19  25
ATOM     25  C   UNL     1      33.573  -7.176 -22.639  0.00  0.00    -0.050 C 
BRANCH  25  26
ATOM     26  N   UNL     1      32.240  -6.576 -22.608  0.00  0.00    +0.387 N 
ATOM     27  N   UNL     1      30.375  -4.472 -21.945  0.00  0.00    +0.382 N 
ATOM     28  C   UNL     1      30.813  -4.686 -23.328  0.00  0.00    -0.083 C 
ATOM     29  C   UNL     1      32.217  -5.314 -23.360  0.00  0.00    -0.099 C 
ATOM     30  C   UNL     1      31.802  -6.355 -21.224  0.00  0.00    -0.101 C 
ATOM     31  C   UNL     1      30.409  -5.723 -21.189  0.00  0.00    -0.105 C 
ATOM     32  C   UNL     1      30.806  -3.348 -24.066  0.00  0.00    -0.026 C 
ATOM     33  H   UNL     1      31.590  -7.226 -23.050  0.00  0.00    -0.079 HD
ATOM     34  H   UNL     1      29.422  -4.110 -21.948  0.00  0.00    -0.085 HD
ATOM     35  H   UNL     1      31.007  -3.806 -21.501  0.00  0.00    -0.085 HD
ENDBRANCH  25  26
ENDBRANCH  19  25
ENDBRANCH   1  20
TORSDOF 6
ENDMDL
MODEL 8
REMARK VINA RESULT:     -10.2      0.944      1.742
REMARK  Name = 15984937
REMARK  6 active torsions:
REMARK  status: ('A' for Active; 'I' for Inactive)
REMARK    1  A    between atoms: C_1  and  C_9
REMARK    2  A    between atoms: C_1  and  C_20
REMARK    3  A    between atoms: C_4  and  N_10
REMARK    4  A    between atoms: N_10  and  C_13
REMARK    5  A    between atoms: C_19  and  C_25
REMARK    6  A    between atoms: C_25  and  N_26
REMARK                            x       y       z     vdW  Elec       q    Type
REMARK                         _______ _______ _______ _____ _____    ______ ____
ROOT
ATOM      1  C   UNL     1      31.091 -11.967 -20.827  0.00  0.00    +0.112 C 
ENDROOT
BRANCH   1   9
ATOM      2  O   UNL     1      31.704 -10.833 -18.839  0.00  0.00    -0.275 OA
ATOM      3  N   UNL     1      32.050  -9.690 -20.832  0.00  0.00    -0.279 N 
ATOM      4  C   UNL     1      31.704  -7.082 -22.073  0.00  0.00    +0.072 C 
ATOM      5  C   UNL     1      31.194  -8.370 -22.729  0.00  0.00    +0.041 C 
ATOM      6  C   UNL     1      31.855  -7.247 -20.557  0.00  0.00    +0.041 C 
ATOM      7  C   UNL     1      31.988  -9.603 -22.295  0.00  0.00    +0.095 C 
ATOM      8  C   UNL     1      32.619  -8.514 -20.173  0.00  0.00    +0.095 C 
ATOM      9  C   UNL     1      31.642 -10.785 -20.070  0.00  0.00    +0.230 C 
BRANCH   4  10
ATOM     10  N   UNL     1      32.968  -6.692 -22.666  0.00  0.00    -0.334 N 
ATOM     11  H   UNL     1      33.798  -7.055 -22.277  0.00  0.00    +0.147 HD
BRANCH  10  13
ATOM     12  F   UNL     1      31.374  -2.930 -25.181  0.00  0.00    -0.204 F 
ATOM     13  C   UNL     1      33.074  -5.837 -23.748  0.00  0.00    +0.047 C 
ATOM     14  C   UNL     1      32.154  -4.786 -23.933  0.00  0.00    +0.044 C 
ATOM     15  C   UNL     1      34.103  -5.991 -24.697  0.00  0.00    +0.014 C 
ATOM     16  C   UNL     1      32.259  -3.924 -25.025  0.00  0.00    +0.141 C 
ATOM     17  C   UNL     1      34.209  -5.130 -25.789  0.00  0.00    +0.004 C 
ATOM     18  C   UNL     1      33.286  -4.096 -25.952  0.00  0.00    +0.030 C 
ENDBRANCH  10  13
ENDBRANCH   4  10
ENDBRANCH   1   9
BRANCH   1  20
ATOM     19  C   UNL     1      33.937 -15.164 -20.908  0.00  0.00    -0.043 C 
ATOM     20  C   UNL     1      32.086 -13.084 -20.855  0.00  0.00    -0.013 C 
ATOM     21  C   UNL     1      32.834 -15.234 -20.058  0.00  0.00    -0.007 C 
ATOM     22  C   UNL     1      34.112 -14.053 -21.733  0.00  0.00    -0.007 C 
ATOM     23  C   UNL     1      31.906 -14.193 -20.031  0.00  0.00    -0.004 C 
ATOM     24  C   UNL     1      33.186 -13.011 -21.706  0.00  0.00    -0.004 C 
BRANCH  19  25
ATOM     25  C   UNL     1      34.929 -16.277 -20.936  0.00  0.00    -0.050 C 
BRANCH  25  26
ATOM     26  N   UNL     1      35.140 -16.801 -22.285  0.00  0.00    +0.387 N 
ATOM     27  N   UNL     1      34.253 -18.054 -24.732  0.00  0.00    +0.382 N 
ATOM     28  C   UNL     1      34.550 -16.618 -24.682  0.00  0.00    -0.083 C 
ATOM     29  C   UNL     1      34.325 -16.068 -23.263  0.00  0.00    -0.099 C 
ATOM     30  C   UNL     1      34.837 -18.237 -22.339  0.00  0.00    -0.101 C 
ATOM     31  C   UNL     1      35.053 -18.785 -23.750  0.00  0.00    -0.105 C 
ATOM     32  C   UNL     1      33.661 -15.890 -25.689  0.00  0.00    -0.026 C 
ATOM     33  H   UNL     1      36.123 -16.672 -22.524  0.00  0.00    -0.079 HD
ATOM     34  H   UNL     1      34.465 -18.407 -25.665  0.00  0.00    -0.085 HD
ATOM     35  H   UNL     1      33.266 -18.191 -24.515  0.00  0.00    -0.085 HD
ENDBRANCH  25  26
ENDBRANCH  19  25
ENDBRANCH   1  20
TORSDOF 6
ENDMDL
MODEL 9
REMARK VINA RESULT:     -10.2      6.542     11.247
REMARK  Name = 15984937
REMARK  6 active torsions:
REMARK  status: ('A' for Active; 'I' for Inactive)
REMARK    1  A    between atoms: C_1  and  C_9
REMARK    2  A    between atoms: C_1  and  C_20
REMARK    3  A    between atoms: C_4  and  N_10
REMARK    4  A    between atoms: N_10  and  C_13
REMARK    5  A    between atoms: C_19  and  C_25
REMARK    6  A    between atoms: C_25  and  N_26
REMARK                            x       y       z     vdW  Elec       q    Type
REMARK                         _______ _______ _______ _____ _____    ______ ____
ROOT
ATOM      1  C   UNL     1      36.283 -21.766 -19.124  0.00  0.00    +0.112 C 
ENDROOT
BRANCH   1   9
ATOM      2  O   UNL     1      34.006 -21.733 -19.778  0.00  0.00    -0.275 OA
ATOM      3  N   UNL     1      35.338 -20.003 -20.574  0.00  0.00    -0.279 N 
ATOM      4  C   UNL     1      35.929 -18.483 -22.983  0.00  0.00    +0.072 C 
ATOM      5  C   UNL     1      37.031 -19.142 -22.146  0.00  0.00    +0.041 C 
ATOM      6  C   UNL     1      34.575 -19.166 -22.765  0.00  0.00    +0.041 C 
ATOM      7  C   UNL     1      36.629 -19.315 -20.680  0.00  0.00    +0.095 C 
ATOM      8  C   UNL     1      34.238 -19.352 -21.285  0.00  0.00    +0.095 C 
ATOM      9  C   UNL     1      35.103 -21.173 -19.850  0.00  0.00    +0.230 C 
BRANCH   4  10
ATOM     10  N   UNL     1      35.841 -17.072 -22.660  0.00  0.00    -0.334 N 
ATOM     11  H   UNL     1      36.445 -16.713 -21.969  0.00  0.00    +0.147 HD
BRANCH  10  13
ATOM     12  F   UNL     1      33.347 -15.675 -26.513  0.00  0.00    -0.204 F 
ATOM     13  C   UNL     1      34.953 -16.203 -23.267  0.00  0.00    +0.047 C 
ATOM     14  C   UNL     1      34.582 -16.372 -24.616  0.00  0.00    +0.044 C 
ATOM     15  C   UNL     1      34.394 -15.124 -22.556  0.00  0.00    +0.014 C 
ATOM     16  C   UNL     1      33.687 -15.495 -25.229  0.00  0.00    +0.141 C 
ATOM     17  C   UNL     1      33.499 -14.246 -23.169  0.00  0.00    +0.004 C 
ATOM     18  C   UNL     1      33.146 -14.433 -24.506  0.00  0.00    +0.030 C 
ENDBRANCH  10  13
ENDBRANCH   4  10
ENDBRANCH   1   9
BRANCH   1  20
ATOM     19  C   UNL     1      35.040 -23.560 -15.441  0.00  0.00    -0.043 C 
ATOM     20  C   UNL     1      35.849 -22.393 -17.837  0.00  0.00    -0.013 C 
ATOM     21  C   UNL     1      34.180 -23.553 -16.539  0.00  0.00    -0.007 C 
ATOM     22  C   UNL     1      36.305 -22.982 -15.544  0.00  0.00    -0.007 C 
ATOM     23  C   UNL     1      34.584 -22.969 -17.739  0.00  0.00    -0.004 C 
ATOM     24  C   UNL     1      36.711 -22.397 -16.743  0.00  0.00    -0.004 C 
BRANCH  19  25
ATOM     25  C   UNL     1      34.607 -24.184 -14.159  0.00  0.00    -0.050 C 
BRANCH  25  26
ATOM     26  N   UNL     1      35.357 -25.400 -13.850  0.00  0.00    +0.387 N 
ATOM     27  N   UNL     1      37.751 -27.017 -13.827  0.00  0.00    +0.382 N 
ATOM     28  C   UNL     1      37.248 -26.393 -12.598  0.00  0.00    -0.083 C 
ATOM     29  C   UNL     1      36.461 -25.112 -12.924  0.00  0.00    -0.099 C 
ATOM     30  C   UNL     1      35.867 -26.023 -15.078  0.00  0.00    -0.101 C 
ATOM     31  C   UNL     1      36.656 -27.293 -14.756  0.00  0.00    -0.105 C 
ATOM     32  C   UNL     1      38.427 -26.081 -11.679  0.00  0.00    -0.026 C 
ATOM     33  H   UNL     1      34.721 -26.057 -13.398  0.00  0.00    -0.079 HD
ATOM     34  H   UNL     1      38.218 -27.893 -13.591  0.00  0.00    -0.085 HD
ATOM     35  H   UNL     1      38.405 -26.375 -14.276  0.00  0.00    -0.085 HD
ENDBRANCH  25  26
ENDBRANCH  19  25
ENDBRANCH   1  20
TORSDOF 6
ENDMDL
