MODEL 1
REMARK VINA RESULT:     -12.3      0.000      0.000
REMARK  Name = 25191001
REMARK  7 active torsions:
REMARK  status: ('A' for Active; 'I' for Inactive)
REMARK    1  A    between atoms: C_1  and  N_9
REMARK    2  A    between atoms: C_2  and  O_24
REMARK    3  A    between atoms: N_8  and  C_14
REMARK    4  A    between atoms: C_15  and  C_23
REMARK    5  A    between atoms: O_24  and  C_26
REMARK    6  A    between atoms: C_28  and  C_33
REMARK    7  A    between atoms: N_32  and  C_35
REMARK                            x       y       z     vdW  Elec       q    Type
REMARK                         _______ _______ _______ _____ _____    ______ ____
ROOT
ATOM      1  C   UNL     1      35.100 -22.134 -18.391  0.00  0.00    +0.052 C 
ATOM      2  C   UNL     1      34.254 -23.747 -16.277  0.00  0.00    +0.145 C 
ATOM      3  C   UNL     1      35.924 -22.318 -17.280  0.00  0.00    +0.018 C 
ATOM      4  C   UNL     1      33.853 -22.755 -18.444  0.00  0.00    +0.018 C 
ATOM      5  C   UNL     1      35.502 -23.125 -16.224  0.00  0.00    +0.039 C 
ATOM      6  C   UNL     1      33.429 -23.562 -17.387  0.00  0.00    +0.039 C 
ENDROOT
BRANCH   1   9
ATOM      7  O   UNL     1      33.540 -20.295 -20.153  0.00  0.00    -0.252 OA
ATOM      8  N   UNL     1      35.570 -19.823 -21.224  0.00  0.00    -0.268 N 
ATOM      9  N   UNL     1      35.529 -21.314 -19.461  0.00  0.00    -0.268 N 
ATOM     10  C   UNL     1      34.751 -20.464 -20.263  0.00  0.00    +0.308 C 
ATOM     11  H   UNL     1      36.526 -20.055 -21.193  0.00  0.00    +0.156 HD
ATOM     12  H   UNL     1      36.490 -21.344 -19.669  0.00  0.00    +0.156 HD
BRANCH   8  14
ATOM     13 CL   UNL     1      34.014 -15.961 -25.419  0.00  0.00    -0.082 Cl
ATOM     14  C   UNL     1      35.202 -18.904 -22.208  0.00  0.00    +0.052 C 
ATOM     15  C   UNL     1      34.626 -16.649 -22.854  0.00  0.00    +0.083 C 
ATOM     16  C   UNL     1      34.994 -17.567 -21.870  0.00  0.00    +0.019 C 
ATOM     17  C   UNL     1      35.043 -19.324 -23.528  0.00  0.00    +0.016 C 
ATOM     18  C   UNL     1      34.467 -17.068 -24.176  0.00  0.00    +0.062 C 
ATOM     19  C   UNL     1      34.676 -18.406 -24.512  0.00  0.00    +0.013 C 
BRANCH  15  23
ATOM     20  F   UNL     1      35.053 -14.330 -23.259  0.00  0.00    -0.166 F 
ATOM     21  F   UNL     1      33.102 -14.847 -22.468  0.00  0.00    -0.166 F 
ATOM     22  F   UNL     1      34.857 -14.967 -21.190  0.00  0.00    -0.166 F 
ATOM     23  C   UNL     1      34.413 -15.225 -22.453  0.00  0.00    +0.419 C 
ENDBRANCH  15  23
ENDBRANCH   8  14
ENDBRANCH   1   9
BRANCH   2  24
ATOM     24  O   UNL     1      33.839 -24.532 -15.245  0.00  0.00    -0.453 OA
BRANCH  24  26
ATOM     25  N   UNL     1      36.662 -25.575 -12.344  0.00  0.00    -0.239 NA
ATOM     26  C   UNL     1      34.774 -24.879 -14.285  0.00  0.00    +0.149 C 
ATOM     27  C   UNL     1      35.944 -25.534 -14.652  0.00  0.00    +0.061 C 
ATOM     28  C   UNL     1      36.848 -25.857 -13.653  0.00  0.00    +0.137 C 
ATOM     29  C   UNL     1      34.547 -24.571 -12.948  0.00  0.00    +0.058 C 
ATOM     30  C   UNL     1      35.512 -24.938 -12.024  0.00  0.00    +0.102 C 
BRANCH  28  33
ATOM     31  O   UNL     1      38.067 -27.677 -14.490  0.00  0.00    -0.269 OA
ATOM     32  N   UNL     1      39.281 -25.859 -13.716  0.00  0.00    -0.313 N 
ATOM     33  C   UNL     1      38.088 -26.541 -13.979  0.00  0.00    +0.263 C 
ATOM     34  H   UNL     1      39.225 -24.964 -13.310  0.00  0.00    +0.149 HD
ATOM     35  C   UNL     1      40.591 -26.396 -14.005  0.00  0.00    +0.128 C 
ENDBRANCH  28  33
ENDBRANCH  24  26
ENDBRANCH   2  24
TORSDOF 6
ENDMDL
MODEL 2
REMARK VINA RESULT:     -12.0      5.918     11.802
REMARK  Name = 25191001
REMARK  7 active torsions:
REMARK  status: ('A' for Active; 'I' for Inactive)
REMARK    1  A    between atoms: C_1  and  N_9
REMARK    2  A    between atoms: C_2  and  O_24
REMARK    3  A    between atoms: N_8  and  C_14
REMARK    4  A    between atoms: C_15  and  C_23
REMARK    5  A    between atoms: O_24  and  C_26
REMARK    6  A    between atoms: C_28  and  C_33
REMARK    7  A    between atoms: N_32  and  C_35
REMARK                            x       y       z     vdW  Elec       q    Type
REMARK                         _______ _______ _______ _____ _____    ______ ____
ROOT
ATOM      1  C   UNL     1      35.164 -21.657 -19.285  0.00  0.00    +0.052 C 
ATOM      2  C   UNL     1      35.507 -19.707 -21.251  0.00  0.00    +0.145 C 
ATOM      3  C   UNL     1      36.447 -21.232 -19.632  0.00  0.00    +0.018 C 
ATOM      4  C   UNL     1      34.052 -21.106 -19.923  0.00  0.00    +0.018 C 
ATOM      5  C   UNL     1      36.618 -20.257 -20.614  0.00  0.00    +0.039 C 
ATOM      6  C   UNL     1      34.223 -20.131 -20.906  0.00  0.00    +0.039 C 
ENDROOT
BRANCH   1   9
ATOM      7  O   UNL     1      36.120 -21.732 -16.456  0.00  0.00    -0.252 OA
ATOM      8  N   UNL     1      35.070 -23.821 -16.303  0.00  0.00    -0.268 N 
ATOM      9  N   UNL     1      34.991 -22.647 -18.290  0.00  0.00    -0.268 N 
ATOM     10  C   UNL     1      35.463 -22.634 -16.968  0.00  0.00    +0.308 C 
ATOM     11  H   UNL     1      34.545 -24.457 -16.839  0.00  0.00    +0.156 HD
ATOM     12  H   UNL     1      34.476 -23.441 -18.557  0.00  0.00    +0.156 HD
BRANCH   8  14
ATOM     13 CL   UNL     1      36.125 -25.455 -10.721  0.00  0.00    -0.082 Cl
ATOM     14  C   UNL     1      35.328 -24.208 -14.987  0.00  0.00    +0.052 C 
ATOM     15  C   UNL     1      36.883 -24.932 -13.286  0.00  0.00    +0.083 C 
ATOM     16  C   UNL     1      36.626 -24.545 -14.601  0.00  0.00    +0.019 C 
ATOM     17  C   UNL     1      34.289 -24.258 -14.059  0.00  0.00    +0.016 C 
ATOM     18  C   UNL     1      35.844 -24.982 -12.356  0.00  0.00    +0.062 C 
ATOM     19  C   UNL     1      34.546 -24.645 -12.744  0.00  0.00    +0.013 C 
BRANCH  15  23
ATOM     20  F   UNL     1      38.795 -24.507 -11.911  0.00  0.00    -0.166 F 
ATOM     21  F   UNL     1      38.426 -26.569 -12.473  0.00  0.00    -0.166 F 
ATOM     22  F   UNL     1      39.153 -25.154 -13.956  0.00  0.00    -0.166 F 
ATOM     23  C   UNL     1      38.287 -25.284 -12.911  0.00  0.00    +0.419 C 
ENDBRANCH  15  23
ENDBRANCH   8  14
ENDBRANCH   1   9
BRANCH   2  24
ATOM     24  O   UNL     1      35.673 -18.757 -22.212  0.00  0.00    -0.453 OA
BRANCH  24  26
ATOM     25  N   UNL     1      34.110 -14.952 -21.469  0.00  0.00    -0.239 NA
ATOM     26  C   UNL     1      35.156 -17.496 -21.967  0.00  0.00    +0.149 C 
ATOM     27  C   UNL     1      34.922 -16.619 -23.020  0.00  0.00    +0.061 C 
ATOM     28  C   UNL     1      34.403 -15.370 -22.722  0.00  0.00    +0.137 C 
ATOM     29  C   UNL     1      34.867 -17.103 -20.665  0.00  0.00    +0.058 C 
ATOM     30  C   UNL     1      34.350 -15.832 -20.470  0.00  0.00    +0.102 C 
BRANCH  28  33
ATOM     31  O   UNL     1      33.772 -14.802 -24.907  0.00  0.00    -0.269 OA
ATOM     32  N   UNL     1      34.292 -13.057 -23.470  0.00  0.00    -0.313 N 
ATOM     33  C   UNL     1      34.139 -14.413 -23.782  0.00  0.00    +0.263 C 
ATOM     34  H   UNL     1      34.585 -12.820 -22.561  0.00  0.00    +0.149 HD
ATOM     35  C   UNL     1      34.044 -11.987 -24.408  0.00  0.00    +0.128 C 
ENDBRANCH  28  33
ENDBRANCH  24  26
ENDBRANCH   2  24
TORSDOF 6
ENDMDL
MODEL 3
REMARK VINA RESULT:     -12.0      2.858      4.523
REMARK  Name = 25191001
REMARK  7 active torsions:
REMARK  status: ('A' for Active; 'I' for Inactive)
REMARK    1  A    between atoms: C_1  and  N_9
REMARK    2  A    between atoms: C_2  and  O_24
REMARK    3  A    between atoms: N_8  and  C_14
REMARK    4  A    between atoms: C_15  and  C_23
REMARK    5  A    between atoms: O_24  and  C_26
REMARK    6  A    between atoms: C_28  and  C_33
REMARK    7  A    between atoms: N_32  and  C_35
REMARK                            x       y       z     vdW  Elec       q    Type
REMARK                         _______ _______ _______ _____ _____    ______ ____
ROOT
ATOM      1  C   UNL     1      35.364 -21.777 -18.872  0.00  0.00    +0.052 C 
ATOM      2  C   UNL     1      34.687 -23.500 -16.784  0.00  0.00    +0.145 C 
ATOM      3  C   UNL     1      36.233 -21.942 -17.793  0.00  0.00    +0.018 C 
ATOM      4  C   UNL     1      34.156 -22.474 -18.906  0.00  0.00    +0.018 C 
ATOM      5  C   UNL     1      35.895 -22.804 -16.750  0.00  0.00    +0.039 C 
ATOM      6  C   UNL     1      33.817 -23.336 -17.862  0.00  0.00    +0.039 C 
ENDROOT
BRANCH   1   9
ATOM      7  O   UNL     1      33.654 -19.911 -20.458  0.00  0.00    -0.252 OA
ATOM      8  N   UNL     1      35.603 -19.337 -21.625  0.00  0.00    -0.268 N 
ATOM      9  N   UNL     1      35.706 -20.902 -19.929  0.00  0.00    -0.268 N 
ATOM     10  C   UNL     1      34.860 -20.041 -20.646  0.00  0.00    +0.308 C 
ATOM     11  H   UNL     1      36.566 -19.544 -21.660  0.00  0.00    +0.156 HD
ATOM     12  H   UNL     1      36.654 -20.896 -20.194  0.00  0.00    +0.156 HD
BRANCH   8  14
ATOM     13 CL   UNL     1      33.700 -15.350 -25.550  0.00  0.00    -0.082 Cl
ATOM     14  C   UNL     1      35.154 -18.390 -22.545  0.00  0.00    +0.052 C 
ATOM     15  C   UNL     1      34.484 -16.126 -23.058  0.00  0.00    +0.083 C 
ATOM     16  C   UNL     1      34.934 -17.073 -22.138  0.00  0.00    +0.019 C 
ATOM     17  C   UNL     1      34.925 -18.759 -23.870  0.00  0.00    +0.016 C 
ATOM     18  C   UNL     1      34.255 -16.494 -24.384  0.00  0.00    +0.062 C 
ATOM     19  C   UNL     1      34.475 -17.812 -24.790  0.00  0.00    +0.013 C 
BRANCH  15  23
ATOM     20  F   UNL     1      34.715 -14.501 -21.317  0.00  0.00    -0.166 F 
ATOM     21  F   UNL     1      34.877 -13.785 -23.358  0.00  0.00    -0.166 F 
ATOM     22  F   UNL     1      32.941 -14.385 -22.569  0.00  0.00    -0.166 F 
ATOM     23  C   UNL     1      34.261 -14.726 -22.584  0.00  0.00    +0.419 C 
ENDBRANCH  15  23
ENDBRANCH   8  14
ENDBRANCH   1   9
BRANCH   2  24
ATOM     24  O   UNL     1      34.356 -24.340 -15.765  0.00  0.00    -0.453 OA
BRANCH  24  26
ATOM     25  N   UNL     1      30.820 -23.563 -13.676  0.00  0.00    -0.239 NA
ATOM     26  C   UNL     1      33.184 -24.081 -15.074  0.00  0.00    +0.149 C 
ATOM     27  C   UNL     1      32.038 -23.698 -15.760  0.00  0.00    +0.061 C 
ATOM     28  C   UNL     1      30.891 -23.452 -15.022  0.00  0.00    +0.137 C 
ATOM     29  C   UNL     1      33.150 -24.207 -13.689  0.00  0.00    +0.058 C 
ATOM     30  C   UNL     1      31.954 -23.939 -13.043  0.00  0.00    +0.102 C 
BRANCH  28  33
ATOM     31  O   UNL     1      29.673 -22.725 -16.889  0.00  0.00    -0.269 OA
ATOM     32  N   UNL     1      28.491 -23.065 -14.922  0.00  0.00    -0.313 N 
ATOM     33  C   UNL     1      29.664 -23.048 -15.686  0.00  0.00    +0.263 C 
ATOM     34  H   UNL     1      28.555 -23.330 -13.977  0.00  0.00    +0.149 HD
ATOM     35  C   UNL     1      27.191 -22.714 -15.446  0.00  0.00    +0.128 C 
ENDBRANCH  28  33
ENDBRANCH  24  26
ENDBRANCH   2  24
TORSDOF 6
ENDMDL
MODEL 4
REMARK VINA RESULT:     -12.0      6.077     11.963
REMARK  Name = 25191001
REMARK  7 active torsions:
REMARK  status: ('A' for Active; 'I' for Inactive)
REMARK    1  A    between atoms: C_1  and  N_9
REMARK    2  A    between atoms: C_2  and  O_24
REMARK    3  A    between atoms: N_8  and  C_14
REMARK    4  A    between atoms: C_15  and  C_23
REMARK    5  A    between atoms: O_24  and  C_26
REMARK    6  A    between atoms: C_28  and  C_33
REMARK    7  A    between atoms: N_32  and  C_35
REMARK                            x       y       z     vdW  Elec       q    Type
REMARK                         _______ _______ _______ _____ _____    ______ ____
ROOT
ATOM      1  C   UNL     1      35.762 -21.221 -19.587  0.00  0.00    +0.052 C 
ATOM      2  C   UNL     1      35.659 -19.252 -21.561  0.00  0.00    +0.145 C 
ATOM      3  C   UNL     1      34.549 -20.912 -20.202  0.00  0.00    +0.018 C 
ATOM      4  C   UNL     1      36.924 -20.545 -19.960  0.00  0.00    +0.018 C 
ATOM      5  C   UNL     1      34.497 -19.928 -21.189  0.00  0.00    +0.039 C 
ATOM      6  C   UNL     1      36.873 -19.560 -20.947  0.00  0.00    +0.039 C 
ENDROOT
BRANCH   1   9
ATOM      7  O   UNL     1      37.005 -21.160 -16.872  0.00  0.00    -0.252 OA
ATOM      8  N   UNL     1      36.240 -23.360 -16.624  0.00  0.00    -0.268 N 
ATOM      9  N   UNL     1      35.814 -22.218 -18.585  0.00  0.00    -0.268 N 
ATOM     10  C   UNL     1      36.414 -22.139 -17.319  0.00  0.00    +0.308 C 
ATOM     11  H   UNL     1      35.744 -24.060 -17.108  0.00  0.00    +0.156 HD
ATOM     12  H   UNL     1      35.376 -23.072 -18.803  0.00  0.00    +0.156 HD
BRANCH   8  14
ATOM     13 CL   UNL     1      38.060 -24.796 -11.187  0.00  0.00    -0.082 Cl
ATOM     14  C   UNL     1      36.676 -23.704 -15.344  0.00  0.00    +0.052 C 
ATOM     15  C   UNL     1      38.242 -24.851 -13.905  0.00  0.00    +0.083 C 
ATOM     16  C   UNL     1      37.806 -24.508 -15.185  0.00  0.00    +0.019 C 
ATOM     17  C   UNL     1      35.983 -23.245 -14.224  0.00  0.00    +0.016 C 
ATOM     18  C   UNL     1      37.550 -24.392 -12.785  0.00  0.00    +0.062 C 
ATOM     19  C   UNL     1      36.419 -23.588 -12.945  0.00  0.00    +0.013 C 
BRANCH  15  23
ATOM     20  F   UNL     1      39.381 -26.612 -12.753  0.00  0.00    -0.166 F 
ATOM     21  F   UNL     1      39.713 -26.460 -14.890  0.00  0.00    -0.166 F 
ATOM     22  F   UNL     1      40.588 -24.989 -13.550  0.00  0.00    -0.166 F 
ATOM     23  C   UNL     1      39.456 -25.714 -13.777  0.00  0.00    +0.419 C 
ENDBRANCH  15  23
ENDBRANCH   8  14
ENDBRANCH   1   9
BRANCH   2  24
ATOM     24  O   UNL     1      35.608 -18.289 -22.523  0.00  0.00    -0.453 OA
BRANCH  24  26
ATOM     25  N   UNL     1      33.974 -14.586 -21.478  0.00  0.00    -0.239 NA
ATOM     26  C   UNL     1      35.068 -17.062 -22.178  0.00  0.00    +0.149 C 
ATOM     27  C   UNL     1      34.806 -16.113 -23.159  0.00  0.00    +0.061 C 
ATOM     28  C   UNL     1      34.264 -14.901 -22.761  0.00  0.00    +0.137 C 
ATOM     29  C   UNL     1      34.784 -16.776 -20.847  0.00  0.00    +0.058 C 
ATOM     30  C   UNL     1      34.243 -15.534 -20.552  0.00  0.00    +0.102 C 
BRANCH  28  33
ATOM     31  O   UNL     1      33.444 -14.169 -24.832  0.00  0.00    -0.269 OA
ATOM     32  N   UNL     1      34.281 -12.552 -23.396  0.00  0.00    -0.313 N 
ATOM     33  C   UNL     1      33.970 -13.872 -23.743  0.00  0.00    +0.263 C 
ATOM     34  H   UNL     1      34.696 -12.388 -22.519  0.00  0.00    +0.149 HD
ATOM     35  C   UNL     1      34.027 -11.418 -24.254  0.00  0.00    +0.128 C 
ENDBRANCH  28  33
ENDBRANCH  24  26
ENDBRANCH   2  24
TORSDOF 6
ENDMDL
MODEL 5
REMARK VINA RESULT:     -11.8      3.192      5.225
REMARK  Name = 25191001
REMARK  7 active torsions:
REMARK  status: ('A' for Active; 'I' for Inactive)
REMARK    1  A    between atoms: C_1  and  N_9
REMARK    2  A    between atoms: C_2  and  O_24
REMARK    3  A    between atoms: N_8  and  C_14
REMARK    4  A    between atoms: C_15  and  C_23
REMARK    5  A    between atoms: O_24  and  C_26
REMARK    6  A    between atoms: C_28  and  C_33
REMARK    7  A    between atoms: N_32  and  C_35
REMARK                            x       y       z     vdW  Elec       q    Type
REMARK                         _______ _______ _______ _____ _____    ______ ____
ROOT
ATOM      1  C   UNL     1      35.361 -18.591 -21.391  0.00  0.00    +0.052 C 
ATOM      2  C   UNL     1      36.280 -20.824 -19.993  0.00  0.00    +0.145 C 
ATOM      3  C   UNL     1      34.475 -19.613 -21.049  0.00  0.00    +0.018 C 
ATOM      4  C   UNL     1      36.706 -18.686 -21.035  0.00  0.00    +0.018 C 
ATOM      5  C   UNL     1      34.934 -20.729 -20.349  0.00  0.00    +0.039 C 
ATOM      6  C   UNL     1      37.166 -19.802 -20.335  0.00  0.00    +0.039 C 
ENDROOT
BRANCH   1   9
ATOM      7  O   UNL     1      34.504 -15.909 -20.395  0.00  0.00    -0.252 OA
ATOM      8  N   UNL     1      34.101 -15.358 -22.637  0.00  0.00    -0.268 N 
ATOM      9  N   UNL     1      34.895 -17.460 -22.102  0.00  0.00    -0.268 N 
ATOM     10  C   UNL     1      34.502 -16.216 -21.584  0.00  0.00    +0.308 C 
ATOM     11  H   UNL     1      34.153 -15.741 -23.543  0.00  0.00    +0.156 HD
ATOM     12  H   UNL     1      34.839 -17.558 -23.080  0.00  0.00    +0.156 HD
BRANCH   8  14
ATOM     13 CL   UNL     1      32.180  -9.776 -22.352  0.00  0.00    -0.082 Cl
ATOM     14  C   UNL     1      33.643 -14.042 -22.562  0.00  0.00    +0.052 C 
ATOM     15  C   UNL     1      32.393 -12.325 -21.411  0.00  0.00    +0.083 C 
ATOM     16  C   UNL     1      32.851 -13.640 -21.486  0.00  0.00    +0.019 C 
ATOM     17  C   UNL     1      33.977 -13.130 -23.562  0.00  0.00    +0.016 C 
ATOM     18  C   UNL     1      32.727 -11.411 -22.411  0.00  0.00    +0.062 C 
ATOM     19  C   UNL     1      33.519 -11.815 -23.488  0.00  0.00    +0.013 C 
BRANCH  15  23
ATOM     20  F   UNL     1      31.546 -12.855 -19.238  0.00  0.00    -0.166 F 
ATOM     21  F   UNL     1      31.939 -10.764 -19.656  0.00  0.00    -0.166 F 
ATOM     22  F   UNL     1      30.239 -11.755 -20.582  0.00  0.00    -0.166 F 
ATOM     23  C   UNL     1      31.548 -11.933 -20.243  0.00  0.00    +0.419 C 
ENDBRANCH  15  23
ENDBRANCH   8  14
ENDBRANCH   1   9
BRANCH   2  24
ATOM     24  O   UNL     1      36.729 -21.914 -19.312  0.00  0.00    -0.453 OA
BRANCH  24  26
ATOM     25  N   UNL     1      34.460 -23.243 -16.063  0.00  0.00    -0.239 NA
ATOM     26  C   UNL     1      35.978 -22.355 -18.236  0.00  0.00    +0.149 C 
ATOM     27  C   UNL     1      36.575 -22.532 -16.993  0.00  0.00    +0.061 C 
ATOM     28  C   UNL     1      35.780 -22.974 -15.948  0.00  0.00    +0.137 C 
ATOM     29  C   UNL     1      34.623 -22.620 -18.394  0.00  0.00    +0.058 C 
ATOM     30  C   UNL     1      33.914 -23.059 -17.287  0.00  0.00    +0.102 C 
BRANCH  28  33
ATOM     31  O   UNL     1      37.563 -22.980 -14.426  0.00  0.00    -0.269 OA
ATOM     32  N   UNL     1      35.475 -23.573 -13.609  0.00  0.00    -0.313 N 
ATOM     33  C   UNL     1      36.351 -23.177 -14.627  0.00  0.00    +0.263 C 
ATOM     34  H   UNL     1      34.528 -23.711 -13.838  0.00  0.00    +0.149 HD
ATOM     35  C   UNL     1      35.886 -23.792 -12.241  0.00  0.00    +0.128 C 
ENDBRANCH  28  33
ENDBRANCH  24  26
ENDBRANCH   2  24
TORSDOF 6
ENDMDL
MODEL 6
REMARK VINA RESULT:     -11.8      3.653      5.605
REMARK  Name = 25191001
REMARK  7 active torsions:
REMARK  status: ('A' for Active; 'I' for Inactive)
REMARK    1  A    between atoms: C_1  and  N_9
REMARK    2  A    between atoms: C_2  and  O_24
REMARK    3  A    between atoms: N_8  and  C_14
REMARK    4  A    between atoms: C_15  and  C_23
REMARK    5  A    between atoms: O_24  and  C_26
REMARK    6  A    between atoms: C_28  and  C_33
REMARK    7  A    between atoms: N_32  and  C_35
REMARK                            x       y       z     vdW  Elec       q    Type
REMARK                         _______ _______ _______ _____ _____    ______ ____
ROOT
ATOM      1  C   UNL     1      35.395 -18.753 -21.348  0.00  0.00    +0.052 C 
ATOM      2  C   UNL     1      36.326 -20.962 -19.920  0.00  0.00    +0.145 C 
ATOM      3  C   UNL     1      34.508 -19.758 -20.961  0.00  0.00    +0.018 C 
ATOM      4  C   UNL     1      36.748 -18.853 -21.022  0.00  0.00    +0.018 C 
ATOM      5  C   UNL     1      34.973 -20.861 -20.247  0.00  0.00    +0.039 C 
ATOM      6  C   UNL     1      37.214 -19.957 -20.307  0.00  0.00    +0.039 C 
ENDROOT
BRANCH   1   9
ATOM      7  O   UNL     1      34.560 -16.049 -20.392  0.00  0.00    -0.252 OA
ATOM      8  N   UNL     1      34.129 -15.540 -22.638  0.00  0.00    -0.268 N 
ATOM      9  N   UNL     1      34.923 -17.634 -22.074  0.00  0.00    -0.268 N 
ATOM     10  C   UNL     1      34.542 -16.379 -21.574  0.00  0.00    +0.308 C 
ATOM     11  H   UNL     1      34.167 -15.940 -23.537  0.00  0.00    +0.156 HD
ATOM     12  H   UNL     1      34.854 -17.750 -23.049  0.00  0.00    +0.156 HD
BRANCH   8  14
ATOM     13 CL   UNL     1      32.230  -9.946 -22.433  0.00  0.00    -0.082 Cl
ATOM     14  C   UNL     1      33.676 -14.221 -22.582  0.00  0.00    +0.052 C 
ATOM     15  C   UNL     1      32.430 -12.483 -21.458  0.00  0.00    +0.083 C 
ATOM     16  C   UNL     1      32.882 -13.801 -21.514  0.00  0.00    +0.019 C 
ATOM     17  C   UNL     1      34.017 -13.323 -23.593  0.00  0.00    +0.016 C 
ATOM     18  C   UNL     1      32.771 -11.584 -22.469  0.00  0.00    +0.062 C 
ATOM     19  C   UNL     1      33.565 -12.005 -23.537  0.00  0.00    +0.013 C 
BRANCH  15  23
ATOM     20  F   UNL     1      31.572 -12.983 -19.281  0.00  0.00    -0.166 F 
ATOM     21  F   UNL     1      31.978 -10.899 -19.724  0.00  0.00    -0.166 F 
ATOM     22  F   UNL     1      30.276 -11.892 -20.644  0.00  0.00    -0.166 F 
ATOM     23  C   UNL     1      31.582 -12.072 -20.298  0.00  0.00    +0.419 C 
ENDBRANCH  15  23
ENDBRANCH   8  14
ENDBRANCH   1   9
BRANCH   2  24
ATOM     24  O   UNL     1      36.781 -22.040 -19.225  0.00  0.00    -0.453 OA
BRANCH  24  26
ATOM     25  N   UNL     1      34.900 -22.959 -15.607  0.00  0.00    -0.239 NA
ATOM     26  C   UNL     1      36.156 -22.344 -18.027  0.00  0.00    +0.149 C 
ATOM     27  C   UNL     1      34.801 -22.652 -18.003  0.00  0.00    +0.061 C 
ATOM     28  C   UNL     1      34.225 -22.950 -16.779  0.00  0.00    +0.137 C 
ATOM     29  C   UNL     1      36.885 -22.343 -16.843  0.00  0.00    +0.058 C 
ATOM     30  C   UNL     1      36.216 -22.654 -15.670  0.00  0.00    +0.102 C 
BRANCH  28  33
ATOM     31  O   UNL     1      32.035 -22.970 -17.616  0.00  0.00    -0.269 OA
ATOM     32  N   UNL     1      32.387 -23.972 -15.555  0.00  0.00    -0.313 N 
ATOM     33  C   UNL     1      32.812 -23.280 -16.695  0.00  0.00    +0.263 C 
ATOM     34  H   UNL     1      33.054 -24.186 -14.864  0.00  0.00    +0.149 HD
ATOM     35  C   UNL     1      31.021 -24.391 -15.337  0.00  0.00    +0.128 C 
ENDBRANCH  28  33
ENDBRANCH  24  26
ENDBRANCH   2  24
TORSDOF 6
ENDMDL
MODEL 7
REMARK VINA RESULT:     -11.7      5.871     11.898
REMARK  Name = 25191001
REMARK  7 active torsions:
REMARK  status: ('A' for Active; 'I' for Inactive)
REMARK    1  A    between atoms: C_1  and  N_9
REMARK    2  A    between atoms: C_2  and  O_24
REMARK    3  A    between atoms: N_8  and  C_14
REMARK    4  A    between atoms: C_15  and  C_23
REMARK    5  A    between atoms: O_24  and  C_26
REMARK    6  A    between atoms: C_28  and  C_33
REMARK    7  A    between atoms: N_32  and  C_35
REMARK                            x       y       z     vdW  Elec       q    Type
REMARK                         _______ _______ _______ _____ _____    ______ ____
ROOT
ATOM      1  C   UNL     1      35.660 -21.042 -19.693  0.00  0.00    +0.052 C 
ATOM      2  C   UNL     1      35.700 -19.078 -21.674  0.00  0.00    +0.145 C 
ATOM      3  C   UNL     1      34.494 -20.732 -20.392  0.00  0.00    +0.018 C 
ATOM      4  C   UNL     1      36.847 -20.369 -19.984  0.00  0.00    +0.018 C 
ATOM      5  C   UNL     1      34.514 -19.751 -21.383  0.00  0.00    +0.039 C 
ATOM      6  C   UNL     1      36.868 -19.387 -20.975  0.00  0.00    +0.039 C 
ENDROOT
BRANCH   1   9
ATOM      7  O   UNL     1      37.087 -21.161 -17.072  0.00  0.00    -0.252 OA
ATOM      8  N   UNL     1      36.034 -23.229 -16.749  0.00  0.00    -0.268 N 
ATOM      9  N   UNL     1      35.639 -22.037 -18.687  0.00  0.00    -0.268 N 
ATOM     10  C   UNL     1      36.332 -22.045 -17.466  0.00  0.00    +0.308 C 
ATOM     11  H   UNL     1      35.410 -23.850 -17.190  0.00  0.00    +0.156 HD
ATOM     12  H   UNL     1      35.069 -22.818 -18.865  0.00  0.00    +0.156 HD
BRANCH   8  14
ATOM     13 CL   UNL     1      38.069 -24.942 -11.471  0.00  0.00    -0.082 Cl
ATOM     14  C   UNL     1      36.506 -23.633 -15.499  0.00  0.00    +0.052 C 
ATOM     15  C   UNL     1      36.095 -24.153 -13.176  0.00  0.00    +0.083 C 
ATOM     16  C   UNL     1      35.623 -23.750 -14.425  0.00  0.00    +0.019 C 
ATOM     17  C   UNL     1      37.859 -23.919 -15.325  0.00  0.00    +0.016 C 
ATOM     18  C   UNL     1      37.449 -24.440 -13.001  0.00  0.00    +0.062 C 
ATOM     19  C   UNL     1      38.331 -24.322 -14.076  0.00  0.00    +0.013 C 
BRANCH  15  23
ATOM     20  F   UNL     1      35.057 -25.517 -11.507  0.00  0.00    -0.166 F 
ATOM     21  F   UNL     1      35.393 -23.434 -11.006  0.00  0.00    -0.166 F 
ATOM     22  F   UNL     1      33.844 -23.970 -12.435  0.00  0.00    -0.166 F 
ATOM     23  C   UNL     1      35.118 -24.267 -12.051  0.00  0.00    +0.419 C 
ENDBRANCH  15  23
ENDBRANCH   8  14
ENDBRANCH   1   9
BRANCH   2  24
ATOM     24  O   UNL     1      35.720 -18.118 -22.639  0.00  0.00    -0.453 OA
BRANCH  24  26
ATOM     25  N   UNL     1      33.917 -14.450 -21.764  0.00  0.00    -0.239 NA
ATOM     26  C   UNL     1      35.124 -16.903 -22.350  0.00  0.00    +0.149 C 
ATOM     27  C   UNL     1      34.835 -16.005 -23.372  0.00  0.00    +0.061 C 
ATOM     28  C   UNL     1      34.236 -14.803 -23.030  0.00  0.00    +0.137 C 
ATOM     29  C   UNL     1      34.810 -16.576 -21.036  0.00  0.00    +0.058 C 
ATOM     30  C   UNL     1      34.213 -15.348 -20.797  0.00  0.00    +0.102 C 
BRANCH  28  33
ATOM     31  O   UNL     1      34.029 -12.609 -23.830  0.00  0.00    -0.269 OA
ATOM     32  N   UNL     1      33.493 -14.323 -25.297  0.00  0.00    -0.313 N 
ATOM     33  C   UNL     1      33.912 -13.828 -24.057  0.00  0.00    +0.263 C 
ATOM     34  H   UNL     1      33.422 -15.298 -25.409  0.00  0.00    +0.149 HD
ATOM     35  C   UNL     1      33.158 -13.482 -26.423  0.00  0.00    +0.128 C 
ENDBRANCH  28  33
ENDBRANCH  24  26
ENDBRANCH   2  24
TORSDOF 6
ENDMDL
MODEL 8
REMARK VINA RESULT:     -11.7      5.807     11.652
REMARK  Name = 25191001
REMARK  7 active torsions:
REMARK  status: ('A' for Active; 'I' for Inactive)
REMARK    1  A    between atoms: C_1  and  N_9
REMARK    2  A    between atoms: C_2  and  O_24
REMARK    3  A    between atoms: N_8  and  C_14
REMARK    4  A    between atoms: C_15  and  C_23
REMARK    5  A    between atoms: O_24  and  C_26
REMARK    6  A    between atoms: C_28  and  C_33
REMARK    7  A    between atoms: N_32  and  C_35
REMARK                            x       y       z     vdW  Elec       q    Type
REMARK                         _______ _______ _______ _____ _____    ______ ____
ROOT
ATOM      1  C   UNL     1      36.584 -20.102 -20.089  0.00  0.00    +0.052 C 
ATOM      2  C   UNL     1      35.719 -19.121 -22.553  0.00  0.00    +0.145 C 
ATOM      3  C   UNL     1      37.429 -19.300 -20.856  0.00  0.00    +0.018 C 
ATOM      4  C   UNL     1      35.307 -20.414 -20.554  0.00  0.00    +0.018 C 
ATOM      5  C   UNL     1      36.996 -18.809 -22.087  0.00  0.00    +0.039 C 
ATOM      6  C   UNL     1      34.873 -19.923 -21.787  0.00  0.00    +0.039 C 
ENDROOT
BRANCH   1   9
ATOM      7  O   UNL     1      35.596 -22.420 -18.484  0.00  0.00    -0.252 OA
ATOM      8  N   UNL     1      37.245 -21.861 -16.917  0.00  0.00    -0.268 N 
ATOM      9  N   UNL     1      37.024 -20.601 -18.840  0.00  0.00    -0.268 N 
ATOM     10  C   UNL     1      36.523 -21.700 -18.124  0.00  0.00    +0.308 C 
ATOM     11  H   UNL     1      37.965 -21.207 -16.760  0.00  0.00    +0.156 HD
ATOM     12  H   UNL     1      37.773 -20.119 -18.422  0.00  0.00    +0.156 HD
BRANCH   8  14
ATOM     13 CL   UNL     1      36.483 -25.924 -12.693  0.00  0.00    -0.082 Cl
ATOM     14  C   UNL     1      37.074 -22.823 -15.921  0.00  0.00    +0.052 C 
ATOM     15  C   UNL     1      37.968 -24.608 -14.560  0.00  0.00    +0.083 C 
ATOM     16  C   UNL     1      38.140 -23.646 -15.556  0.00  0.00    +0.019 C 
ATOM     17  C   UNL     1      35.838 -22.961 -15.291  0.00  0.00    +0.016 C 
ATOM     18  C   UNL     1      36.732 -24.746 -13.929  0.00  0.00    +0.062 C 
ATOM     19  C   UNL     1      35.666 -23.923 -14.295  0.00  0.00    +0.013 C 
BRANCH  15  23
ATOM     20  F   UNL     1      38.898 -26.804 -14.364  0.00  0.00    -0.166 F 
ATOM     21  F   UNL     1      40.253 -25.210 -14.935  0.00  0.00    -0.166 F 
ATOM     22  F   UNL     1      39.508 -25.320 -12.896  0.00  0.00    -0.166 F 
ATOM     23  C   UNL     1      39.134 -25.470 -14.198  0.00  0.00    +0.419 C 
ENDBRANCH  15  23
ENDBRANCH   8  14
ENDBRANCH   1   9
BRANCH   2  24
ATOM     24  O   UNL     1      35.297 -18.644 -23.756  0.00  0.00    -0.453 OA
BRANCH  24  26
ATOM     25  N   UNL     1      33.713 -14.777 -23.868  0.00  0.00    -0.239 NA
ATOM     26  C   UNL     1      34.771 -17.363 -23.792  0.00  0.00    +0.149 C 
ATOM     27  C   UNL     1      34.549 -16.665 -22.611  0.00  0.00    +0.061 C 
ATOM     28  C   UNL     1      34.023 -15.386 -22.701  0.00  0.00    +0.137 C 
ATOM     29  C   UNL     1      34.466 -16.770 -25.012  0.00  0.00    +0.058 C 
ATOM     30  C   UNL     1      33.943 -15.486 -24.996  0.00  0.00    +0.102 C 
BRANCH  28  33
ATOM     31  O   UNL     1      34.634 -14.528 -20.607  0.00  0.00    -0.269 OA
ATOM     32  N   UNL     1      32.537 -13.954 -21.413  0.00  0.00    -0.313 N 
ATOM     33  C   UNL     1      33.770 -14.611 -21.500  0.00  0.00    +0.263 C 
ATOM     34  H   UNL     1      31.899 -14.062 -22.155  0.00  0.00    +0.149 HD
ATOM     35  C   UNL     1      32.148 -13.127 -20.294  0.00  0.00    +0.128 C 
ENDBRANCH  28  33
ENDBRANCH  24  26
ENDBRANCH   2  24
TORSDOF 6
ENDMDL
MODEL 9
REMARK VINA RESULT:     -11.6      4.275      7.354
REMARK  Name = 25191001
REMARK  7 active torsions:
REMARK  status: ('A' for Active; 'I' for Inactive)
REMARK    1  A    between atoms: C_1  and  N_9
REMARK    2  A    between atoms: C_2  and  O_24
REMARK    3  A    between atoms: N_8  and  C_14
REMARK    4  A    between atoms: C_15  and  C_23
REMARK    5  A    between atoms: O_24  and  C_26
REMARK    6  A    between atoms: C_28  and  C_33
REMARK    7  A    between atoms: N_32  and  C_35
REMARK                            x       y       z     vdW  Elec       q    Type
REMARK                         _______ _______ _______ _____ _____    ______ ____
ROOT
ATOM      1  C   UNL     1      34.799 -16.523 -22.946  0.00  0.00    +0.052 C 
ATOM      2  C   UNL     1      35.451 -18.980 -21.795  0.00  0.00    +0.145 C 
ATOM      3  C   UNL     1      34.942 -17.655 -23.750  0.00  0.00    +0.018 C 
ATOM      4  C   UNL     1      34.983 -16.620 -21.567  0.00  0.00    +0.018 C 
ATOM      5  C   UNL     1      35.267 -18.883 -23.174  0.00  0.00    +0.039 C 
ATOM      6  C   UNL     1      35.309 -17.849 -20.990  0.00  0.00    +0.039 C 
ENDROOT
BRANCH   1   9
ATOM      7  O   UNL     1      34.801 -13.781 -21.764  0.00  0.00    -0.252 OA
ATOM      8  N   UNL     1      34.087 -13.024 -23.863  0.00  0.00    -0.268 N 
ATOM      9  N   UNL     1      34.470 -15.277 -23.530  0.00  0.00    -0.268 N 
ATOM     10  C   UNL     1      34.487 -14.010 -22.928  0.00  0.00    +0.308 C 
ATOM     11  H   UNL     1      33.864 -13.356 -24.763  0.00  0.00    +0.156 HD
ATOM     12  H   UNL     1      34.195 -15.303 -24.475  0.00  0.00    +0.156 HD
BRANCH   8  14
ATOM     13 CL   UNL     1      33.616  -7.182 -23.103  0.00  0.00    -0.082 Cl
ATOM     14  C   UNL     1      33.968 -11.646 -23.679  0.00  0.00    +0.052 C 
ATOM     15  C   UNL     1      32.776  -9.753 -22.769  0.00  0.00    +0.083 C 
ATOM     16  C   UNL     1      32.894 -11.130 -22.953  0.00  0.00    +0.019 C 
ATOM     17  C   UNL     1      34.922 -10.786 -24.221  0.00  0.00    +0.016 C 
ATOM     18  C   UNL     1      33.730  -8.891 -23.310  0.00  0.00    +0.062 C 
ATOM     19  C   UNL     1      34.804  -9.408 -24.037  0.00  0.00    +0.013 C 
BRANCH  15  23
ATOM     20  F   UNL     1      31.972  -8.538 -20.871  0.00  0.00    -0.166 F 
ATOM     21  F   UNL     1      30.808  -8.395 -22.694  0.00  0.00    -0.166 F 
ATOM     22  F   UNL     1      30.797 -10.239 -21.544  0.00  0.00    -0.166 F 
ATOM     23  C   UNL     1      31.612  -9.239 -21.985  0.00  0.00    +0.419 C 
ENDBRANCH  15  23
ENDBRANCH   8  14
ENDBRANCH   1   9
BRANCH   2  24
ATOM     24  O   UNL     1      35.771 -20.178 -21.233  0.00  0.00    -0.453 OA
BRANCH  24  26
ATOM     25  N   UNL     1      32.973 -21.926 -18.667  0.00  0.00    -0.239 NA
ATOM     26  C   UNL     1      34.845 -20.758 -20.383  0.00  0.00    +0.149 C 
ATOM     27  C   UNL     1      35.268 -21.570 -19.338  0.00  0.00    +0.061 C 
ATOM     28  C   UNL     1      34.302 -22.126 -18.515  0.00  0.00    +0.137 C 
ATOM     29  C   UNL     1      33.487 -20.528 -20.572  0.00  0.00    +0.058 C 
ATOM     30  C   UNL     1      32.599 -21.130 -19.695  0.00  0.00    +0.102 C 
BRANCH  28  33
ATOM     31  O   UNL     1      33.926 -23.887 -17.014  0.00  0.00    -0.269 OA
ATOM     32  N   UNL     1      35.943 -22.757 -16.832  0.00  0.00    -0.313 N 
ATOM     33  C   UNL     1      34.686 -22.983 -17.407  0.00  0.00    +0.263 C 
ATOM     34  H   UNL     1      36.493 -22.024 -17.192  0.00  0.00    +0.149 HD
ATOM     35  C   UNL     1      36.476 -23.539 -15.741  0.00  0.00    +0.128 C 
ENDBRANCH  28  33
ENDBRANCH  24  26
ENDBRANCH   2  24
TORSDOF 6
ENDMDL
