MODEL 1
REMARK VINA RESULT:     -11.0      0.000      0.000
REMARK  Name = 42627769
REMARK  10 active torsions:
REMARK  status: ('A' for Active; 'I' for Inactive)
REMARK    1  A    between atoms: C_1  and  C_3
REMARK    2  A    between atoms: C_1  and  N_6
REMARK    3  A    between atoms: C_1  and  C_22
REMARK    4  A    between atoms: C_3  and  O_4
REMARK    5  A    between atoms: N_6  and  S_8
REMARK    6  A    between atoms: S_8  and  C_11
REMARK    7  A    between atoms: C_16  and  O_17
REMARK    8  A    between atoms: O_17  and  C_18
REMARK    9  A    between atoms: C_18  and  C_19
REMARK   10  A    between atoms: C_22  and  C_24
REMARK                            x       y       z     vdW  Elec       q    Type
REMARK                         _______ _______ _______ _____ _____    ______ ____
ROOT
ATOM      1  C   UNL     1      34.757 -23.816 -16.034  0.00  0.00    +0.178 C 
ENDROOT
BRANCH   1   3
ATOM      2  O   UNL     1      36.800 -23.161 -14.883  0.00  0.00    -0.249 OA
ATOM      3  C   UNL     1      36.097 -24.037 -15.370  0.00  0.00    +0.330 C 
BRANCH   3   4
ATOM      4  O   UNL     1      36.449 -25.350 -15.365  0.00  0.00    -0.479 OA
ATOM      5  H   UNL     1      36.611 -25.789 -14.553  0.00  0.00    +0.295 HD
ENDBRANCH   3   4
ENDBRANCH   1   3
BRANCH   1   6
ATOM      6  N   UNL     1      34.992 -22.927 -17.196  0.00  0.00    -0.170 NA
ATOM      7  H   UNL     1      35.084 -21.980 -16.830  0.00  0.00    +0.149 HD
BRANCH   6   8
ATOM      8  S   UNL     1      33.850 -22.858 -18.452  0.00  0.00    +0.061 S 
ATOM      9  O   UNL     1      32.582 -22.390 -17.928  0.00  0.00    -0.153 OA
ATOM     10  O   UNL     1      33.915 -24.093 -19.211  0.00  0.00    -0.153 OA
BRANCH   8  11
ATOM     11  C   UNL     1      34.517 -21.586 -19.482  0.00  0.00    +0.122 C 
ATOM     12  C   UNL     1      35.898 -21.418 -19.577  0.00  0.00    +0.023 C 
ATOM     13  C   UNL     1      33.662 -20.746 -20.196  0.00  0.00    +0.023 C 
ATOM     14  C   UNL     1      36.425 -20.413 -20.387  0.00  0.00    +0.038 C 
ATOM     15  C   UNL     1      34.189 -19.741 -21.006  0.00  0.00    +0.038 C 
ATOM     16  C   UNL     1      35.570 -19.574 -21.102  0.00  0.00    +0.140 C 
BRANCH  16  17
ATOM     17  O   UNL     1      36.085 -18.593 -21.892  0.00  0.00    -0.461 OA
BRANCH  17  18
ATOM     18  C   UNL     1      35.346 -18.245 -23.062  0.00  0.00    +0.281 C 
BRANCH  18  19
ATOM     19  C   UNL     1      35.024 -16.820 -23.037  0.00  0.00    -0.044 C 
ATOM     20  C   UNL     1      34.760 -15.648 -23.014  0.00  0.00    -0.086 C 
ATOM     21  C   UNL     1      34.440 -14.222 -22.987  0.00  0.00    +0.090 C 
ENDBRANCH  18  19
ENDBRANCH  17  18
ENDBRANCH  16  17
ENDBRANCH   8  11
ENDBRANCH   6   8
ENDBRANCH   1   6
BRANCH   1  22
ATOM     22  C   UNL     1      33.741 -23.155 -15.079  0.00  0.00    +0.056 C 
BRANCH  22  24
ATOM     23  N   UNL     1      31.932 -25.706 -13.193  0.00  0.00    -0.312 N 
ATOM     24  C   UNL     1      32.787 -24.105 -14.471  0.00  0.00    -0.004 C 
ATOM     25  C   UNL     1      31.408 -24.243 -14.794  0.00  0.00    +0.010 C 
ATOM     26  C   UNL     1      30.896 -25.254 -13.978  0.00  0.00    +0.048 C 
ATOM     27  C   UNL     1      33.079 -25.017 -13.483  0.00  0.00    +0.058 C 
ATOM     28  C   UNL     1      30.545 -23.604 -15.706  0.00  0.00    -0.003 C 
ATOM     29  C   UNL     1      29.558 -25.661 -14.029  0.00  0.00    +0.014 C 
ATOM     30  C   UNL     1      29.204 -24.000 -15.768  0.00  0.00    -0.022 C 
ATOM     31  C   UNL     1      28.720 -25.012 -14.941  0.00  0.00    -0.003 C 
ATOM     32  C   UNL     1      28.282 -23.326 -16.730  0.00  0.00    +0.031 C 
ATOM     33  H   UNL     1      31.860 -26.421 -12.520  0.00  0.00    +0.152 HD
ENDBRANCH  22  24
ENDBRANCH   1  22
TORSDOF 10
ENDMDL
MODEL 2
REMARK VINA RESULT:     -10.2      3.260     10.883
REMARK  Name = 42627769
REMARK  10 active torsions:
REMARK  status: ('A' for Active; 'I' for Inactive)
REMARK    1  A    between atoms: C_1  and  C_3
REMARK    2  A    between atoms: C_1  and  N_6
REMARK    3  A    between atoms: C_1  and  C_22
REMARK    4  A    between atoms: C_3  and  O_4
REMARK    5  A    between atoms: N_6  and  S_8
REMARK    6  A    between atoms: S_8  and  C_11
REMARK    7  A    between atoms: C_16  and  O_17
REMARK    8  A    between atoms: O_17  and  C_18
REMARK    9  A    between atoms: C_18  and  C_19
REMARK   10  A    between atoms: C_22  and  C_24
REMARK                            x       y       z     vdW  Elec       q    Type
REMARK                         _______ _______ _______ _____ _____    ______ ____
ROOT
ATOM      1  C   UNL     1      34.337 -16.773 -21.543  0.00  0.00    +0.178 C 
ENDROOT
BRANCH   1   3
ATOM      2  O   UNL     1      34.683 -14.653 -20.396  0.00  0.00    -0.249 OA
ATOM      3  C   UNL     1      33.956 -15.599 -20.669  0.00  0.00    +0.330 C 
BRANCH   3   4
ATOM      4  O   UNL     1      32.682 -15.705 -20.207  0.00  0.00    -0.479 OA
ATOM      5  H   UNL     1      32.152 -16.436 -20.457  0.00  0.00    +0.295 HD
ENDBRANCH   3   4
ENDBRANCH   1   3
BRANCH   1   6
ATOM      6  N   UNL     1      35.023 -17.756 -20.672  0.00  0.00    -0.170 NA
ATOM      7  H   UNL     1      35.750 -17.249 -20.169  0.00  0.00    +0.149 HD
BRANCH   6   8
ATOM      8  S   UNL     1      35.762 -19.122 -21.358  0.00  0.00    +0.061 S 
ATOM      9  O   UNL     1      37.184 -19.096 -21.075  0.00  0.00    -0.153 OA
ATOM     10  O   UNL     1      35.292 -19.272 -22.723  0.00  0.00    -0.153 OA
BRANCH   8  11
ATOM     11  C   UNL     1      35.044 -20.436 -20.419  0.00  0.00    +0.122 C 
ATOM     12  C   UNL     1      33.657 -20.551 -20.330  0.00  0.00    +0.023 C 
ATOM     13  C   UNL     1      35.864 -21.356 -19.764  0.00  0.00    +0.023 C 
ATOM     14  C   UNL     1      33.089 -21.586 -19.586  0.00  0.00    +0.038 C 
ATOM     15  C   UNL     1      35.296 -22.391 -19.021  0.00  0.00    +0.038 C 
ATOM     16  C   UNL     1      33.909 -22.506 -18.933  0.00  0.00    +0.140 C 
BRANCH  16  17
ATOM     17  O   UNL     1      33.355 -23.515 -18.207  0.00  0.00    -0.461 OA
BRANCH  17  18
ATOM     18  C   UNL     1      33.572 -23.498 -16.797  0.00  0.00    +0.281 C 
BRANCH  18  19
ATOM     19  C   UNL     1      32.290 -23.414 -16.102  0.00  0.00    -0.044 C 
ATOM     20  C   UNL     1      31.237 -23.344 -15.528  0.00  0.00    -0.086 C 
ATOM     21  C   UNL     1      29.954 -23.258 -14.831  0.00  0.00    +0.090 C 
ENDBRANCH  18  19
ENDBRANCH  17  18
ENDBRANCH  16  17
ENDBRANCH   8  11
ENDBRANCH   6   8
ENDBRANCH   1   6
BRANCH   1  22
ATOM     22  C   UNL     1      35.282 -16.356 -22.690  0.00  0.00    +0.056 C 
BRANCH  22  24
ATOM     23  N   UNL     1      33.555 -16.067 -25.894  0.00  0.00    -0.312 N 
ATOM     24  C   UNL     1      34.581 -15.961 -23.928  0.00  0.00    -0.004 C 
ATOM     25  C   UNL     1      34.219 -14.640 -24.313  0.00  0.00    +0.010 C 
ATOM     26  C   UNL     1      33.577 -14.735 -25.550  0.00  0.00    +0.048 C 
ATOM     27  C   UNL     1      34.159 -16.817 -24.920  0.00  0.00    +0.058 C 
ATOM     28  C   UNL     1      34.378 -13.369 -23.727  0.00  0.00    -0.003 C 
ATOM     29  C   UNL     1      33.084 -13.617 -26.232  0.00  0.00    +0.014 C 
ATOM     30  C   UNL     1      33.889 -12.242 -24.398  0.00  0.00    -0.022 C 
ATOM     31  C   UNL     1      33.252 -12.367 -25.631  0.00  0.00    -0.003 C 
ATOM     32  C   UNL     1      34.052 -10.892 -23.782  0.00  0.00    +0.031 C 
ATOM     33  H   UNL     1      33.161 -16.430 -26.720  0.00  0.00    +0.152 HD
ENDBRANCH  22  24
ENDBRANCH   1  22
TORSDOF 10
ENDMDL
MODEL 3
REMARK VINA RESULT:     -10.1      8.621     15.655
REMARK  Name = 42627769
REMARK  10 active torsions:
REMARK  status: ('A' for Active; 'I' for Inactive)
REMARK    1  A    between atoms: C_1  and  C_3
REMARK    2  A    between atoms: C_1  and  N_6
REMARK    3  A    between atoms: C_1  and  C_22
REMARK    4  A    between atoms: C_3  and  O_4
REMARK    5  A    between atoms: N_6  and  S_8
REMARK    6  A    between atoms: S_8  and  C_11
REMARK    7  A    between atoms: C_16  and  O_17
REMARK    8  A    between atoms: O_17  and  C_18
REMARK    9  A    between atoms: C_18  and  C_19
REMARK   10  A    between atoms: C_22  and  C_24
REMARK                            x       y       z     vdW  Elec       q    Type
REMARK                         _______ _______ _______ _____ _____    ______ ____
ROOT
ATOM      1  C   UNL     1      31.690  -8.690 -21.331  0.00  0.00    +0.178 C 
ENDROOT
BRANCH   1   3
ATOM      2  O   UNL     1      33.873  -7.669 -21.680  0.00  0.00    -0.249 OA
ATOM      3  C   UNL     1      33.010  -8.080 -20.915  0.00  0.00    +0.330 C 
BRANCH   3   4
ATOM      4  O   UNL     1      33.141  -8.030 -19.563  0.00  0.00    -0.479 OA
ATOM      5  H   UNL     1      33.982  -7.880 -19.179  0.00  0.00    +0.295 HD
ENDBRANCH   3   4
ENDBRANCH   1   3
BRANCH   1   6
ATOM      6  N   UNL     1      31.942 -10.126 -21.596  0.00  0.00    -0.170 NA
ATOM      7  H   UNL     1      31.436 -10.362 -22.449  0.00  0.00    +0.149 HD
BRANCH   6   8
ATOM      8  S   UNL     1      31.512 -11.288 -20.434  0.00  0.00    +0.061 S 
ATOM      9  O   UNL     1      30.079 -11.507 -20.477  0.00  0.00    -0.153 OA
ATOM     10  O   UNL     1      32.163 -10.957 -19.180  0.00  0.00    -0.153 OA
BRANCH   8  11
ATOM     11  C   UNL     1      32.304 -12.739 -21.059  0.00  0.00    +0.122 C 
ATOM     12  C   UNL     1      32.845 -12.739 -22.344  0.00  0.00    +0.023 C 
ATOM     13  C   UNL     1      32.386 -13.885 -20.268  0.00  0.00    +0.023 C 
ATOM     14  C   UNL     1      33.468 -13.884 -22.839  0.00  0.00    +0.038 C 
ATOM     15  C   UNL     1      33.009 -15.031 -20.763  0.00  0.00    +0.038 C 
ATOM     16  C   UNL     1      33.550 -15.030 -22.048  0.00  0.00    +0.140 C 
BRANCH  16  17
ATOM     17  O   UNL     1      34.157 -16.148 -22.532  0.00  0.00    -0.461 OA
BRANCH  17  18
ATOM     18  C   UNL     1      35.296 -16.629 -21.819  0.00  0.00    +0.281 C 
BRANCH  18  19
ATOM     19  C   UNL     1      35.051 -17.997 -21.364  0.00  0.00    -0.044 C 
ATOM     20  C   UNL     1      34.852 -19.122 -20.993  0.00  0.00    -0.086 C 
ATOM     21  C   UNL     1      34.610 -20.491 -20.539  0.00  0.00    +0.090 C 
ENDBRANCH  18  19
ENDBRANCH  17  18
ENDBRANCH  16  17
ENDBRANCH   8  11
ENDBRANCH   6   8
ENDBRANCH   1   6
BRANCH   1  22
ATOM     22  C   UNL     1      31.122  -8.024 -22.602  0.00  0.00    +0.056 C 
BRANCH  22  24
ATOM     23  N   UNL     1      30.282  -4.572 -21.758  0.00  0.00    -0.312 N 
ATOM     24  C   UNL     1      30.944  -6.563 -22.483  0.00  0.00    -0.004 C 
ATOM     25  C   UNL     1      31.515  -5.569 -23.327  0.00  0.00    +0.010 C 
ATOM     26  C   UNL     1      31.083  -4.330 -22.850  0.00  0.00    +0.048 C 
ATOM     27  C   UNL     1      30.192  -5.919 -21.528  0.00  0.00    +0.058 C 
ATOM     28  C   UNL     1      32.359  -5.606 -24.455  0.00  0.00    -0.003 C 
ATOM     29  C   UNL     1      31.455  -3.120 -23.447  0.00  0.00    +0.014 C 
ATOM     30  C   UNL     1      32.739  -4.403 -25.062  0.00  0.00    -0.022 C 
ATOM     31  C   UNL     1      32.293  -3.181 -24.564  0.00  0.00    -0.003 C 
ATOM     32  C   UNL     1      33.634  -4.434 -26.256  0.00  0.00    +0.031 C 
ATOM     33  H   UNL     1      29.837  -3.878 -21.219  0.00  0.00    +0.152 HD
ENDBRANCH  22  24
ENDBRANCH   1  22
TORSDOF 10
ENDMDL
MODEL 4
REMARK VINA RESULT:      -9.9      2.070      4.332
REMARK  Name = 42627769
REMARK  10 active torsions:
REMARK  status: ('A' for Active; 'I' for Inactive)
REMARK    1  A    between atoms: C_1  and  C_3
REMARK    2  A    between atoms: C_1  and  N_6
REMARK    3  A    between atoms: C_1  and  C_22
REMARK    4  A    between atoms: C_3  and  O_4
REMARK    5  A    between atoms: N_6  and  S_8
REMARK    6  A    between atoms: S_8  and  C_11
REMARK    7  A    between atoms: C_16  and  O_17
REMARK    8  A    between atoms: O_17  and  C_18
REMARK    9  A    between atoms: C_18  and  C_19
REMARK   10  A    between atoms: C_22  and  C_24
REMARK                            x       y       z     vdW  Elec       q    Type
REMARK                         _______ _______ _______ _____ _____    ______ ____
ROOT
ATOM      1  C   UNL     1      31.772 -23.110 -16.137  0.00  0.00    +0.178 C 
ENDROOT
BRANCH   1   3
ATOM      2  O   UNL     1      29.484 -22.626 -16.815  0.00  0.00    -0.249 OA
ATOM      3  C   UNL     1      30.272 -23.296 -16.160  0.00  0.00    +0.330 C 
BRANCH   3   4
ATOM      4  O   UNL     1      29.877 -24.320 -15.358  0.00  0.00    -0.479 OA
ATOM      5  H   UNL     1      30.438 -24.620 -14.670  0.00  0.00    +0.295 HD
ENDBRANCH   3   4
ENDBRANCH   1   3
BRANCH   1   6
ATOM      6  N   UNL     1      32.185 -22.753 -17.515  0.00  0.00    -0.170 NA
ATOM      7  H   UNL     1      31.524 -23.202 -18.148  0.00  0.00    +0.149 HD
BRANCH   6   8
ATOM      8  S   UNL     1      33.741 -23.158 -18.063  0.00  0.00    +0.061 S 
ATOM      9  O   UNL     1      33.682 -24.401 -18.810  0.00  0.00    -0.153 OA
ATOM     10  O   UNL     1      34.676 -23.011 -16.963  0.00  0.00    -0.153 OA
BRANCH   8  11
ATOM     11  C   UNL     1      34.077 -21.852 -19.204  0.00  0.00    +0.122 C 
ATOM     12  C   UNL     1      33.025 -21.132 -19.769  0.00  0.00    +0.023 C 
ATOM     13  C   UNL     1      35.395 -21.543 -19.543  0.00  0.00    +0.023 C 
ATOM     14  C   UNL     1      33.289 -20.103 -20.672  0.00  0.00    +0.038 C 
ATOM     15  C   UNL     1      35.659 -20.513 -20.446  0.00  0.00    +0.038 C 
ATOM     16  C   UNL     1      34.607 -19.793 -21.010  0.00  0.00    +0.140 C 
BRANCH  16  17
ATOM     17  O   UNL     1      34.864 -18.789 -21.892  0.00  0.00    -0.461 OA
BRANCH  17  18
ATOM     18  C   UNL     1      35.580 -17.658 -21.398  0.00  0.00    +0.281 C 
BRANCH  18  19
ATOM     19  C   UNL     1      34.639 -16.613 -20.998  0.00  0.00    -0.044 C 
ATOM     20  C   UNL     1      33.867 -15.753 -20.671  0.00  0.00    -0.086 C 
ATOM     21  C   UNL     1      32.926 -14.707 -20.274  0.00  0.00    +0.090 C 
ENDBRANCH  18  19
ENDBRANCH  17  18
ENDBRANCH  16  17
ENDBRANCH   8  11
ENDBRANCH   6   8
ENDBRANCH   1   6
BRANCH   1  22
ATOM     22  C   UNL     1      32.506 -24.394 -15.697  0.00  0.00    +0.056 C 
BRANCH  22  24
ATOM     23  N   UNL     1      33.483 -23.795 -12.230  0.00  0.00    -0.312 N 
ATOM     24  C   UNL     1      33.134 -24.297 -14.364  0.00  0.00    -0.004 C 
ATOM     25  C   UNL     1      34.392 -24.840 -13.979  0.00  0.00    +0.010 C 
ATOM     26  C   UNL     1      34.586 -24.511 -12.636  0.00  0.00    +0.048 C 
ATOM     27  C   UNL     1      32.600 -23.661 -13.268  0.00  0.00    +0.058 C 
ATOM     28  C   UNL     1      35.387 -25.582 -14.646  0.00  0.00    -0.003 C 
ATOM     29  C   UNL     1      35.731 -24.887 -11.924  0.00  0.00    +0.014 C 
ATOM     30  C   UNL     1      36.537 -25.965 -13.947  0.00  0.00    -0.022 C 
ATOM     31  C   UNL     1      36.704 -25.622 -12.606  0.00  0.00    -0.003 C 
ATOM     32  C   UNL     1      37.595 -26.752 -14.647  0.00  0.00    +0.031 C 
ATOM     33  H   UNL     1      33.348 -23.432 -11.325  0.00  0.00    +0.152 HD
ENDBRANCH  22  24
ENDBRANCH   1  22
TORSDOF 10
ENDMDL
MODEL 5
REMARK VINA RESULT:      -9.7      3.560     10.118
REMARK  Name = 42627769
REMARK  10 active torsions:
REMARK  status: ('A' for Active; 'I' for Inactive)
REMARK    1  A    between atoms: C_1  and  C_3
REMARK    2  A    between atoms: C_1  and  N_6
REMARK    3  A    between atoms: C_1  and  C_22
REMARK    4  A    between atoms: C_3  and  O_4
REMARK    5  A    between atoms: N_6  and  S_8
REMARK    6  A    between atoms: S_8  and  C_11
REMARK    7  A    between atoms: C_16  and  O_17
REMARK    8  A    between atoms: O_17  and  C_18
REMARK    9  A    between atoms: C_18  and  C_19
REMARK   10  A    between atoms: C_22  and  C_24
REMARK                            x       y       z     vdW  Elec       q    Type
REMARK                         _______ _______ _______ _____ _____    ______ ____
ROOT
ATOM      1  C   UNL     1      35.338 -17.025 -23.392  0.00  0.00    +0.178 C 
ENDROOT
BRANCH   1   3
ATOM      2  O   UNL     1      33.981 -17.030 -25.414  0.00  0.00    -0.249 OA
ATOM      3  C   UNL     1      34.456 -17.633 -24.460  0.00  0.00    +0.330 C 
BRANCH   3   4
ATOM      4  O   UNL     1      34.243 -18.958 -24.246  0.00  0.00    -0.479 OA
ATOM      5  H   UNL     1      34.580 -19.590 -24.850  0.00  0.00    +0.295 HD
ENDBRANCH   3   4
ENDBRANCH   1   3
BRANCH   1   6
ATOM      6  N   UNL     1      35.078 -17.774 -22.139  0.00  0.00    -0.170 NA
ATOM      7  H   UNL     1      34.979 -17.082 -21.397  0.00  0.00    +0.149 HD
BRANCH   6   8
ATOM      8  S   UNL     1      36.203 -18.923 -21.593  0.00  0.00    +0.061 S 
ATOM      9  O   UNL     1      37.104 -18.303 -20.640  0.00  0.00    -0.153 OA
ATOM     10  O   UNL     1      36.734 -19.639 -22.738  0.00  0.00    -0.153 OA
BRANCH   8  11
ATOM     11  C   UNL     1      35.171 -20.053 -20.711  0.00  0.00    +0.122 C 
ATOM     12  C   UNL     1      33.783 -19.944 -20.799  0.00  0.00    +0.023 C 
ATOM     13  C   UNL     1      35.743 -21.053 -19.924  0.00  0.00    +0.023 C 
ATOM     14  C   UNL     1      32.967 -20.834 -20.101  0.00  0.00    +0.038 C 
ATOM     15  C   UNL     1      34.927 -21.944 -19.227  0.00  0.00    +0.038 C 
ATOM     16  C   UNL     1      33.539 -21.835 -19.315  0.00  0.00    +0.140 C 
BRANCH  16  17
ATOM     17  O   UNL     1      32.743 -22.703 -18.634  0.00  0.00    -0.461 OA
BRANCH  17  18
ATOM     18  C   UNL     1      33.333 -23.406 -17.542  0.00  0.00    +0.281 C 
BRANCH  18  19
ATOM     19  C   UNL     1      32.426 -23.388 -16.396  0.00  0.00    -0.044 C 
ATOM     20  C   UNL     1      31.683 -23.372 -15.452  0.00  0.00    -0.086 C 
ATOM     21  C   UNL     1      30.777 -23.352 -14.304  0.00  0.00    +0.090 C 
ENDBRANCH  18  19
ENDBRANCH  17  18
ENDBRANCH  16  17
ENDBRANCH   8  11
ENDBRANCH   6   8
ENDBRANCH   1   6
BRANCH   1  22
ATOM     22  C   UNL     1      35.028 -15.530 -23.170  0.00  0.00    +0.056 C 
BRANCH  22  24
ATOM     23  N   UNL     1      33.042 -15.520 -20.106  0.00  0.00    -0.312 N 
ATOM     24  C   UNL     1      34.148 -15.266 -22.014  0.00  0.00    -0.004 C 
ATOM     25  C   UNL     1      33.400 -14.080 -21.772  0.00  0.00    +0.010 C 
ATOM     26  C   UNL     1      32.715 -14.266 -20.570  0.00  0.00    +0.048 C 
ATOM     27  C   UNL     1      33.908 -16.132 -20.972  0.00  0.00    +0.058 C 
ATOM     28  C   UNL     1      33.238 -12.863 -22.464  0.00  0.00    -0.003 C 
ATOM     29  C   UNL     1      31.873 -13.292 -20.022  0.00  0.00    +0.014 C 
ATOM     30  C   UNL     1      32.399 -11.880 -21.928  0.00  0.00    -0.022 C 
ATOM     31  C   UNL     1      31.728 -12.092 -20.725  0.00  0.00    -0.003 C 
ATOM     32  C   UNL     1      32.224 -10.587 -22.655  0.00  0.00    +0.031 C 
ATOM     33  H   UNL     1      32.703 -15.919 -19.273  0.00  0.00    +0.152 HD
ENDBRANCH  22  24
ENDBRANCH   1  22
TORSDOF 10
ENDMDL
MODEL 6
REMARK VINA RESULT:      -9.5      6.373     13.650
REMARK  Name = 42627769
REMARK  10 active torsions:
REMARK  status: ('A' for Active; 'I' for Inactive)
REMARK    1  A    between atoms: C_1  and  C_3
REMARK    2  A    between atoms: C_1  and  N_6
REMARK    3  A    between atoms: C_1  and  C_22
REMARK    4  A    between atoms: C_3  and  O_4
REMARK    5  A    between atoms: N_6  and  S_8
REMARK    6  A    between atoms: S_8  and  C_11
REMARK    7  A    between atoms: C_16  and  O_17
REMARK    8  A    between atoms: O_17  and  C_18
REMARK    9  A    between atoms: C_18  and  C_19
REMARK   10  A    between atoms: C_22  and  C_24
REMARK                            x       y       z     vdW  Elec       q    Type
REMARK                         _______ _______ _______ _____ _____    ______ ____
ROOT
ATOM      1  C   UNL     1      34.251 -11.238 -23.572  0.00  0.00    +0.178 C 
ENDROOT
BRANCH   1   3
ATOM      2  O   UNL     1      35.673 -10.476 -25.396  0.00  0.00    -0.249 OA
ATOM      3  C   UNL     1      34.744 -11.167 -25.000  0.00  0.00    +0.330 C 
BRANCH   3   4
ATOM      4  O   UNL     1      34.028 -11.979 -25.823  0.00  0.00    -0.479 OA
ATOM      5  H   UNL     1      34.467 -12.492 -26.473  0.00  0.00    +0.295 HD
ENDBRANCH   3   4
ENDBRANCH   1   3
BRANCH   1   6
ATOM      6  N   UNL     1      34.482 -12.625 -23.103  0.00  0.00    -0.170 NA
ATOM      7  H   UNL     1      35.243 -13.005 -23.666  0.00  0.00    +0.149 HD
BRANCH   6   8
ATOM      8  S   UNL     1      33.218 -13.758 -23.160  0.00  0.00    +0.061 S 
ATOM      9  O   UNL     1      32.909 -14.068 -24.543  0.00  0.00    -0.153 OA
ATOM     10  O   UNL     1      32.167 -13.331 -22.255  0.00  0.00    -0.153 OA
BRANCH   8  11
ATOM     11  C   UNL     1      33.974 -15.183 -22.438  0.00  0.00    +0.122 C 
ATOM     12  C   UNL     1      33.912 -15.381 -21.059  0.00  0.00    +0.023 C 
ATOM     13  C   UNL     1      34.634 -16.108 -23.247  0.00  0.00    +0.023 C 
ATOM     14  C   UNL     1      34.510 -16.505 -20.488  0.00  0.00    +0.038 C 
ATOM     15  C   UNL     1      35.232 -17.232 -22.676  0.00  0.00    +0.038 C 
ATOM     16  C   UNL     1      35.170 -17.430 -21.297  0.00  0.00    +0.140 C 
BRANCH  16  17
ATOM     17  O   UNL     1      35.754 -18.526 -20.740  0.00  0.00    -0.461 OA
BRANCH  17  18
ATOM     18  C   UNL     1      35.477 -19.788 -21.344  0.00  0.00    +0.281 C 
BRANCH  18  19
ATOM     19  C   UNL     1      34.705 -20.618 -20.421  0.00  0.00    -0.044 C 
ATOM     20  C   UNL     1      34.068 -21.298 -19.663  0.00  0.00    -0.086 C 
ATOM     21  C   UNL     1      33.293 -22.127 -18.740  0.00  0.00    +0.090 C 
ENDBRANCH  18  19
ENDBRANCH  17  18
ENDBRANCH  16  17
ENDBRANCH   8  11
ENDBRANCH   6   8
ENDBRANCH   1   6
BRANCH   1  22
ATOM     22  C   UNL     1      32.749 -10.902 -23.462  0.00  0.00    +0.056 C 
BRANCH  22  24
ATOM     23  N   UNL     1      31.838  -8.974 -20.498  0.00  0.00    -0.312 N 
ATOM     24  C   UNL     1      32.435  -9.897 -22.426  0.00  0.00    -0.004 C 
ATOM     25  C   UNL     1      32.503  -8.483 -22.571  0.00  0.00    +0.010 C 
ATOM     26  C   UNL     1      32.123  -7.928 -21.347  0.00  0.00    +0.048 C 
ATOM     27  C   UNL     1      32.024 -10.168 -21.142  0.00  0.00    +0.058 C 
ATOM     28  C   UNL     1      32.851  -7.620 -23.628  0.00  0.00    -0.003 C 
ATOM     29  C   UNL     1      32.073  -6.547 -21.126  0.00  0.00    +0.014 C 
ATOM     30  C   UNL     1      32.806  -6.236 -23.422  0.00  0.00    -0.022 C 
ATOM     31  C   UNL     1      32.423  -5.710 -22.190  0.00  0.00    -0.003 C 
ATOM     32  C   UNL     1      33.174  -5.315 -24.538  0.00  0.00    +0.031 C 
ATOM     33  H   UNL     1      31.543  -8.878 -19.564  0.00  0.00    +0.152 HD
ENDBRANCH  22  24
ENDBRANCH   1  22
TORSDOF 10
ENDMDL
MODEL 7
REMARK VINA RESULT:      -9.3      9.095     15.602
REMARK  Name = 42627769
REMARK  10 active torsions:
REMARK  status: ('A' for Active; 'I' for Inactive)
REMARK    1  A    between atoms: C_1  and  C_3
REMARK    2  A    between atoms: C_1  and  N_6
REMARK    3  A    between atoms: C_1  and  C_22
REMARK    4  A    between atoms: C_3  and  O_4
REMARK    5  A    between atoms: N_6  and  S_8
REMARK    6  A    between atoms: S_8  and  C_11
REMARK    7  A    between atoms: C_16  and  O_17
REMARK    8  A    between atoms: O_17  and  C_18
REMARK    9  A    between atoms: C_18  and  C_19
REMARK   10  A    between atoms: C_22  and  C_24
REMARK                            x       y       z     vdW  Elec       q    Type
REMARK                         _______ _______ _______ _____ _____    ______ ____
ROOT
ATOM      1  C   UNL     1      32.230  -8.568 -21.030  0.00  0.00    +0.178 C 
ENDROOT
BRANCH   1   3
ATOM      2  O   UNL     1      31.598  -8.397 -18.685  0.00  0.00    -0.249 OA
ATOM      3  C   UNL     1      32.382  -8.138 -19.589  0.00  0.00    +0.330 C 
BRANCH   3   4
ATOM      4  O   UNL     1      33.517  -7.415 -19.394  0.00  0.00    -0.479 OA
ATOM      5  H   UNL     1      34.058  -7.186 -20.124  0.00  0.00    +0.295 HD
ENDBRANCH   3   4
ENDBRANCH   1   3
BRANCH   1   6
ATOM      6  N   UNL     1      32.579 -10.007 -21.091  0.00  0.00    -0.170 NA
ATOM      7  H   UNL     1      33.046 -10.161 -21.984  0.00  0.00    +0.149 HD
BRANCH   6   8
ATOM      8  S   UNL     1      31.356 -11.180 -20.968  0.00  0.00    +0.061 S 
ATOM      9  O   UNL     1      30.462 -11.066 -22.105  0.00  0.00    -0.153 OA
ATOM     10  O   UNL     1      30.825 -11.162 -19.618  0.00  0.00    -0.153 OA
BRANCH   8  11
ATOM     11  C   UNL     1      32.271 -12.681 -21.143  0.00  0.00    +0.122 C 
ATOM     12  C   UNL     1      33.110 -12.862 -22.242  0.00  0.00    +0.023 C 
ATOM     13  C   UNL     1      32.152 -13.687 -20.184  0.00  0.00    +0.023 C 
ATOM     14  C   UNL     1      33.831 -14.047 -22.382  0.00  0.00    +0.038 C 
ATOM     15  C   UNL     1      32.873 -14.873 -20.324  0.00  0.00    +0.038 C 
ATOM     16  C   UNL     1      33.713 -15.053 -21.423  0.00  0.00    +0.140 C 
BRANCH  16  17
ATOM     17  O   UNL     1      34.416 -16.210 -21.560  0.00  0.00    -0.461 OA
BRANCH  17  18
ATOM     18  C   UNL     1      35.162 -16.378 -22.765  0.00  0.00    +0.281 C 
BRANCH  18  19
ATOM     19  C   UNL     1      35.040 -17.758 -23.232  0.00  0.00    -0.044 C 
ATOM     20  C   UNL     1      34.943 -18.893 -23.615  0.00  0.00    -0.086 C 
ATOM     21  C   UNL     1      34.824 -20.273 -24.080  0.00  0.00    +0.090 C 
ENDBRANCH  18  19
ENDBRANCH  17  18
ENDBRANCH  16  17
ENDBRANCH   8  11
ENDBRANCH   6   8
ENDBRANCH   1   6
BRANCH   1  22
ATOM     22  C   UNL     1      33.160  -7.774 -21.971  0.00  0.00    +0.056 C 
BRANCH  22  24
ATOM     23  N   UNL     1      31.036  -5.039 -23.130  0.00  0.00    -0.312 N 
ATOM     24  C   UNL     1      32.504  -6.629 -22.634  0.00  0.00    -0.004 C 
ATOM     25  C   UNL     1      32.999  -5.900 -23.751  0.00  0.00    +0.010 C 
ATOM     26  C   UNL     1      32.059  -4.908 -24.042  0.00  0.00    +0.048 C 
ATOM     27  C   UNL     1      31.296  -6.076 -22.274  0.00  0.00    +0.058 C 
ATOM     28  C   UNL     1      34.158  -5.989 -24.546  0.00  0.00    -0.003 C 
ATOM     29  C   UNL     1      32.222  -3.998 -25.092  0.00  0.00    +0.014 C 
ATOM     30  C   UNL     1      34.335  -5.085 -25.600  0.00  0.00    -0.022 C 
ATOM     31  C   UNL     1      33.381  -4.105 -25.866  0.00  0.00    -0.003 C 
ATOM     32  C   UNL     1      35.562  -5.173 -26.445  0.00  0.00    +0.031 C 
ATOM     33  H   UNL     1      30.234  -4.469 -23.096  0.00  0.00    +0.152 HD
ENDBRANCH  22  24
ENDBRANCH   1  22
TORSDOF 10
ENDMDL
MODEL 8
REMARK VINA RESULT:      -9.3      2.385      4.862
REMARK  Name = 42627769
REMARK  10 active torsions:
REMARK  status: ('A' for Active; 'I' for Inactive)
REMARK    1  A    between atoms: C_1  and  C_3
REMARK    2  A    between atoms: C_1  and  N_6
REMARK    3  A    between atoms: C_1  and  C_22
REMARK    4  A    between atoms: C_3  and  O_4
REMARK    5  A    between atoms: N_6  and  S_8
REMARK    6  A    between atoms: S_8  and  C_11
REMARK    7  A    between atoms: C_16  and  O_17
REMARK    8  A    between atoms: O_17  and  C_18
REMARK    9  A    between atoms: C_18  and  C_19
REMARK   10  A    between atoms: C_22  and  C_24
REMARK                            x       y       z     vdW  Elec       q    Type
REMARK                         _______ _______ _______ _____ _____    ______ ____
ROOT
ATOM      1  C   UNL     1      33.631 -23.500 -14.925  0.00  0.00    +0.178 C 
ENDROOT
BRANCH   1   3
ATOM      2  O   UNL     1      31.618 -24.862 -15.073  0.00  0.00    -0.249 OA
ATOM      3  C   UNL     1      32.144 -23.771 -14.894  0.00  0.00    +0.330 C 
BRANCH   3   4
ATOM      4  O   UNL     1      31.429 -22.645 -14.633  0.00  0.00    -0.479 OA
ATOM      5  H   UNL     1      31.345 -22.337 -13.752  0.00  0.00    +0.295 HD
ENDBRANCH   3   4
ENDBRANCH   1   3
BRANCH   1   6
ATOM      6  N   UNL     1      33.903 -22.719 -16.154  0.00  0.00    -0.170 NA
ATOM      7  H   UNL     1      33.674 -21.748 -15.945  0.00  0.00    +0.149 HD
BRANCH   6   8
ATOM      8  S   UNL     1      33.100 -23.110 -17.599  0.00  0.00    +0.061 S 
ATOM      9  O   UNL     1      31.715 -22.689 -17.512  0.00  0.00    -0.153 OA
ATOM     10  O   UNL     1      33.426 -24.478 -17.959  0.00  0.00    -0.153 OA
BRANCH   8  11
ATOM     11  C   UNL     1      33.916 -22.062 -18.765  0.00  0.00    +0.122 C 
ATOM     12  C   UNL     1      35.307 -22.076 -18.860  0.00  0.00    +0.023 C 
ATOM     13  C   UNL     1      33.169 -21.219 -19.588  0.00  0.00    +0.023 C 
ATOM     14  C   UNL     1      35.952 -21.247 -19.778  0.00  0.00    +0.038 C 
ATOM     15  C   UNL     1      33.814 -20.390 -20.506  0.00  0.00    +0.038 C 
ATOM     16  C   UNL     1      35.205 -20.404 -20.601  0.00  0.00    +0.140 C 
BRANCH  16  17
ATOM     17  O   UNL     1      35.834 -19.596 -21.496  0.00  0.00    -0.461 OA
BRANCH  17  18
ATOM     18  C   UNL     1      35.629 -18.190 -21.359  0.00  0.00    +0.281 C 
BRANCH  18  19
ATOM     19  C   UNL     1      35.260 -17.617 -22.652  0.00  0.00    -0.044 C 
ATOM     20  C   UNL     1      34.958 -17.149 -23.716  0.00  0.00    -0.086 C 
ATOM     21  C   UNL     1      34.589 -16.578 -25.011  0.00  0.00    +0.090 C 
ENDBRANCH  18  19
ENDBRANCH  17  18
ENDBRANCH  16  17
ENDBRANCH   8  11
ENDBRANCH   6   8
ENDBRANCH   1   6
BRANCH   1  22
ATOM     22  C   UNL     1      34.455 -24.805 -14.952  0.00  0.00    +0.056 C 
BRANCH  22  24
ATOM     23  N   UNL     1      35.661 -25.380 -11.554  0.00  0.00    -0.312 N 
ATOM     24  C   UNL     1      35.195 -25.071 -13.702  0.00  0.00    -0.004 C 
ATOM     25  C   UNL     1      36.587 -25.343 -13.584  0.00  0.00    +0.010 C 
ATOM     26  C   UNL     1      36.852 -25.533 -12.226  0.00  0.00    +0.048 C 
ATOM     27  C   UNL     1      34.653 -25.102 -12.438  0.00  0.00    +0.058 C 
ATOM     28  C   UNL     1      37.649 -25.444 -14.503  0.00  0.00    -0.003 C 
ATOM     29  C   UNL     1      38.133 -25.820 -11.739  0.00  0.00    +0.014 C 
ATOM     30  C   UNL     1      38.935 -25.731 -14.031  0.00  0.00    -0.022 C 
ATOM     31  C   UNL     1      39.171 -25.917 -12.671  0.00  0.00    -0.003 C 
ATOM     32  C   UNL     1      40.065 -25.842 -15.001  0.00  0.00    +0.031 C 
ATOM     33  H   UNL     1      35.548 -25.461 -10.579  0.00  0.00    +0.152 HD
ENDBRANCH  22  24
ENDBRANCH   1  22
TORSDOF 10
ENDMDL
MODEL 9
REMARK VINA RESULT:      -9.2      3.718     10.755
REMARK  Name = 42627769
REMARK  10 active torsions:
REMARK  status: ('A' for Active; 'I' for Inactive)
REMARK    1  A    between atoms: C_1  and  C_3
REMARK    2  A    between atoms: C_1  and  N_6
REMARK    3  A    between atoms: C_1  and  C_22
REMARK    4  A    between atoms: C_3  and  O_4
REMARK    5  A    between atoms: N_6  and  S_8
REMARK    6  A    between atoms: S_8  and  C_11
REMARK    7  A    between atoms: C_16  and  O_17
REMARK    8  A    between atoms: O_17  and  C_18
REMARK    9  A    between atoms: C_18  and  C_19
REMARK   10  A    between atoms: C_22  and  C_24
REMARK                            x       y       z     vdW  Elec       q    Type
REMARK                         _______ _______ _______ _____ _____    ______ ____
ROOT
ATOM      1  C   UNL     1      34.605 -16.214 -21.726  0.00  0.00    +0.178 C 
ENDROOT
BRANCH   1   3
ATOM      2  O   UNL     1      33.987 -16.883 -23.984  0.00  0.00    -0.249 OA
ATOM      3  C   UNL     1      34.829 -16.463 -23.201  0.00  0.00    +0.330 C 
BRANCH   3   4
ATOM      4  O   UNL     1      36.098 -16.158 -23.578  0.00  0.00    -0.479 OA
ATOM      5  H   UNL     1      36.260 -15.795 -24.427  0.00  0.00    +0.295 HD
ENDBRANCH   3   4
ENDBRANCH   1   3
BRANCH   1   6
ATOM      6  N   UNL     1      34.514 -17.541 -21.072  0.00  0.00    -0.170 NA
ATOM      7  H   UNL     1      34.504 -17.375 -20.067  0.00  0.00    +0.149 HD
BRANCH   6   8
ATOM      8  S   UNL     1      35.710 -18.711 -21.364  0.00  0.00    +0.061 S 
ATOM      9  O   UNL     1      36.939 -18.323 -20.697  0.00  0.00    -0.153 OA
ATOM     10  O   UNL     1      35.718 -19.029 -22.780  0.00  0.00    -0.153 OA
BRANCH   8  11
ATOM     11  C   UNL     1      35.055 -20.120 -20.523  0.00  0.00    +0.122 C 
ATOM     12  C   UNL     1      33.675 -20.299 -20.434  0.00  0.00    +0.023 C 
ATOM     13  C   UNL     1      35.918 -21.051 -19.944  0.00  0.00    +0.023 C 
ATOM     14  C   UNL     1      33.157 -21.410 -19.768  0.00  0.00    +0.038 C 
ATOM     15  C   UNL     1      35.400 -22.162 -19.278  0.00  0.00    +0.038 C 
ATOM     16  C   UNL     1      34.020 -22.342 -19.191  0.00  0.00    +0.140 C 
BRANCH  16  17
ATOM     17  O   UNL     1      33.514 -23.425 -18.541  0.00  0.00    -0.461 OA
BRANCH  17  18
ATOM     18  C   UNL     1      32.962 -23.205 -17.243  0.00  0.00    +0.281 C 
BRANCH  18  19
ATOM     19  C   UNL     1      33.852 -23.766 -16.228  0.00  0.00    -0.044 C 
ATOM     20  C   UNL     1      34.581 -24.225 -15.391  0.00  0.00    -0.086 C 
ATOM     21  C   UNL     1      35.469 -24.785 -14.373  0.00  0.00    +0.090 C 
ENDBRANCH  18  19
ENDBRANCH  17  18
ENDBRANCH  16  17
ENDBRANCH   8  11
ENDBRANCH   6   8
ENDBRANCH   1   6
BRANCH   1  22
ATOM     22  C   UNL     1      33.306 -15.422 -21.465  0.00  0.00    +0.056 C 
BRANCH  22  24
ATOM     23  N   UNL     1      33.691 -12.360 -23.417  0.00  0.00    -0.312 N 
ATOM     24  C   UNL     1      33.305 -14.066 -22.050  0.00  0.00    -0.004 C 
ATOM     25  C   UNL     1      32.665 -12.914 -21.514  0.00  0.00    +0.010 C 
ATOM     26  C   UNL     1      32.923 -11.858 -22.391  0.00  0.00    +0.048 C 
ATOM     27  C   UNL     1      33.926 -13.695 -23.220  0.00  0.00    +0.058 C 
ATOM     28  C   UNL     1      31.891 -12.666 -20.364  0.00  0.00    -0.003 C 
ATOM     29  C   UNL     1      32.443 -10.561 -22.173  0.00  0.00    +0.014 C 
ATOM     30  C   UNL     1      31.404 -11.375 -20.133  0.00  0.00    -0.022 C 
ATOM     31  C   UNL     1      31.676 -10.340 -21.026  0.00  0.00    -0.003 C 
ATOM     32  C   UNL     1      30.581 -11.106 -18.917  0.00  0.00    +0.031 C 
ATOM     33  H   UNL     1      34.022 -11.837 -24.182  0.00  0.00    +0.152 HD
ENDBRANCH  22  24
ENDBRANCH   1  22
TORSDOF 10
ENDMDL
