MODEL 1
REMARK VINA RESULT:     -11.3      0.000      0.000
REMARK  Name = 10361208
REMARK  3 active torsions:
REMARK  status: ('A' for Active; 'I' for Inactive)
REMARK    1  A    between atoms: N_1  and  C_12
REMARK    2  A    between atoms: C_10  and  C_18
REMARK    3  A    between atoms: C_21  and  C_27
REMARK                            x       y       z     vdW  Elec       q    Type
REMARK                         _______ _______ _______ _____ _____    ______ ____
ROOT
ATOM      1  N   UNL     1      35.047 -25.125 -13.512  0.00  0.00    -0.318 N 
ATOM      2  N   UNL     1      34.021 -24.057 -15.269  0.00  0.00    -0.147 NA
ATOM      3  N   UNL     1      32.831 -23.720 -15.826  0.00  0.00    -0.190 N 
ATOM      4  N   UNL     1      30.674 -23.508 -16.179  0.00  0.00    -0.127 NA
ATOM      5  N   UNL     1      31.349 -22.881 -17.207  0.00  0.00    -0.127 NA
ATOM      6  C   UNL     1      33.930 -24.738 -14.149  0.00  0.00    +0.149 C 
ATOM      7  C   UNL     1      32.606 -25.111 -13.537  0.00  0.00    +0.039 C 
ATOM      8  C   UNL     1      31.572 -24.006 -15.356  0.00  0.00    +0.187 A 
ATOM      9  C   UNL     1      31.481 -24.736 -14.156  0.00  0.00    +0.044 C 
ATOM     10  C   UNL     1      32.636 -23.019 -16.980  0.00  0.00    +0.187 A 
ATOM     11  H   UNL     1      34.957 -25.648 -12.682  0.00  0.00    +0.148 HD
ENDROOT
BRANCH   1  12
ATOM     12  C   UNL     1      36.378 -24.806 -13.992  0.00  0.00    +0.070 C 
ATOM     13  C   UNL     1      36.857 -23.487 -13.378  0.00  0.00    +0.020 C 
ATOM     14  C   UNL     1      37.339 -25.957 -13.677  0.00  0.00    +0.020 C 
ATOM     15  C   UNL     1      37.176 -23.611 -11.887  0.00  0.00    +0.002 C 
ATOM     16  C   UNL     1      37.657 -26.071 -12.186  0.00  0.00    +0.002 C 
ATOM     17  C   UNL     1      38.155 -24.748 -11.613  0.00  0.00    +0.000 C 
ENDBRANCH   1  12
BRANCH  10  18
ATOM     18  C   UNL     1      33.706 -22.513 -17.807  0.00  0.00    +0.038 C 
ATOM     19  C   UNL     1      33.416 -21.709 -18.909  0.00  0.00    +0.007 C 
ATOM     20  C   UNL     1      35.029 -22.831 -17.504  0.00  0.00    +0.003 C 
ATOM     21  C   UNL     1      34.449 -21.222 -19.708  0.00  0.00    +0.072 C 
ATOM     22  C   UNL     1      36.064 -22.344 -18.303  0.00  0.00    +0.000 C 
ATOM     23  C   UNL     1      35.773 -21.539 -19.406  0.00  0.00    +0.004 C 
BRANCH  21  27
ATOM     24  F   UNL     1      34.248 -19.023 -20.629  0.00  0.00    -0.166 F 
ATOM     25  F   UNL     1      34.958 -20.585 -21.956  0.00  0.00    -0.166 F 
ATOM     26  F   UNL     1      32.870 -20.543 -21.351  0.00  0.00    -0.166 F 
ATOM     27  C   UNL     1      34.141 -20.360 -20.886  0.00  0.00    +0.419 C 
ENDBRANCH  21  27
ENDBRANCH  10  18
TORSDOF 3
ENDMDL
MODEL 2
REMARK VINA RESULT:     -11.2      3.117      5.073
REMARK  Name = 10361208
REMARK  3 active torsions:
REMARK  status: ('A' for Active; 'I' for Inactive)
REMARK    1  A    between atoms: N_1  and  C_12
REMARK    2  A    between atoms: C_10  and  C_18
REMARK    3  A    between atoms: C_21  and  C_27
REMARK                            x       y       z     vdW  Elec       q    Type
REMARK                         _______ _______ _______ _____ _____    ______ ____
ROOT
ATOM      1  N   UNL     1      36.982 -23.153 -14.192  0.00  0.00    -0.318 N 
ATOM      2  N   UNL     1      35.064 -23.167 -15.456  0.00  0.00    -0.147 NA
ATOM      3  N   UNL     1      34.537 -22.936 -16.685  0.00  0.00    -0.190 N 
ATOM      4  N   UNL     1      34.337 -22.407 -18.806  0.00  0.00    -0.127 NA
ATOM      5  N   UNL     1      33.093 -22.763 -18.325  0.00  0.00    -0.127 NA
ATOM      6  C   UNL     1      36.357 -22.956 -15.364  0.00  0.00    +0.149 C 
ATOM      7  C   UNL     1      37.185 -22.495 -16.533  0.00  0.00    +0.039 C 
ATOM      8  C   UNL     1      35.196 -22.515 -17.815  0.00  0.00    +0.187 A 
ATOM      9  C   UNL     1      36.581 -22.291 -17.710  0.00  0.00    +0.044 C 
ATOM     10  C   UNL     1      33.232 -23.074 -17.056  0.00  0.00    +0.187 A 
ATOM     11  H   UNL     1      37.949 -22.974 -14.140  0.00  0.00    +0.148 HD
ENDROOT
BRANCH   1  12
ATOM     12  C   UNL     1      36.296 -23.618 -13.002  0.00  0.00    +0.070 C 
ATOM     13  C   UNL     1      35.862 -25.076 -13.180  0.00  0.00    +0.020 C 
ATOM     14  C   UNL     1      37.196 -23.444 -11.774  0.00  0.00    +0.020 C 
ATOM     15  C   UNL     1      37.041 -26.050 -13.158  0.00  0.00    +0.002 C 
ATOM     16  C   UNL     1      38.370 -24.424 -11.758  0.00  0.00    +0.002 C 
ATOM     17  C   UNL     1      37.900 -25.867 -11.912  0.00  0.00    +0.000 C 
ENDBRANCH   1  12
BRANCH  10  18
ATOM     18  C   UNL     1      32.181 -23.504 -16.165  0.00  0.00    +0.038 C 
ATOM     19  C   UNL     1      30.845 -23.338 -16.529  0.00  0.00    +0.007 C 
ATOM     20  C   UNL     1      32.503 -24.085 -14.939  0.00  0.00    +0.003 C 
ATOM     21  C   UNL     1      29.831 -23.753 -15.667  0.00  0.00    +0.072 C 
ATOM     22  C   UNL     1      31.488 -24.500 -14.076  0.00  0.00    +0.000 C 
ATOM     23  C   UNL     1      30.151 -24.334 -14.441  0.00  0.00    +0.004 C 
BRANCH  21  27
ATOM     24  F   UNL     1      27.575 -23.315 -15.001  0.00  0.00    -0.166 F 
ATOM     25  F   UNL     1      28.196 -22.551 -16.933  0.00  0.00    -0.166 F 
ATOM     26  F   UNL     1      27.883 -24.685 -16.662  0.00  0.00    -0.166 F 
ATOM     27  C   UNL     1      28.402 -23.577 -16.056  0.00  0.00    +0.419 C 
ENDBRANCH  21  27
ENDBRANCH  10  18
TORSDOF 3
ENDMDL
MODEL 3
REMARK VINA RESULT:     -10.4      2.318      3.009
REMARK  Name = 10361208
REMARK  3 active torsions:
REMARK  status: ('A' for Active; 'I' for Inactive)
REMARK    1  A    between atoms: N_1  and  C_12
REMARK    2  A    between atoms: C_10  and  C_18
REMARK    3  A    between atoms: C_21  and  C_27
REMARK                            x       y       z     vdW  Elec       q    Type
REMARK                         _______ _______ _______ _____ _____    ______ ____
ROOT
ATOM      1  N   UNL     1      34.722 -25.050 -12.770  0.00  0.00    -0.318 N 
ATOM      2  N   UNL     1      33.933 -24.163 -14.737  0.00  0.00    -0.147 NA
ATOM      3  N   UNL     1      32.829 -23.932 -15.491  0.00  0.00    -0.190 N 
ATOM      4  N   UNL     1      30.746 -23.866 -16.181  0.00  0.00    -0.127 NA
ATOM      5  N   UNL     1      31.543 -23.274 -17.140  0.00  0.00    -0.127 NA
ATOM      6  C   UNL     1      33.701 -24.770 -13.596  0.00  0.00    +0.149 C 
ATOM      7  C   UNL     1      32.316 -25.175 -13.164  0.00  0.00    +0.039 C 
ATOM      8  C   UNL     1      31.527 -24.257 -15.197  0.00  0.00    +0.187 A 
ATOM      9  C   UNL     1      31.285 -24.907 -13.973  0.00  0.00    +0.044 C 
ATOM     10  C   UNL     1      32.785 -23.323 -16.711  0.00  0.00    +0.187 A 
ATOM     11  H   UNL     1      34.529 -25.520 -11.926  0.00  0.00    +0.148 HD
ENDROOT
BRANCH   1  12
ATOM     12  C   UNL     1      36.095 -24.690 -13.066  0.00  0.00    +0.070 C 
ATOM     13  C   UNL     1      37.034 -25.291 -12.015  0.00  0.00    +0.020 C 
ATOM     14  C   UNL     1      36.465 -25.149 -14.480  0.00  0.00    +0.020 C 
ATOM     15  C   UNL     1      37.165 -26.810 -12.139  0.00  0.00    +0.002 C 
ATOM     16  C   UNL     1      36.597 -26.668 -14.594  0.00  0.00    +0.002 C 
ATOM     17  C   UNL     1      37.558 -27.229 -13.551  0.00  0.00    +0.000 C 
ENDBRANCH   1  12
BRANCH  10  18
ATOM     18  C   UNL     1      33.945 -22.816 -17.403  0.00  0.00    +0.038 C 
ATOM     19  C   UNL     1      35.135 -22.603 -16.708  0.00  0.00    +0.007 C 
ATOM     20  C   UNL     1      33.875 -22.538 -18.768  0.00  0.00    +0.003 C 
ATOM     21  C   UNL     1      36.255 -22.112 -17.377  0.00  0.00    +0.072 C 
ATOM     22  C   UNL     1      34.995 -22.046 -19.438  0.00  0.00    +0.000 C 
ATOM     23  C   UNL     1      36.186 -21.833 -18.742  0.00  0.00    +0.004 C 
BRANCH  21  27
ATOM     24  F   UNL     1      38.457 -22.868 -16.829  0.00  0.00    -0.166 F 
ATOM     25  F   UNL     1      38.162 -20.724 -16.978  0.00  0.00    -0.166 F 
ATOM     26  F   UNL     1      37.344 -21.816 -15.284  0.00  0.00    -0.166 F 
ATOM     27  C   UNL     1      37.529 -21.885 -16.635  0.00  0.00    +0.419 C 
ENDBRANCH  21  27
ENDBRANCH  10  18
TORSDOF 3
ENDMDL
MODEL 4
REMARK VINA RESULT:     -10.4      3.734      5.527
REMARK  Name = 10361208
REMARK  3 active torsions:
REMARK  status: ('A' for Active; 'I' for Inactive)
REMARK    1  A    between atoms: N_1  and  C_12
REMARK    2  A    between atoms: C_10  and  C_18
REMARK    3  A    between atoms: C_21  and  C_27
REMARK                            x       y       z     vdW  Elec       q    Type
REMARK                         _______ _______ _______ _____ _____    ______ ____
ROOT
ATOM      1  N   UNL     1      36.823 -23.315 -14.581  0.00  0.00    -0.318 N 
ATOM      2  N   UNL     1      34.913 -23.108 -15.841  0.00  0.00    -0.147 NA
ATOM      3  N   UNL     1      34.411 -22.776 -17.057  0.00  0.00    -0.190 N 
ATOM      4  N   UNL     1      34.262 -22.134 -19.151  0.00  0.00    -0.127 NA
ATOM      5  N   UNL     1      32.991 -22.405 -18.685  0.00  0.00    -0.127 NA
ATOM      6  C   UNL     1      36.219 -23.011 -15.741  0.00  0.00    +0.149 C 
ATOM      7  C   UNL     1      37.086 -22.567 -16.889  0.00  0.00    +0.039 C 
ATOM      8  C   UNL     1      35.106 -22.360 -18.167  0.00  0.00    +0.187 A 
ATOM      9  C   UNL     1      36.505 -22.258 -18.054  0.00  0.00    +0.044 C 
ATOM     10  C   UNL     1      33.100 -22.786 -17.432  0.00  0.00    +0.187 A 
ATOM     11  H   UNL     1      37.802 -23.221 -14.521  0.00  0.00    +0.148 HD
ENDROOT
BRANCH   1  12
ATOM     12  C   UNL     1      36.097 -23.775 -13.412  0.00  0.00    +0.070 C 
ATOM     13  C   UNL     1      35.847 -25.283 -13.509  0.00  0.00    +0.020 C 
ATOM     14  C   UNL     1      36.867 -23.412 -12.138  0.00  0.00    +0.020 C 
ATOM     15  C   UNL     1      37.122 -26.107 -13.323  0.00  0.00    +0.002 C 
ATOM     16  C   UNL     1      38.138 -24.243 -11.958  0.00  0.00    +0.002 C 
ATOM     17  C   UNL     1      37.848 -25.739 -12.034  0.00  0.00    +0.000 C 
ENDBRANCH   1  12
BRANCH  10  18
ATOM     18  C   UNL     1      32.014 -23.167 -16.561  0.00  0.00    +0.038 C 
ATOM     19  C   UNL     1      32.284 -23.759 -15.327  0.00  0.00    +0.007 C 
ATOM     20  C   UNL     1      30.695 -22.944 -16.954  0.00  0.00    +0.003 C 
ATOM     21  C   UNL     1      31.234 -24.127 -14.486  0.00  0.00    +0.072 C 
ATOM     22  C   UNL     1      29.644 -23.312 -16.114  0.00  0.00    +0.000 C 
ATOM     23  C   UNL     1      29.915 -23.904 -14.879  0.00  0.00    +0.004 C 
BRANCH  21  27
ATOM     24  F   UNL     1      31.912 -26.063 -13.256  0.00  0.00    -0.166 F 
ATOM     25  F   UNL     1      32.515 -24.135 -12.466  0.00  0.00    -0.166 F 
ATOM     26  F   UNL     1      30.435 -24.758 -12.337  0.00  0.00    -0.166 F 
ATOM     27  C   UNL     1      31.521 -24.758 -13.166  0.00  0.00    +0.419 C 
ENDBRANCH  21  27
ENDBRANCH  10  18
TORSDOF 3
ENDMDL
MODEL 5
REMARK VINA RESULT:     -10.4      4.299      7.234
REMARK  Name = 10361208
REMARK  3 active torsions:
REMARK  status: ('A' for Active; 'I' for Inactive)
REMARK    1  A    between atoms: N_1  and  C_12
REMARK    2  A    between atoms: C_10  and  C_18
REMARK    3  A    between atoms: C_21  and  C_27
REMARK                            x       y       z     vdW  Elec       q    Type
REMARK                         _______ _______ _______ _____ _____    ______ ____
ROOT
ATOM      1  N   UNL     1      31.715 -23.457 -16.760  0.00  0.00    -0.318 N 
ATOM      2  N   UNL     1      33.975 -23.282 -16.388  0.00  0.00    -0.147 NA
ATOM      3  N   UNL     1      35.159 -22.860 -16.898  0.00  0.00    -0.190 N 
ATOM      4  N   UNL     1      36.667 -22.000 -18.242  0.00  0.00    -0.127 NA
ATOM      5  N   UNL     1      37.301 -22.437 -17.097  0.00  0.00    -0.127 NA
ATOM      6  C   UNL     1      32.938 -23.078 -17.166  0.00  0.00    +0.149 C 
ATOM      7  C   UNL     1      33.058 -22.427 -18.518  0.00  0.00    +0.039 C 
ATOM      8  C   UNL     1      35.383 -22.258 -18.113  0.00  0.00    +0.187 A 
ATOM      9  C   UNL     1      34.267 -22.043 -18.943  0.00  0.00    +0.044 C 
ATOM     10  C   UNL     1      36.385 -22.949 -16.306  0.00  0.00    +0.187 A 
ATOM     11  H   UNL     1      30.952 -23.310 -17.365  0.00  0.00    +0.148 HD
ENDROOT
BRANCH   1  12
ATOM     12  C   UNL     1      31.470 -24.074 -15.470  0.00  0.00    +0.070 C 
ATOM     13  C   UNL     1      30.912 -23.038 -14.489  0.00  0.00    +0.020 C 
ATOM     14  C   UNL     1      30.521 -25.267 -15.630  0.00  0.00    +0.020 C 
ATOM     15  C   UNL     1      29.478 -22.623 -14.820  0.00  0.00    +0.002 C 
ATOM     16  C   UNL     1      29.089 -24.843 -15.956  0.00  0.00    +0.002 C 
ATOM     17  C   UNL     1      28.556 -23.832 -14.945  0.00  0.00    +0.000 C 
ENDBRANCH   1  12
BRANCH  10  18
ATOM     18  C   UNL     1      36.610 -23.523 -15.001  0.00  0.00    +0.038 C 
ATOM     19  C   UNL     1      37.657 -24.423 -14.806  0.00  0.00    +0.007 C 
ATOM     20  C   UNL     1      35.780 -23.176 -13.935  0.00  0.00    +0.003 C 
ATOM     21  C   UNL     1      37.874 -24.977 -13.545  0.00  0.00    +0.072 C 
ATOM     22  C   UNL     1      35.996 -23.731 -12.673  0.00  0.00    +0.000 C 
ATOM     23  C   UNL     1      37.044 -24.632 -12.479  0.00  0.00    +0.004 C 
BRANCH  21  27
ATOM     24  F   UNL     1      39.050 -26.928 -14.275  0.00  0.00    -0.166 F 
ATOM     25  F   UNL     1      40.228 -25.355 -13.356  0.00  0.00    -0.166 F 
ATOM     26  F   UNL     1      38.915 -26.582 -12.132  0.00  0.00    -0.166 F 
ATOM     27  C   UNL     1      38.994 -25.940 -13.334  0.00  0.00    +0.419 C 
ENDBRANCH  21  27
ENDBRANCH  10  18
TORSDOF 3
ENDMDL
MODEL 6
REMARK VINA RESULT:     -10.2      4.167      7.251
REMARK  Name = 10361208
REMARK  3 active torsions:
REMARK  status: ('A' for Active; 'I' for Inactive)
REMARK    1  A    between atoms: N_1  and  C_12
REMARK    2  A    between atoms: C_10  and  C_18
REMARK    3  A    between atoms: C_21  and  C_27
REMARK                            x       y       z     vdW  Elec       q    Type
REMARK                         _______ _______ _______ _____ _____    ______ ____
ROOT
ATOM      1  N   UNL     1      31.519 -23.378 -16.814  0.00  0.00    -0.318 N 
ATOM      2  N   UNL     1      33.779 -23.383 -16.397  0.00  0.00    -0.147 NA
ATOM      3  N   UNL     1      34.996 -22.990 -16.850  0.00  0.00    -0.190 N 
ATOM      4  N   UNL     1      36.579 -22.103 -18.086  0.00  0.00    -0.127 NA
ATOM      5  N   UNL     1      37.163 -22.686 -16.979  0.00  0.00    -0.127 NA
ATOM      6  C   UNL     1      32.770 -23.041 -17.166  0.00  0.00    +0.149 C 
ATOM      7  C   UNL     1      32.956 -22.273 -18.448  0.00  0.00    +0.039 C 
ATOM      8  C   UNL     1      35.279 -22.291 -17.998  0.00  0.00    +0.187 A 
ATOM      9  C   UNL     1      34.195 -21.927 -18.818  0.00  0.00    +0.044 C 
ATOM     10  C   UNL     1      36.202 -23.212 -16.253  0.00  0.00    +0.187 A 
ATOM     11  H   UNL     1      30.778 -23.126 -17.412  0.00  0.00    +0.148 HD
ENDROOT
BRANCH   1  12
ATOM     12  C   UNL     1      31.212 -24.098 -15.593  0.00  0.00    +0.070 C 
ATOM     13  C   UNL     1      30.723 -23.123 -14.517  0.00  0.00    +0.020 C 
ATOM     14  C   UNL     1      30.178 -25.193 -15.874  0.00  0.00    +0.020 C 
ATOM     15  C   UNL     1      29.328 -22.569 -14.812  0.00  0.00    +0.002 C 
ATOM     16  C   UNL     1      28.786 -24.631 -16.163  0.00  0.00    +0.002 C 
ATOM     17  C   UNL     1      28.319 -23.685 -15.061  0.00  0.00    +0.000 C 
ENDBRANCH   1  12
BRANCH  10  18
ATOM     18  C   UNL     1      36.367 -23.920 -15.006  0.00  0.00    +0.038 C 
ATOM     19  C   UNL     1      36.955 -23.282 -13.914  0.00  0.00    +0.007 C 
ATOM     20  C   UNL     1      35.940 -25.242 -14.895  0.00  0.00    +0.003 C 
ATOM     21  C   UNL     1      37.115 -23.967 -12.710  0.00  0.00    +0.072 C 
ATOM     22  C   UNL     1      36.100 -25.929 -13.691  0.00  0.00    +0.000 C 
ATOM     23  C   UNL     1      36.688 -25.290 -12.598  0.00  0.00    +0.004 C 
BRANCH  21  27
ATOM     24  F   UNL     1      38.098 -21.992 -11.787  0.00  0.00    -0.166 F 
ATOM     25  F   UNL     1      36.932 -23.230 -10.442  0.00  0.00    -0.166 F 
ATOM     26  F   UNL     1      38.883 -23.908 -11.121  0.00  0.00    -0.166 F 
ATOM     27  C   UNL     1      37.741 -23.286 -11.540  0.00  0.00    +0.419 C 
ENDBRANCH  21  27
ENDBRANCH  10  18
TORSDOF 3
ENDMDL
MODEL 7
REMARK VINA RESULT:     -10.1      2.094      5.009
REMARK  Name = 10361208
REMARK  3 active torsions:
REMARK  status: ('A' for Active; 'I' for Inactive)
REMARK    1  A    between atoms: N_1  and  C_12
REMARK    2  A    between atoms: C_10  and  C_18
REMARK    3  A    between atoms: C_21  and  C_27
REMARK                            x       y       z     vdW  Elec       q    Type
REMARK                         _______ _______ _______ _____ _____    ______ ____
ROOT
ATOM      1  N   UNL     1      32.257 -24.846 -13.790  0.00  0.00    -0.318 N 
ATOM      2  N   UNL     1      34.278 -23.956 -14.424  0.00  0.00    -0.147 NA
ATOM      3  N   UNL     1      35.547 -23.684 -14.032  0.00  0.00    -0.190 N 
ATOM      4  N   UNL     1      37.372 -23.527 -12.821  0.00  0.00    -0.127 NA
ATOM      5  N   UNL     1      37.627 -22.993 -14.067  0.00  0.00    -0.127 NA
ATOM      6  C   UNL     1      33.532 -24.532 -13.510  0.00  0.00    +0.149 C 
ATOM      7  C   UNL     1      34.050 -24.862 -12.135  0.00  0.00    +0.039 C 
ATOM      8  C   UNL     1      36.122 -23.940 -12.810  0.00  0.00    +0.187 A 
ATOM      9  C   UNL     1      35.318 -24.556 -11.834  0.00  0.00    +0.044 C 
ATOM     10  C   UNL     1      36.526 -23.094 -14.777  0.00  0.00    +0.187 A 
ATOM     11  H   UNL     1      31.709 -25.263 -13.085  0.00  0.00    +0.148 HD
ENDROOT
BRANCH   1  12
ATOM     12  C   UNL     1      31.651 -24.598 -15.085  0.00  0.00    +0.070 C 
ATOM     13  C   UNL     1      30.516 -25.596 -15.335  0.00  0.00    +0.020 C 
ATOM     14  C   UNL     1      31.156 -23.150 -15.165  0.00  0.00    +0.020 C 
ATOM     15  C   UNL     1      29.292 -25.332 -14.456  0.00  0.00    +0.002 C 
ATOM     16  C   UNL     1      29.930 -22.896 -14.287  0.00  0.00    +0.002 C 
ATOM     17  C   UNL     1      28.811 -23.890 -14.580  0.00  0.00    +0.000 C 
ENDBRANCH   1  12
BRANCH  10  18
ATOM     18  C   UNL     1      36.349 -22.658 -16.142  0.00  0.00    +0.038 C 
ATOM     19  C   UNL     1      35.164 -22.945 -16.818  0.00  0.00    +0.007 C 
ATOM     20  C   UNL     1      37.366 -21.951 -16.783  0.00  0.00    +0.003 C 
ATOM     21  C   UNL     1      34.995 -22.524 -18.137  0.00  0.00    +0.072 C 
ATOM     22  C   UNL     1      37.197 -21.530 -18.102  0.00  0.00    +0.000 C 
ATOM     23  C   UNL     1      36.011 -21.817 -18.779  0.00  0.00    +0.004 C 
BRANCH  21  27
ATOM     24  F   UNL     1      32.637 -22.917 -18.044  0.00  0.00    -0.166 F 
ATOM     25  F   UNL     1      33.395 -21.894 -19.800  0.00  0.00    -0.166 F 
ATOM     26  F   UNL     1      33.779 -24.018 -19.532  0.00  0.00    -0.166 F 
ATOM     27  C   UNL     1      33.727 -22.829 -18.862  0.00  0.00    +0.419 C 
ENDBRANCH  21  27
ENDBRANCH  10  18
TORSDOF 3
ENDMDL
MODEL 8
REMARK VINA RESULT:      -9.9      1.999      4.732
REMARK  Name = 10361208
REMARK  3 active torsions:
REMARK  status: ('A' for Active; 'I' for Inactive)
REMARK    1  A    between atoms: N_1  and  C_12
REMARK    2  A    between atoms: C_10  and  C_18
REMARK    3  A    between atoms: C_21  and  C_27
REMARK                            x       y       z     vdW  Elec       q    Type
REMARK                         _______ _______ _______ _____ _____    ______ ____
ROOT
ATOM      1  N   UNL     1      32.661 -24.221 -14.902  0.00  0.00    -0.318 N 
ATOM      2  N   UNL     1      34.106 -23.203 -16.370  0.00  0.00    -0.147 NA
ATOM      3  N   UNL     1      35.406 -22.920 -16.638  0.00  0.00    -0.190 N 
ATOM      4  N   UNL     1      37.593 -22.805 -16.488  0.00  0.00    -0.127 NA
ATOM      5  N   UNL     1      37.199 -22.151 -17.637  0.00  0.00    -0.127 NA
ATOM      6  C   UNL     1      33.910 -23.886 -15.266  0.00  0.00    +0.149 C 
ATOM      7  C   UNL     1      35.041 -24.319 -14.372  0.00  0.00    +0.039 C 
ATOM      8  C   UNL     1      36.510 -23.264 -15.897  0.00  0.00    +0.187 A 
ATOM      9  C   UNL     1      36.293 -23.995 -14.714  0.00  0.00    +0.044 C 
ATOM     10  C   UNL     1      35.889 -22.229 -17.710  0.00  0.00    +0.187 A 
ATOM     11  H   UNL     1      32.533 -24.720 -14.063  0.00  0.00    +0.148 HD
ENDROOT
BRANCH   1  12
ATOM     12  C   UNL     1      31.493 -23.880 -15.692  0.00  0.00    +0.070 C 
ATOM     13  C   UNL     1      30.727 -25.150 -16.073  0.00  0.00    +0.020 C 
ATOM     14  C   UNL     1      30.606 -22.897 -14.921  0.00  0.00    +0.020 C 
ATOM     15  C   UNL     1      30.016 -25.792 -14.881  0.00  0.00    +0.002 C 
ATOM     16  C   UNL     1      29.896 -23.547 -13.733  0.00  0.00    +0.002 C 
ATOM     17  C   UNL     1      29.123 -24.793 -14.153  0.00  0.00    +0.000 C 
ENDBRANCH   1  12
BRANCH  10  18
ATOM     18  C   UNL     1      35.060 -21.678 -18.755  0.00  0.00    +0.038 C 
ATOM     19  C   UNL     1      35.621 -20.857 -19.733  0.00  0.00    +0.007 C 
ATOM     20  C   UNL     1      33.696 -21.967 -18.786  0.00  0.00    +0.003 C 
ATOM     21  C   UNL     1      34.820 -20.326 -20.742  0.00  0.00    +0.072 C 
ATOM     22  C   UNL     1      32.893 -21.435 -19.795  0.00  0.00    +0.000 C 
ATOM     23  C   UNL     1      33.455 -20.614 -20.774  0.00  0.00    +0.004 C 
BRANCH  21  27
ATOM     24  F   UNL     1      34.897 -18.187 -21.810  0.00  0.00    -0.166 F 
ATOM     25  F   UNL     1      36.767 -19.274 -21.650  0.00  0.00    -0.166 F 
ATOM     26  F   UNL     1      35.242 -19.941 -23.050  0.00  0.00    -0.166 F 
ATOM     27  C   UNL     1      35.419 -19.448 -21.789  0.00  0.00    +0.419 C 
ENDBRANCH  21  27
ENDBRANCH  10  18
TORSDOF 3
ENDMDL
MODEL 9
REMARK VINA RESULT:      -9.9     11.074     14.202
REMARK  Name = 10361208
REMARK  3 active torsions:
REMARK  status: ('A' for Active; 'I' for Inactive)
REMARK    1  A    between atoms: N_1  and  C_12
REMARK    2  A    between atoms: C_10  and  C_18
REMARK    3  A    between atoms: C_21  and  C_27
REMARK                            x       y       z     vdW  Elec       q    Type
REMARK                         _______ _______ _______ _____ _____    ______ ____
ROOT
ATOM      1  N   UNL     1      31.605  -8.902 -21.548  0.00  0.00    -0.318 N 
ATOM      2  N   UNL     1      32.146 -11.133 -21.635  0.00  0.00    -0.147 NA
ATOM      3  N   UNL     1      32.196 -12.296 -20.938  0.00  0.00    -0.190 N 
ATOM      4  N   UNL     1      32.031 -13.770 -19.320  0.00  0.00    -0.127 NA
ATOM      5  N   UNL     1      32.526 -14.405 -20.441  0.00  0.00    -0.127 NA
ATOM      6  C   UNL     1      31.696 -10.104 -20.955  0.00  0.00    +0.149 C 
ATOM      7  C   UNL     1      31.271 -10.211 -19.515  0.00  0.00    +0.039 C 
ATOM      8  C   UNL     1      31.835 -12.506 -19.629  0.00  0.00    +0.187 A 
ATOM      9  C   UNL     1      31.355 -11.399 -18.905  0.00  0.00    +0.044 C 
ATOM     10  C   UNL     1      32.619 -13.508 -21.398  0.00  0.00    +0.187 A 
ATOM     11  H   UNL     1      31.280  -8.139 -21.016  0.00  0.00    +0.148 HD
ENDROOT
BRANCH   1  12
ATOM     12  C   UNL     1      31.964  -8.679 -22.935  0.00  0.00    +0.070 C 
ATOM     13  C   UNL     1      30.973  -7.707 -23.585  0.00  0.00    +0.020 C 
ATOM     14  C   UNL     1      33.403  -8.163 -23.029  0.00  0.00    +0.020 C 
ATOM     15  C   UNL     1      31.131  -6.274 -23.075  0.00  0.00    +0.002 C 
ATOM     16  C   UNL     1      33.551  -6.728 -22.522  0.00  0.00    +0.002 C 
ATOM     17  C   UNL     1      32.569  -5.784 -23.208  0.00  0.00    +0.000 C 
ENDBRANCH   1  12
BRANCH  10  18
ATOM     18  C   UNL     1      33.091 -13.743 -22.741  0.00  0.00    +0.038 C 
ATOM     19  C   UNL     1      33.452 -15.029 -23.140  0.00  0.00    +0.007 C 
ATOM     20  C   UNL     1      33.187 -12.681 -23.640  0.00  0.00    +0.003 C 
ATOM     21  C   UNL     1      33.908 -15.254 -24.438  0.00  0.00    +0.072 C 
ATOM     22  C   UNL     1      33.644 -12.905 -24.939  0.00  0.00    +0.000 C 
ATOM     23  C   UNL     1      34.005 -14.193 -25.338  0.00  0.00    +0.004 C 
BRANCH  21  27
ATOM     24  F   UNL     1      34.497 -17.491 -23.826  0.00  0.00    -0.166 F 
ATOM     25  F   UNL     1      33.359 -17.239 -25.655  0.00  0.00    -0.166 F 
ATOM     26  F   UNL     1      35.451 -16.649 -25.591  0.00  0.00    -0.166 F 
ATOM     27  C   UNL     1      34.293 -16.630 -24.867  0.00  0.00    +0.419 C 
ENDBRANCH  21  27
ENDBRANCH  10  18
TORSDOF 3
ENDMDL
