MODEL 1
REMARK VINA RESULT:     -12.1      0.000      0.000
REMARK  Name = 24812719
REMARK  3 active torsions:
REMARK  status: ('A' for Active; 'I' for Inactive)
REMARK    1  A    between atoms: N_2  and  C_22
REMARK    2  A    between atoms: C_3  and  C_12
REMARK    3  A    between atoms: C_25  and  C_31
REMARK                            x       y       z     vdW  Elec       q    Type
REMARK                         _______ _______ _______ _____ _____    ______ ____
ROOT
ATOM      1  O   UNL     1      34.584 -16.056 -21.121  0.00  0.00    -0.269 OA
ATOM      2  N   UNL     1      34.954 -17.726 -22.739  0.00  0.00    -0.233 N 
ATOM      3  C   UNL     1      33.982 -15.501 -23.330  0.00  0.00    +0.046 C 
ATOM      4  C   UNL     1      33.998 -15.847 -24.633  0.00  0.00    -0.016 C 
ATOM      5  C   UNL     1      34.520 -16.457 -22.284  0.00  0.00    +0.256 C 
ATOM      6  C   UNL     1      34.951 -18.007 -24.101  0.00  0.00    +0.072 C 
ATOM      7  C   UNL     1      34.513 -17.140 -25.018  0.00  0.00    +0.012 C 
ATOM      8  C   UNL     1      33.507 -15.006 -25.781  0.00  0.00    +0.031 C 
ENDROOT
BRANCH   3  12
ATOM      9  N   UNL     1      31.993 -10.510 -21.602  0.00  0.00    -0.342 NA
ATOM     10  N   UNL     1      33.450  -9.361 -23.138  0.00  0.00    -0.170 NA
ATOM     11  N   UNL     1      31.997  -8.168 -21.740  0.00  0.00    -0.293 N 
ATOM     12  C   UNL     1      33.468 -14.193 -22.882  0.00  0.00    -0.017 C 
ATOM     13  C   UNL     1      33.957 -13.018 -23.443  0.00  0.00    +0.056 C 
ATOM     14  C   UNL     1      32.488 -14.127 -21.897  0.00  0.00    -0.022 C 
ATOM     15  C   UNL     1      33.462 -11.775 -23.014  0.00  0.00    +0.029 C 
ATOM     16  C   UNL     1      32.473 -11.695 -22.020  0.00  0.00    +0.124 C 
ATOM     17  C   UNL     1      32.001 -12.886 -21.475  0.00  0.00    +0.085 C 
ATOM     18  C   UNL     1      33.909 -10.563 -23.534  0.00  0.00    +0.110 C 
ATOM     19  C   UNL     1      32.508  -9.409 -22.183  0.00  0.00    +0.141 C 
ATOM     20  H   UNL     1      31.304  -8.143 -21.042  0.00  0.00    +0.155 HD
ATOM     21  H   UNL     1      32.335  -7.330 -22.129  0.00  0.00    +0.155 HD
ENDBRANCH   3  12
BRANCH   2  22
ATOM     22  C   UNL     1      35.425 -18.715 -21.788  0.00  0.00    +0.058 C 
ATOM     23  C   UNL     1      34.514 -19.544 -21.136  0.00  0.00    +0.019 C 
ATOM     24  C   UNL     1      36.789 -18.833 -21.524  0.00  0.00    +0.015 C 
ATOM     25  C   UNL     1      34.966 -20.493 -20.220  0.00  0.00    +0.073 C 
ATOM     26  C   UNL     1      37.242 -19.783 -20.608  0.00  0.00    +0.001 C 
ATOM     27  C   UNL     1      36.330 -20.613 -19.956  0.00  0.00    +0.004 C 
BRANCH  25  31
ATOM     28  F   UNL     1      33.734 -22.545 -20.187  0.00  0.00    -0.166 F 
ATOM     29  F   UNL     1      34.399 -21.765 -18.275  0.00  0.00    -0.166 F 
ATOM     30  F   UNL     1      32.776 -20.785 -19.340  0.00  0.00    -0.166 F 
ATOM     31  C   UNL     1      33.991 -21.380 -19.521  0.00  0.00    +0.419 C 
ENDBRANCH  25  31
ENDBRANCH   2  22
TORSDOF 3
ENDMDL
MODEL 2
REMARK VINA RESULT:     -11.6      3.657      8.508
REMARK  Name = 24812719
REMARK  3 active torsions:
REMARK  status: ('A' for Active; 'I' for Inactive)
REMARK    1  A    between atoms: N_2  and  C_22
REMARK    2  A    between atoms: C_3  and  C_12
REMARK    3  A    between atoms: C_25  and  C_31
REMARK                            x       y       z     vdW  Elec       q    Type
REMARK                         _______ _______ _______ _____ _____    ______ ____
ROOT
ATOM      1  O   UNL     1      34.491 -16.090 -21.287  0.00  0.00    -0.269 OA
ATOM      2  N   UNL     1      33.980 -15.511 -23.511  0.00  0.00    -0.233 N 
ATOM      3  C   UNL     1      34.805 -17.786 -22.891  0.00  0.00    +0.046 C 
ATOM      4  C   UNL     1      34.644 -18.186 -24.169  0.00  0.00    -0.016 C 
ATOM      5  C   UNL     1      34.427 -16.377 -22.483  0.00  0.00    +0.256 C 
ATOM      6  C   UNL     1      33.828 -15.999 -24.805  0.00  0.00    +0.072 C 
ATOM      7  C   UNL     1      34.126 -17.255 -25.144  0.00  0.00    +0.012 C 
ATOM      8  C   UNL     1      34.966 -19.549 -24.721  0.00  0.00    +0.031 C 
ENDROOT
BRANCH   3  12
ATOM      9  N   UNL     1      36.838 -21.259 -18.934  0.00  0.00    -0.342 NA
ATOM     10  N   UNL     1      34.658 -22.238 -18.627  0.00  0.00    -0.170 NA
ATOM     11  N   UNL     1      36.494 -22.978 -17.374  0.00  0.00    -0.293 N 
ATOM     12  C   UNL     1      35.329 -18.697 -21.855  0.00  0.00    -0.017 C 
ATOM     13  C   UNL     1      34.483 -19.604 -21.226  0.00  0.00    +0.056 C 
ATOM     14  C   UNL     1      36.674 -18.654 -21.503  0.00  0.00    -0.022 C 
ATOM     15  C   UNL     1      34.989 -20.469 -20.241  0.00  0.00    +0.029 C 
ATOM     16  C   UNL     1      36.344 -20.436 -19.876  0.00  0.00    +0.124 C 
ATOM     17  C   UNL     1      37.169 -19.518 -20.522  0.00  0.00    +0.085 C 
ATOM     18  C   UNL     1      34.196 -21.400 -19.574  0.00  0.00    +0.110 C 
ATOM     19  C   UNL     1      35.968 -22.115 -18.362  0.00  0.00    +0.141 C 
ATOM     20  H   UNL     1      37.449 -22.932 -17.140  0.00  0.00    +0.155 HD
ATOM     21  H   UNL     1      35.906 -23.625 -16.922  0.00  0.00    +0.155 HD
ENDBRANCH   3  12
BRANCH   2  22
ATOM     22  C   UNL     1      33.658 -14.130 -23.206  0.00  0.00    +0.058 C 
ATOM     23  C   UNL     1      32.863 -13.827 -22.102  0.00  0.00    +0.019 C 
ATOM     24  C   UNL     1      34.142 -13.106 -24.019  0.00  0.00    +0.015 C 
ATOM     25  C   UNL     1      32.553 -12.500 -21.809  0.00  0.00    +0.073 C 
ATOM     26  C   UNL     1      33.832 -11.777 -23.726  0.00  0.00    +0.001 C 
ATOM     27  C   UNL     1      33.036 -11.474 -22.621  0.00  0.00    +0.004 C 
BRANCH  25  31
ATOM     28  F   UNL     1      32.055 -11.015 -20.000  0.00  0.00    -0.166 F 
ATOM     29  F   UNL     1      30.378 -12.025 -20.933  0.00  0.00    -0.166 F 
ATOM     30  F   UNL     1      31.747 -13.142 -19.666  0.00  0.00    -0.166 F 
ATOM     31  C   UNL     1      31.701 -12.175 -20.628  0.00  0.00    +0.419 C 
ENDBRANCH  25  31
ENDBRANCH   2  22
TORSDOF 3
ENDMDL
MODEL 3
REMARK VINA RESULT:     -11.4      0.704      1.691
REMARK  Name = 24812719
REMARK  3 active torsions:
REMARK  status: ('A' for Active; 'I' for Inactive)
REMARK    1  A    between atoms: N_2  and  C_22
REMARK    2  A    between atoms: C_3  and  C_12
REMARK    3  A    between atoms: C_25  and  C_31
REMARK                            x       y       z     vdW  Elec       q    Type
REMARK                         _______ _______ _______ _____ _____    ______ ____
ROOT
ATOM      1  O   UNL     1      34.703 -16.152 -21.088  0.00  0.00    -0.269 OA
ATOM      2  N   UNL     1      34.909 -17.962 -22.581  0.00  0.00    -0.233 N 
ATOM      3  C   UNL     1      34.088 -15.721 -23.320  0.00  0.00    +0.046 C 
ATOM      4  C   UNL     1      34.044 -16.164 -24.593  0.00  0.00    -0.016 C 
ATOM      5  C   UNL     1      34.581 -16.634 -22.215  0.00  0.00    +0.256 C 
ATOM      6  C   UNL     1      34.851 -18.343 -23.917  0.00  0.00    +0.072 C 
ATOM      7  C   UNL     1      34.454 -17.517 -24.888  0.00  0.00    +0.012 C 
ATOM      8  C   UNL     1      33.587 -15.377 -25.793  0.00  0.00    +0.031 C 
ENDROOT
BRANCH   3  12
ATOM      9  N   UNL     1      32.549 -10.460 -21.976  0.00  0.00    -0.342 NA
ATOM     10  N   UNL     1      31.212 -11.284 -20.149  0.00  0.00    -0.170 NA
ATOM     11  N   UNL     1      31.346  -8.988 -20.600  0.00  0.00    -0.293 N 
ATOM     12  C   UNL     1      33.681 -14.349 -22.964  0.00  0.00    -0.017 C 
ATOM     13  C   UNL     1      32.827 -14.128 -21.888  0.00  0.00    +0.056 C 
ATOM     14  C   UNL     1      34.150 -13.267 -23.701  0.00  0.00    -0.022 C 
ATOM     15  C   UNL     1      32.444 -12.818 -21.552  0.00  0.00    +0.029 C 
ATOM     16  C   UNL     1      32.910 -11.717 -22.288  0.00  0.00    +0.124 C 
ATOM     17  C   UNL     1      33.764 -11.967 -23.360  0.00  0.00    +0.085 C 
ATOM     18  C   UNL     1      31.593 -12.529 -20.488  0.00  0.00    +0.110 C 
ATOM     19  C   UNL     1      31.720 -10.312 -20.923  0.00  0.00    +0.141 C 
ATOM     20  H   UNL     1      31.690  -8.237 -21.134  0.00  0.00    +0.155 HD
ATOM     21  H   UNL     1      30.744  -8.819 -19.840  0.00  0.00    +0.155 HD
ENDBRANCH   3  12
BRANCH   2  22
ATOM     22  C   UNL     1      35.331 -18.909 -21.566  0.00  0.00    +0.058 C 
ATOM     23  C   UNL     1      34.392 -19.732 -20.948  0.00  0.00    +0.019 C 
ATOM     24  C   UNL     1      36.676 -18.993 -21.207  0.00  0.00    +0.015 C 
ATOM     25  C   UNL     1      34.796 -20.642 -19.972  0.00  0.00    +0.073 C 
ATOM     26  C   UNL     1      37.081 -19.903 -20.231  0.00  0.00    +0.001 C 
ATOM     27  C   UNL     1      36.141 -20.727 -19.612  0.00  0.00    +0.004 C 
BRANCH  25  31
ATOM     28  F   UNL     1      32.624 -20.885 -18.998  0.00  0.00    -0.166 F 
ATOM     29  F   UNL     1      33.419 -22.596 -20.068  0.00  0.00    -0.166 F 
ATOM     30  F   UNL     1      34.247 -22.047 -18.134  0.00  0.00    -0.166 F 
ATOM     31  C   UNL     1      33.792 -21.523 -19.309  0.00  0.00    +0.419 C 
ENDBRANCH  25  31
ENDBRANCH   2  22
TORSDOF 3
ENDMDL
MODEL 4
REMARK VINA RESULT:     -10.9      2.644      5.048
REMARK  Name = 24812719
REMARK  3 active torsions:
REMARK  status: ('A' for Active; 'I' for Inactive)
REMARK    1  A    between atoms: N_2  and  C_22
REMARK    2  A    between atoms: C_3  and  C_12
REMARK    3  A    between atoms: C_25  and  C_31
REMARK                            x       y       z     vdW  Elec       q    Type
REMARK                         _______ _______ _______ _____ _____    ______ ____
ROOT
ATOM      1  O   UNL     1      33.626 -12.261 -23.845  0.00  0.00    -0.269 OA
ATOM      2  N   UNL     1      33.047 -13.894 -22.251  0.00  0.00    -0.233 N 
ATOM      3  C   UNL     1      32.514 -11.475 -21.923  0.00  0.00    +0.046 C 
ATOM      4  C   UNL     1      31.860 -11.781 -20.784  0.00  0.00    -0.016 C 
ATOM      5  C   UNL     1      33.132 -12.576 -22.761  0.00  0.00    +0.256 C 
ATOM      6  C   UNL     1      32.345 -14.134 -21.075  0.00  0.00    +0.072 C 
ATOM      7  C   UNL     1      31.770 -13.160 -20.365  0.00  0.00    +0.012 C 
ATOM      8  C   UNL     1      31.193 -10.804 -19.853  0.00  0.00    +0.031 C 
ENDROOT
BRANCH   3  12
ATOM      9  N   UNL     1      33.006  -6.155 -23.740  0.00  0.00    -0.342 NA
ATOM     10  N   UNL     1      30.744  -5.680 -23.062  0.00  0.00    -0.170 NA
ATOM     11  N   UNL     1      32.073  -4.025 -24.054  0.00  0.00    -0.293 N 
ATOM     12  C   UNL     1      32.636 -10.084 -22.396  0.00  0.00    -0.017 C 
ATOM     13  C   UNL     1      31.563  -9.206 -22.275  0.00  0.00    +0.056 C 
ATOM     14  C   UNL     1      33.824  -9.640 -22.966  0.00  0.00    -0.022 C 
ATOM     15  C   UNL     1      31.685  -7.881 -22.727  0.00  0.00    +0.029 C 
ATOM     16  C   UNL     1      32.880  -7.421 -23.304  0.00  0.00    +0.124 C 
ATOM     17  C   UNL     1      33.937  -8.321 -23.413  0.00  0.00    +0.085 C 
ATOM     18  C   UNL     1      30.650  -6.954 -22.635  0.00  0.00    +0.110 C 
ATOM     19  C   UNL     1      31.932  -5.354 -23.595  0.00  0.00    +0.141 C 
ATOM     20  H   UNL     1      32.923  -3.731 -24.454  0.00  0.00    +0.155 HD
ATOM     21  H   UNL     1      31.322  -3.395 -23.973  0.00  0.00    +0.155 HD
ENDBRANCH   3  12
BRANCH   2  22
ATOM     22  C   UNL     1      33.668 -14.991 -22.970  0.00  0.00    +0.058 C 
ATOM     23  C   UNL     1      34.289 -16.023 -22.268  0.00  0.00    +0.019 C 
ATOM     24  C   UNL     1      33.647 -15.010 -24.364  0.00  0.00    +0.015 C 
ATOM     25  C   UNL     1      34.886 -17.076 -22.959  0.00  0.00    +0.073 C 
ATOM     26  C   UNL     1      34.244 -16.064 -25.056  0.00  0.00    +0.001 C 
ATOM     27  C   UNL     1      34.865 -17.096 -24.354  0.00  0.00    +0.004 C 
BRANCH  25  31
ATOM     28  F   UNL     1      36.703 -18.625 -22.794  0.00  0.00    -0.166 F 
ATOM     29  F   UNL     1      35.909 -17.837 -20.935  0.00  0.00    -0.166 F 
ATOM     30  F   UNL     1      34.756 -19.281 -22.080  0.00  0.00    -0.166 F 
ATOM     31  C   UNL     1      35.552 -18.180 -22.208  0.00  0.00    +0.419 C 
ENDBRANCH  25  31
ENDBRANCH   2  22
TORSDOF 3
ENDMDL
MODEL 5
REMARK VINA RESULT:     -10.8      4.292      6.418
REMARK  Name = 24812719
REMARK  3 active torsions:
REMARK  status: ('A' for Active; 'I' for Inactive)
REMARK    1  A    between atoms: N_2  and  C_22
REMARK    2  A    between atoms: C_3  and  C_12
REMARK    3  A    between atoms: C_25  and  C_31
REMARK                            x       y       z     vdW  Elec       q    Type
REMARK                         _______ _______ _______ _____ _____    ______ ____
ROOT
ATOM      1  O   UNL     1      33.113 -11.387 -22.797  0.00  0.00    -0.269 OA
ATOM      2  N   UNL     1      32.748 -13.334 -21.523  0.00  0.00    -0.233 N 
ATOM      3  C   UNL     1      32.078 -11.070 -20.704  0.00  0.00    +0.046 C 
ATOM      4  C   UNL     1      31.521 -11.636 -19.615  0.00  0.00    -0.016 C 
ATOM      5  C   UNL     1      32.712 -11.940 -21.771  0.00  0.00    +0.256 C 
ATOM      6  C   UNL     1      32.141 -13.846 -20.381  0.00  0.00    +0.072 C 
ATOM      7  C   UNL     1      31.549 -13.073 -19.468  0.00  0.00    +0.012 C 
ATOM      8  C   UNL     1      30.851 -10.909 -18.479  0.00  0.00    +0.031 C 
ENDROOT
BRANCH   3  12
ATOM      9  N   UNL     1      32.082  -5.476 -21.444  0.00  0.00    -0.342 NA
ATOM     10  N   UNL     1      30.871  -5.716 -23.513  0.00  0.00    -0.170 NA
ATOM     11  N   UNL     1      31.488  -3.599 -22.721  0.00  0.00    -0.293 N 
ATOM     12  C   UNL     1      32.076  -9.609 -20.904  0.00  0.00    -0.017 C 
ATOM     13  C   UNL     1      31.470  -9.056 -22.028  0.00  0.00    +0.056 C 
ATOM     14  C   UNL     1      32.679  -8.774 -19.969  0.00  0.00    -0.022 C 
ATOM     15  C   UNL     1      31.470  -7.663 -22.213  0.00  0.00    +0.029 C 
ATOM     16  C   UNL     1      32.076  -6.810 -21.276  0.00  0.00    +0.124 C 
ATOM     17  C   UNL     1      32.675  -7.390 -20.161  0.00  0.00    +0.085 C 
ATOM     18  C   UNL     1      30.882  -7.047 -23.315  0.00  0.00    +0.110 C 
ATOM     19  C   UNL     1      31.479  -5.002 -22.553  0.00  0.00    +0.141 C 
ATOM     20  H   UNL     1      31.920  -3.026 -22.047  0.00  0.00    +0.155 HD
ATOM     21  H   UNL     1      31.062  -3.196 -23.511  0.00  0.00    +0.155 HD
ENDBRANCH   3  12
BRANCH   2  22
ATOM     22  C   UNL     1      33.393 -14.222 -22.471  0.00  0.00    +0.058 C 
ATOM     23  C   UNL     1      32.991 -14.227 -23.806  0.00  0.00    +0.019 C 
ATOM     24  C   UNL     1      34.414 -15.072 -22.047  0.00  0.00    +0.015 C 
ATOM     25  C   UNL     1      33.610 -15.081 -24.718  0.00  0.00    +0.073 C 
ATOM     26  C   UNL     1      35.033 -15.927 -22.959  0.00  0.00    +0.001 C 
ATOM     27  C   UNL     1      34.631 -15.933 -24.294  0.00  0.00    +0.004 C 
BRANCH  25  31
ATOM     28  F   UNL     1      32.218 -14.163 -26.433  0.00  0.00    -0.166 F 
ATOM     29  F   UNL     1      34.194 -14.831 -27.024  0.00  0.00    -0.166 F 
ATOM     30  F   UNL     1      32.659 -16.290 -26.531  0.00  0.00    -0.166 F 
ATOM     31  C   UNL     1      33.180 -15.088 -26.146  0.00  0.00    +0.419 C 
ENDBRANCH  25  31
ENDBRANCH   2  22
TORSDOF 3
ENDMDL
MODEL 6
REMARK VINA RESULT:     -10.7      4.559      9.041
REMARK  Name = 24812719
REMARK  3 active torsions:
REMARK  status: ('A' for Active; 'I' for Inactive)
REMARK    1  A    between atoms: N_2  and  C_22
REMARK    2  A    between atoms: C_3  and  C_12
REMARK    3  A    between atoms: C_25  and  C_31
REMARK                            x       y       z     vdW  Elec       q    Type
REMARK                         _______ _______ _______ _____ _____    ______ ____
ROOT
ATOM      1  O   UNL     1      34.183 -16.763 -20.798  0.00  0.00    -0.269 OA
ATOM      2  N   UNL     1      34.103 -16.071 -23.048  0.00  0.00    -0.233 N 
ATOM      3  C   UNL     1      34.822 -18.373 -22.395  0.00  0.00    +0.046 C 
ATOM      4  C   UNL     1      34.915 -18.707 -23.698  0.00  0.00    -0.016 C 
ATOM      5  C   UNL     1      34.354 -16.987 -21.998  0.00  0.00    +0.256 C 
ATOM      6  C   UNL     1      34.208 -16.492 -24.369  0.00  0.00    +0.072 C 
ATOM      7  C   UNL     1      34.582 -17.728 -24.707  0.00  0.00    +0.012 C 
ATOM      8  C   UNL     1      35.355 -20.039 -24.245  0.00  0.00    +0.031 C 
ENDROOT
BRANCH   3  12
ATOM      9  N   UNL     1      36.100 -22.043 -18.303  0.00  0.00    -0.342 NA
ATOM     10  N   UNL     1      33.786 -22.685 -18.110  0.00  0.00    -0.170 NA
ATOM     11  N   UNL     1      35.421 -23.667 -16.751  0.00  0.00    -0.293 N 
ATOM     12  C   UNL     1      35.149 -19.334 -21.324  0.00  0.00    -0.017 C 
ATOM     13  C   UNL     1      34.144 -20.096 -20.736  0.00  0.00    +0.056 C 
ATOM     14  C   UNL     1      36.464 -19.484 -20.897  0.00  0.00    -0.022 C 
ATOM     15  C   UNL     1      34.462 -21.011 -19.718  0.00  0.00    +0.029 C 
ATOM     16  C   UNL     1      35.786 -21.171 -19.277  0.00  0.00    +0.124 C 
ATOM     17  C   UNL     1      36.771 -20.396 -19.883  0.00  0.00    +0.085 C 
ATOM     18  C   UNL     1      33.505 -21.803 -19.088  0.00  0.00    +0.110 C 
ATOM     19  C   UNL     1      35.083 -22.752 -17.773  0.00  0.00    +0.141 C 
ATOM     20  H   UNL     1      36.358 -23.758 -16.463  0.00  0.00    +0.155 HD
ATOM     21  H   UNL     1      34.720 -24.213 -16.328  0.00  0.00    +0.155 HD
ENDBRANCH   3  12
BRANCH   2  22
ATOM     22  C   UNL     1      33.710 -14.708 -22.742  0.00  0.00    +0.058 C 
ATOM     23  C   UNL     1      34.129 -13.661 -23.561  0.00  0.00    +0.019 C 
ATOM     24  C   UNL     1      32.916 -14.446 -21.625  0.00  0.00    +0.015 C 
ATOM     25  C   UNL     1      33.752 -12.352 -23.266  0.00  0.00    +0.073 C 
ATOM     26  C   UNL     1      32.540 -13.136 -21.330  0.00  0.00    +0.001 C 
ATOM     27  C   UNL     1      32.958 -12.088 -22.150  0.00  0.00    +0.004 C 
BRANCH  25  31
ATOM     28  F   UNL     1      35.281 -10.553 -23.654  0.00  0.00    -0.166 F 
ATOM     29  F   UNL     1      34.567 -11.629 -25.396  0.00  0.00    -0.166 F 
ATOM     30  F   UNL     1      33.230 -10.289 -24.327  0.00  0.00    -0.166 F 
ATOM     31  C   UNL     1      34.201 -11.230 -24.142  0.00  0.00    +0.419 C 
ENDBRANCH  25  31
ENDBRANCH   2  22
TORSDOF 3
ENDMDL
MODEL 7
REMARK VINA RESULT:     -10.4      4.727      8.969
REMARK  Name = 24812719
REMARK  3 active torsions:
REMARK  status: ('A' for Active; 'I' for Inactive)
REMARK    1  A    between atoms: N_2  and  C_22
REMARK    2  A    between atoms: C_3  and  C_12
REMARK    3  A    between atoms: C_25  and  C_31
REMARK                            x       y       z     vdW  Elec       q    Type
REMARK                         _______ _______ _______ _____ _____    ______ ____
ROOT
ATOM      1  O   UNL     1      33.525 -15.351 -20.553  0.00  0.00    -0.269 OA
ATOM      2  N   UNL     1      33.140 -14.017 -22.456  0.00  0.00    -0.233 N 
ATOM      3  C   UNL     1      34.271 -16.241 -22.603  0.00  0.00    +0.046 C 
ATOM      4  C   UNL     1      34.302 -16.129 -23.946  0.00  0.00    -0.016 C 
ATOM      5  C   UNL     1      33.625 -15.155 -21.766  0.00  0.00    +0.256 C 
ATOM      6  C   UNL     1      33.197 -13.979 -23.845  0.00  0.00    +0.072 C 
ATOM      7  C   UNL     1      33.732 -14.961 -24.575  0.00  0.00    +0.012 C 
ATOM      8  C   UNL     1      34.900 -17.123 -24.907  0.00  0.00    +0.031 C 
ENDROOT
BRANCH   3  12
ATOM      9  N   UNL     1      36.468 -20.716 -19.959  0.00  0.00    -0.342 NA
ATOM     10  N   UNL     1      34.264 -21.600 -19.554  0.00  0.00    -0.170 NA
ATOM     11  N   UNL     1      36.171 -22.746 -18.819  0.00  0.00    -0.293 N 
ATOM     12  C   UNL     1      34.838 -17.413 -21.910  0.00  0.00    -0.017 C 
ATOM     13  C   UNL     1      34.000 -18.393 -21.390  0.00  0.00    +0.056 C 
ATOM     14  C   UNL     1      36.216 -17.545 -21.773  0.00  0.00    -0.022 C 
ATOM     15  C   UNL     1      34.546 -19.508 -20.732  0.00  0.00    +0.029 C 
ATOM     16  C   UNL     1      35.935 -19.653 -20.587  0.00  0.00    +0.124 C 
ATOM     17  C   UNL     1      36.751 -18.657 -21.117  0.00  0.00    +0.085 C 
ATOM     18  C   UNL     1      33.763 -20.524 -20.189  0.00  0.00    +0.110 C 
ATOM     19  C   UNL     1      35.603 -21.631 -19.477  0.00  0.00    +0.141 C 
ATOM     20  H   UNL     1      37.148 -22.821 -18.734  0.00  0.00    +0.155 HD
ATOM     21  H   UNL     1      35.588 -23.447 -18.448  0.00  0.00    +0.155 HD
ENDBRANCH   3  12
BRANCH   2  22
ATOM     22  C   UNL     1      32.564 -12.912 -21.715  0.00  0.00    +0.058 C 
ATOM     23  C   UNL     1      32.547 -11.633 -22.270  0.00  0.00    +0.019 C 
ATOM     24  C   UNL     1      32.029 -13.128 -20.445  0.00  0.00    +0.015 C 
ATOM     25  C   UNL     1      31.994 -10.570 -21.557  0.00  0.00    +0.073 C 
ATOM     26  C   UNL     1      31.475 -12.065 -19.732  0.00  0.00    +0.001 C 
ATOM     27  C   UNL     1      31.458 -10.785 -20.287  0.00  0.00    +0.004 C 
BRANCH  25  31
ATOM     28  F   UNL     1      30.829  -8.915 -22.833  0.00  0.00    -0.166 F 
ATOM     29  F   UNL     1      32.099  -8.204 -21.226  0.00  0.00    -0.166 F 
ATOM     30  F   UNL     1      32.992  -9.002 -23.040  0.00  0.00    -0.166 F 
ATOM     31  C   UNL     1      31.976  -9.202 -22.151  0.00  0.00    +0.419 C 
ENDBRANCH  25  31
ENDBRANCH   2  22
TORSDOF 3
ENDMDL
MODEL 8
REMARK VINA RESULT:      -9.6      6.116     10.578
REMARK  Name = 24812719
REMARK  3 active torsions:
REMARK  status: ('A' for Active; 'I' for Inactive)
REMARK    1  A    between atoms: N_2  and  C_22
REMARK    2  A    between atoms: C_3  and  C_12
REMARK    3  A    between atoms: C_25  and  C_31
REMARK                            x       y       z     vdW  Elec       q    Type
REMARK                         _______ _______ _______ _____ _____    ______ ____
ROOT
ATOM      1  O   UNL     1      33.723 -10.543 -23.490  0.00  0.00    -0.269 OA
ATOM      2  N   UNL     1      32.390  -9.277 -22.019  0.00  0.00    -0.233 N 
ATOM      3  C   UNL     1      32.634 -11.753 -21.787  0.00  0.00    +0.046 C 
ATOM      4  C   UNL     1      31.895 -11.714 -20.660  0.00  0.00    -0.016 C 
ATOM      5  C   UNL     1      32.958 -10.471 -22.527  0.00  0.00    +0.256 C 
ATOM      6  C   UNL     1      31.647  -9.314 -20.843  0.00  0.00    +0.072 C 
ATOM      7  C   UNL     1      31.403 -10.445 -20.177  0.00  0.00    +0.012 C 
ATOM      8  C   UNL     1      31.499 -12.896 -19.816  0.00  0.00    +0.031 C 
ENDROOT
BRANCH   3  12
ATOM      9  N   UNL     1      34.644 -16.600 -23.865  0.00  0.00    -0.342 NA
ATOM     10  N   UNL     1      35.244 -17.338 -21.651  0.00  0.00    -0.170 NA
ATOM     11  N   UNL     1      35.653 -18.690 -23.520  0.00  0.00    -0.293 N 
ATOM     12  C   UNL     1      33.162 -13.022 -22.324  0.00  0.00    -0.017 C 
ATOM     13  C   UNL     1      33.704 -13.974 -21.466  0.00  0.00    +0.056 C 
ATOM     14  C   UNL     1      33.120 -13.274 -23.691  0.00  0.00    -0.022 C 
ATOM     15  C   UNL     1      34.203 -15.181 -21.982  0.00  0.00    +0.029 C 
ATOM     16  C   UNL     1      34.167 -15.448 -23.361  0.00  0.00    +0.124 C 
ATOM     17  C   UNL     1      33.620 -14.478 -24.196  0.00  0.00    +0.085 C 
ATOM     18  C   UNL     1      34.758 -16.174 -21.179  0.00  0.00    +0.110 C 
ATOM     19  C   UNL     1      35.155 -17.482 -22.983  0.00  0.00    +0.141 C 
ATOM     20  H   UNL     1      35.613 -18.850 -24.491  0.00  0.00    +0.155 HD
ATOM     21  H   UNL     1      36.038 -19.372 -22.924  0.00  0.00    +0.155 HD
ENDBRANCH   3  12
BRANCH   2  22
ATOM     22  C   UNL     1      32.607  -8.020 -22.710  0.00  0.00    +0.058 C 
ATOM     23  C   UNL     1      31.746  -6.946 -22.491  0.00  0.00    +0.019 C 
ATOM     24  C   UNL     1      33.676  -7.888 -23.595  0.00  0.00    +0.015 C 
ATOM     25  C   UNL     1      31.954  -5.739 -23.156  0.00  0.00    +0.073 C 
ATOM     26  C   UNL     1      33.884  -6.680 -24.261  0.00  0.00    +0.001 C 
ATOM     27  C   UNL     1      33.022  -5.605 -24.042  0.00  0.00    +0.004 C 
BRANCH  25  31
ATOM     28  F   UNL     1      30.120  -4.811 -21.930  0.00  0.00    -0.166 F 
ATOM     29  F   UNL     1      31.674  -3.437 -22.566  0.00  0.00    -0.166 F 
ATOM     30  F   UNL     1      30.299  -4.271 -24.029  0.00  0.00    -0.166 F 
ATOM     31  C   UNL     1      31.032  -4.589 -22.923  0.00  0.00    +0.419 C 
ENDBRANCH  25  31
ENDBRANCH   2  22
TORSDOF 3
ENDMDL
MODEL 9
REMARK VINA RESULT:      -9.6      5.426     10.758
REMARK  Name = 24812719
REMARK  3 active torsions:
REMARK  status: ('A' for Active; 'I' for Inactive)
REMARK    1  A    between atoms: N_2  and  C_22
REMARK    2  A    between atoms: C_3  and  C_12
REMARK    3  A    between atoms: C_25  and  C_31
REMARK                            x       y       z     vdW  Elec       q    Type
REMARK                         _______ _______ _______ _____ _____    ______ ____
ROOT
ATOM      1  O   UNL     1      36.408 -20.609 -19.189  0.00  0.00    -0.269 OA
ATOM      2  N   UNL     1      34.297 -20.539 -20.230  0.00  0.00    -0.233 N 
ATOM      3  C   UNL     1      34.757 -22.014 -18.267  0.00  0.00    +0.046 C 
ATOM      4  C   UNL     1      33.461 -22.387 -18.252  0.00  0.00    -0.016 C 
ATOM      5  C   UNL     1      35.243 -20.998 -19.282  0.00  0.00    +0.256 C 
ATOM      6  C   UNL     1      32.975 -20.960 -20.145  0.00  0.00    +0.072 C 
ATOM      7  C   UNL     1      32.550 -21.824 -19.220  0.00  0.00    +0.012 C 
ATOM      8  C   UNL     1      32.832 -23.375 -17.306  0.00  0.00    +0.031 C 
ENDROOT
BRANCH   3  12
ATOM      9  N   UNL     1      38.502 -24.078 -14.584  0.00  0.00    -0.342 NA
ATOM     10  N   UNL     1      36.811 -25.489 -13.606  0.00  0.00    -0.170 NA
ATOM     11  N   UNL     1      39.008 -25.507 -12.793  0.00  0.00    -0.293 N 
ATOM     12  C   UNL     1      35.731 -22.557 -17.301  0.00  0.00    -0.017 C 
ATOM     13  C   UNL     1      35.335 -23.511 -16.369  0.00  0.00    +0.056 C 
ATOM     14  C   UNL     1      37.050 -22.119 -17.317  0.00  0.00    -0.022 C 
ATOM     15  C   UNL     1      36.267 -24.026 -15.452  0.00  0.00    +0.029 C 
ATOM     16  C   UNL     1      37.603 -23.592 -15.458  0.00  0.00    +0.124 C 
ATOM     17  C   UNL     1      37.971 -22.637 -16.401  0.00  0.00    +0.085 C 
ATOM     18  C   UNL     1      35.936 -24.982 -14.495  0.00  0.00    +0.110 C 
ATOM     19  C   UNL     1      38.057 -25.000 -13.707  0.00  0.00    +0.141 C 
ATOM     20  H   UNL     1      39.937 -25.184 -12.821  0.00  0.00    +0.155 HD
ATOM     21  H   UNL     1      38.741 -26.183 -12.129  0.00  0.00    +0.155 HD
ENDBRANCH   3  12
BRANCH   2  22
ATOM     22  C   UNL     1      34.705 -19.611 -21.269  0.00  0.00    +0.058 C 
ATOM     23  C   UNL     1      34.473 -18.246 -21.115  0.00  0.00    +0.019 C 
ATOM     24  C   UNL     1      35.328 -20.088 -22.422  0.00  0.00    +0.015 C 
ATOM     25  C   UNL     1      34.864 -17.355 -22.114  0.00  0.00    +0.073 C 
ATOM     26  C   UNL     1      35.720 -19.196 -23.422  0.00  0.00    +0.001 C 
ATOM     27  C   UNL     1      35.487 -17.830 -23.268  0.00  0.00    +0.004 C 
BRANCH  25  31
ATOM     28  F   UNL     1      33.294 -15.551 -22.023  0.00  0.00    -0.166 F 
ATOM     29  F   UNL     1      35.046 -15.395 -20.753  0.00  0.00    -0.166 F 
ATOM     30  F   UNL     1      35.240 -15.144 -22.904  0.00  0.00    -0.166 F 
ATOM     31  C   UNL     1      34.615 -15.893 -21.950  0.00  0.00    +0.419 C 
ENDBRANCH  25  31
ENDBRANCH   2  22
TORSDOF 3
ENDMDL
