MODEL 1
REMARK VINA RESULT:     -11.8      0.000      0.000
REMARK  Name = 5326929
REMARK  3 active torsions:
REMARK  status: ('A' for Active; 'I' for Inactive)
REMARK    1  A    between atoms: C_7  and  C_21
REMARK    2  A    between atoms: C_21  and  C_22
REMARK    3  A    between atoms: C_22  and  C_23
REMARK                            x       y       z     vdW  Elec       q    Type
REMARK                         _______ _______ _______ _____ _____    ______ ____
ROOT
ATOM      1  O   UNL     1      34.583 -25.276 -11.676  0.00  0.00    -0.209 OA
ATOM      2  N   UNL     1      34.662 -23.273 -15.143  0.00  0.00    -0.275 N 
ATOM      3  N   UNL     1      29.809 -25.520 -13.857  0.00  0.00    -0.315 N 
ATOM      4  N   UNL     1      29.884 -24.401 -15.774  0.00  0.00    -0.316 N 
ATOM      5  N   UNL     1      35.780 -24.041 -13.187  0.00  0.00    -0.302 NA
ATOM      6  N   UNL     1      36.875 -22.767 -14.819  0.00  0.00    -0.320 N 
ATOM      7  C   UNL     1      32.313 -23.753 -15.586  0.00  0.00    +0.007 C 
ATOM      8  C   UNL     1      33.451 -23.863 -14.771  0.00  0.00    +0.060 C 
ATOM      9  C   UNL     1      31.118 -24.365 -15.166  0.00  0.00    +0.056 C 
ATOM     10  C   UNL     1      31.096 -25.059 -13.961  0.00  0.00    +0.060 C 
ATOM     11  C   UNL     1      33.389 -24.573 -13.561  0.00  0.00    +0.109 C 
ATOM     12  C   UNL     1      32.207 -25.191 -13.126  0.00  0.00    +0.029 C 
ATOM     13  C   UNL     1      34.628 -24.659 -12.735  0.00  0.00    +0.208 C 
ATOM     14  C   UNL     1      29.125 -25.101 -14.964  0.00  0.00    +0.182 C 
ATOM     15  C   UNL     1      35.761 -23.397 -14.325  0.00  0.00    +0.248 C 
ATOM     16  H   UNL     1      34.729 -22.771 -15.987  0.00  0.00    +0.156 HD
ATOM     17  H   UNL     1      29.443 -26.057 -13.118  0.00  0.00    +0.148 HD
ATOM     18  H   UNL     1      29.628 -23.991 -16.632  0.00  0.00    +0.148 HD
ATOM     19  H   UNL     1      36.830 -22.290 -15.680  0.00  0.00    +0.146 HD
ATOM     20  H   UNL     1      37.720 -22.791 -14.315  0.00  0.00    +0.146 HD
ENDROOT
BRANCH   7  21
ATOM     21  C   UNL     1      32.371 -22.998 -16.876  0.00  0.00    +0.034 C 
BRANCH  21  22
ATOM     22  C   UNL     1      33.478 -23.481 -17.831  0.00  0.00    +0.031 C 
BRANCH  22  23
ATOM     23  C   UNL     1      33.965 -22.406 -18.771  0.00  0.00    -0.022 C 
ATOM     24  C   UNL     1      35.326 -22.260 -18.992  0.00  0.00    -0.005 C 
ATOM     25  C   UNL     1      33.044 -21.583 -19.399  0.00  0.00    -0.005 C 
ATOM     26  C   UNL     1      34.859 -20.430 -20.498  0.00  0.00    -0.022 C 
ATOM     27  C   UNL     1      35.776 -21.266 -19.861  0.00  0.00    -0.005 C 
ATOM     28  C   UNL     1      33.493 -20.589 -20.268  0.00  0.00    -0.005 C 
ATOM     29  C   UNL     1      35.340 -19.368 -21.428  0.00  0.00    +0.031 C 
ENDBRANCH  22  23
ENDBRANCH  21  22
ENDBRANCH   7  21
TORSDOF 3
ENDMDL
MODEL 2
REMARK VINA RESULT:     -11.6      1.490      3.868
REMARK  Name = 5326929
REMARK  3 active torsions:
REMARK  status: ('A' for Active; 'I' for Inactive)
REMARK    1  A    between atoms: C_7  and  C_21
REMARK    2  A    between atoms: C_21  and  C_22
REMARK    3  A    between atoms: C_22  and  C_23
REMARK                            x       y       z     vdW  Elec       q    Type
REMARK                         _______ _______ _______ _____ _____    ______ ____
ROOT
ATOM      1  O   UNL     1      30.824 -24.078 -12.385  0.00  0.00    -0.209 OA
ATOM      2  N   UNL     1      31.293 -23.490 -16.319  0.00  0.00    -0.275 N 
ATOM      3  N   UNL     1      35.906 -24.685 -13.571  0.00  0.00    -0.315 N 
ATOM      4  N   UNL     1      36.134 -24.355 -15.756  0.00  0.00    -0.316 N 
ATOM      5  N   UNL     1      29.875 -23.586 -14.410  0.00  0.00    -0.302 NA
ATOM      6  N   UNL     1      29.045 -23.095 -16.546  0.00  0.00    -0.320 N 
ATOM      7  C   UNL     1      33.695 -23.892 -16.191  0.00  0.00    +0.007 C 
ATOM      8  C   UNL     1      32.437 -23.796 -15.575  0.00  0.00    +0.060 C 
ATOM      9  C   UNL     1      34.814 -24.204 -15.398  0.00  0.00    +0.056 C 
ATOM     10  C   UNL     1      34.645 -24.407 -14.033  0.00  0.00    +0.060 C 
ATOM     11  C   UNL     1      32.306 -24.008 -14.194  0.00  0.00    +0.109 C 
ATOM     12  C   UNL     1      33.411 -24.319 -13.386  0.00  0.00    +0.029 C 
ATOM     13  C   UNL     1      30.947 -23.893 -13.592  0.00  0.00    +0.208 C 
ATOM     14  C   UNL     1      36.760 -24.641 -14.638  0.00  0.00    +0.182 C 
ATOM     15  C   UNL     1      30.073 -23.402 -15.690  0.00  0.00    +0.248 C 
ATOM     16  H   UNL     1      31.361 -23.337 -17.289  0.00  0.00    +0.156 HD
ATOM     17  H   UNL     1      36.153 -24.880 -12.639  0.00  0.00    +0.148 HD
ATOM     18  H   UNL     1      36.524 -24.265 -16.656  0.00  0.00    +0.148 HD
ATOM     19  H   UNL     1      29.227 -22.962 -17.505  0.00  0.00    +0.146 HD
ATOM     20  H   UNL     1      28.128 -23.007 -16.202  0.00  0.00    +0.146 HD
ENDROOT
BRANCH   7  21
ATOM     21  C   UNL     1      33.841 -23.669 -17.663  0.00  0.00    +0.034 C 
BRANCH  21  22
ATOM     22  C   UNL     1      33.094 -22.425 -18.181  0.00  0.00    +0.031 C 
BRANCH  22  23
ATOM     23  C   UNL     1      33.907 -21.603 -19.150  0.00  0.00    -0.022 C 
ATOM     24  C   UNL     1      35.290 -21.703 -19.135  0.00  0.00    -0.005 C 
ATOM     25  C   UNL     1      33.258 -20.762 -20.040  0.00  0.00    -0.005 C 
ATOM     26  C   UNL     1      35.400 -20.091 -20.931  0.00  0.00    -0.022 C 
ATOM     27  C   UNL     1      36.041 -20.942 -20.031  0.00  0.00    -0.005 C 
ATOM     28  C   UNL     1      34.008 -20.001 -20.936  0.00  0.00    -0.005 C 
ATOM     29  C   UNL     1      36.203 -19.279 -21.890  0.00  0.00    +0.031 C 
ENDBRANCH  22  23
ENDBRANCH  21  22
ENDBRANCH   7  21
TORSDOF 3
ENDMDL
MODEL 3
REMARK VINA RESULT:     -11.6      1.865      2.737
REMARK  Name = 5326929
REMARK  3 active torsions:
REMARK  status: ('A' for Active; 'I' for Inactive)
REMARK    1  A    between atoms: C_7  and  C_21
REMARK    2  A    between atoms: C_21  and  C_22
REMARK    3  A    between atoms: C_22  and  C_23
REMARK                            x       y       z     vdW  Elec       q    Type
REMARK                         _______ _______ _______ _____ _____    ______ ____
ROOT
ATOM      1  O   UNL     1      36.819 -26.526 -11.638  0.00  0.00    -0.209 OA
ATOM      2  N   UNL     1      37.522 -24.575 -15.065  0.00  0.00    -0.275 N 
ATOM      3  N   UNL     1      32.461 -23.930 -13.009  0.00  0.00    -0.315 N 
ATOM      4  N   UNL     1      32.882 -22.859 -14.909  0.00  0.00    -0.316 N 
ATOM      5  N   UNL     1      38.282 -26.006 -13.321  0.00  0.00    -0.302 NA
ATOM      6  N   UNL     1      39.667 -25.387 -15.106  0.00  0.00    -0.320 N 
ATOM      7  C   UNL     1      35.264 -23.657 -15.118  0.00  0.00    +0.007 C 
ATOM      8  C   UNL     1      36.249 -24.444 -14.501  0.00  0.00    +0.060 C 
ATOM      9  C   UNL     1      34.000 -23.557 -14.510  0.00  0.00    +0.056 C 
ATOM     10  C   UNL     1      33.761 -24.236 -13.321  0.00  0.00    +0.060 C 
ATOM     11  C   UNL     1      35.970 -25.114 -13.300  0.00  0.00    +0.109 C 
ATOM     12  C   UNL     1      34.715 -25.027 -12.679  0.00  0.00    +0.029 C 
ATOM     13  C   UNL     1      37.054 -25.936 -12.688  0.00  0.00    +0.208 C 
ATOM     14  C   UNL     1      31.980 -23.105 -13.988  0.00  0.00    +0.182 C 
ATOM     15  C   UNL     1      38.469 -25.353 -14.438  0.00  0.00    +0.248 C 
ATOM     16  H   UNL     1      37.740 -24.115 -15.907  0.00  0.00    +0.156 HD
ATOM     17  H   UNL     1      31.963 -24.247 -12.221  0.00  0.00    +0.148 HD
ATOM     18  H   UNL     1      32.782 -22.298 -15.712  0.00  0.00    +0.148 HD
ATOM     19  H   UNL     1      39.776 -24.884 -15.947  0.00  0.00    +0.146 HD
ATOM     20  H   UNL     1      40.416 -25.914 -14.747  0.00  0.00    +0.146 HD
ENDROOT
BRANCH   7  21
ATOM     21  C   UNL     1      35.555 -22.939 -16.398  0.00  0.00    +0.034 C 
BRANCH  21  22
ATOM     22  C   UNL     1      34.515 -23.192 -17.505  0.00  0.00    +0.031 C 
BRANCH  22  23
ATOM     23  C   UNL     1      34.594 -22.197 -18.637  0.00  0.00    -0.022 C 
ATOM     24  C   UNL     1      33.424 -21.671 -19.164  0.00  0.00    -0.005 C 
ATOM     25  C   UNL     1      35.834 -21.825 -19.129  0.00  0.00    -0.005 C 
ATOM     26  C   UNL     1      34.740 -20.369 -20.716  0.00  0.00    -0.022 C 
ATOM     27  C   UNL     1      33.498 -20.752 -20.210  0.00  0.00    -0.005 C 
ATOM     28  C   UNL     1      35.909 -20.905 -20.175  0.00  0.00    -0.005 C 
ATOM     29  C   UNL     1      34.819 -19.385 -21.833  0.00  0.00    +0.031 C 
ENDBRANCH  22  23
ENDBRANCH  21  22
ENDBRANCH   7  21
TORSDOF 3
ENDMDL
MODEL 4
REMARK VINA RESULT:     -10.8      1.486      4.148
REMARK  Name = 5326929
REMARK  3 active torsions:
REMARK  status: ('A' for Active; 'I' for Inactive)
REMARK    1  A    between atoms: C_7  and  C_21
REMARK    2  A    between atoms: C_21  and  C_22
REMARK    3  A    between atoms: C_22  and  C_23
REMARK                            x       y       z     vdW  Elec       q    Type
REMARK                         _______ _______ _______ _____ _____    ______ ____
ROOT
ATOM      1  O   UNL     1      32.012 -25.508 -12.982  0.00  0.00    -0.209 OA
ATOM      2  N   UNL     1      32.890 -23.225 -16.153  0.00  0.00    -0.275 N 
ATOM      3  N   UNL     1      37.237 -25.298 -13.494  0.00  0.00    -0.315 N 
ATOM      4  N   UNL     1      37.691 -24.028 -15.260  0.00  0.00    -0.316 N 
ATOM      5  N   UNL     1      31.269 -24.217 -14.721  0.00  0.00    -0.302 NA
ATOM      6  N   UNL     1      30.657 -22.874 -16.540  0.00  0.00    -0.320 N 
ATOM      7  C   UNL     1      35.288 -23.533 -15.833  0.00  0.00    +0.007 C 
ATOM      8  C   UNL     1      33.961 -23.776 -15.443  0.00  0.00    +0.060 C 
ATOM      9  C   UNL     1      36.329 -24.111 -15.085  0.00  0.00    +0.056 C 
ATOM     10  C   UNL     1      36.018 -24.903 -13.985  0.00  0.00    +0.060 C 
ATOM     11  C   UNL     1      33.687 -24.581 -14.326  0.00  0.00    +0.109 C 
ATOM     12  C   UNL     1      34.713 -25.165 -13.567  0.00  0.00    +0.029 C 
ATOM     13  C   UNL     1      32.260 -24.805 -13.956  0.00  0.00    +0.208 C 
ATOM     14  C   UNL     1      38.204 -24.749 -14.290  0.00  0.00    +0.182 C 
ATOM     15  C   UNL     1      31.600 -23.480 -15.748  0.00  0.00    +0.248 C 
ATOM     16  H   UNL     1      33.058 -22.657 -16.939  0.00  0.00    +0.156 HD
ATOM     17  H   UNL     1      37.388 -25.873 -12.710  0.00  0.00    +0.148 HD
ATOM     18  H   UNL     1      38.176 -23.533 -15.959  0.00  0.00    +0.148 HD
ATOM     19  H   UNL     1      30.938 -22.323 -17.307  0.00  0.00    +0.146 HD
ATOM     20  H   UNL     1      29.700 -22.988 -16.342  0.00  0.00    +0.146 HD
ENDROOT
BRANCH   7  21
ATOM     21  C   UNL     1      35.586 -22.676 -17.023  0.00  0.00    +0.034 C 
BRANCH  21  22
ATOM     22  C   UNL     1      34.682 -22.960 -18.236  0.00  0.00    +0.031 C 
BRANCH  22  23
ATOM     23  C   UNL     1      34.692 -21.850 -19.259  0.00  0.00    -0.022 C 
ATOM     24  C   UNL     1      33.492 -21.275 -19.650  0.00  0.00    -0.005 C 
ATOM     25  C   UNL     1      35.900 -21.424 -19.788  0.00  0.00    -0.005 C 
ATOM     26  C   UNL     1      34.711 -19.811 -21.137  0.00  0.00    -0.022 C 
ATOM     27  C   UNL     1      33.503 -20.249 -20.596  0.00  0.00    -0.005 C 
ATOM     28  C   UNL     1      35.910 -20.398 -20.733  0.00  0.00    -0.005 C 
ATOM     29  C   UNL     1      34.721 -18.714 -22.146  0.00  0.00    +0.031 C 
ENDBRANCH  22  23
ENDBRANCH  21  22
ENDBRANCH   7  21
TORSDOF 3
ENDMDL
MODEL 5
REMARK VINA RESULT:     -10.3      3.844      7.211
REMARK  Name = 5326929
REMARK  3 active torsions:
REMARK  status: ('A' for Active; 'I' for Inactive)
REMARK    1  A    between atoms: C_7  and  C_21
REMARK    2  A    between atoms: C_21  and  C_22
REMARK    3  A    between atoms: C_22  and  C_23
REMARK                            x       y       z     vdW  Elec       q    Type
REMARK                         _______ _______ _______ _____ _____    ______ ____
ROOT
ATOM      1  O   UNL     1      33.376 -19.789 -21.635  0.00  0.00    -0.209 OA
ATOM      2  N   UNL     1      36.857 -20.510 -19.789  0.00  0.00    -0.275 N 
ATOM      3  N   UNL     1      32.540 -23.273 -17.792  0.00  0.00    -0.315 N 
ATOM      4  N   UNL     1      34.486 -23.653 -16.789  0.00  0.00    -0.316 N 
ATOM      5  N   UNL     1      35.623 -19.373 -21.476  0.00  0.00    -0.302 NA
ATOM      6  N   UNL     1      37.926 -19.048 -21.196  0.00  0.00    -0.320 N 
ATOM      7  C   UNL     1      35.821 -22.084 -18.241  0.00  0.00    +0.007 C 
ATOM      8  C   UNL     1      35.729 -21.188 -19.318  0.00  0.00    +0.060 C 
ATOM      9  C   UNL     1      34.657 -22.742 -17.806  0.00  0.00    +0.056 C 
ATOM     10  C   UNL     1      33.451 -22.488 -18.451  0.00  0.00    +0.060 C 
ATOM     11  C   UNL     1      34.493 -20.958 -19.943  0.00  0.00    +0.109 C 
ATOM     12  C   UNL     1      33.320 -21.603 -19.523  0.00  0.00    +0.029 C 
ATOM     13  C   UNL     1      34.452 -19.996 -21.082  0.00  0.00    +0.208 C 
ATOM     14  C   UNL     1      33.207 -23.950 -16.808  0.00  0.00    +0.182 C 
ATOM     15  C   UNL     1      36.737 -19.637 -20.846  0.00  0.00    +0.248 C 
ATOM     16  H   UNL     1      37.733 -20.655 -19.365  0.00  0.00    +0.156 HD
ATOM     17  H   UNL     1      31.579 -23.338 -17.991  0.00  0.00    +0.148 HD
ATOM     18  H   UNL     1      35.174 -24.005 -16.179  0.00  0.00    +0.148 HD
ATOM     19  H   UNL     1      38.749 -19.268 -20.701  0.00  0.00    +0.146 HD
ATOM     20  H   UNL     1      37.956 -18.405 -21.940  0.00  0.00    +0.146 HD
ENDROOT
BRANCH   7  21
ATOM     21  C   UNL     1      37.135 -22.335 -17.571  0.00  0.00    +0.034 C 
BRANCH  21  22
ATOM     22  C   UNL     1      37.189 -21.857 -16.108  0.00  0.00    +0.031 C 
BRANCH  22  23
ATOM     23  C   UNL     1      37.384 -22.982 -15.121  0.00  0.00    -0.022 C 
ATOM     24  C   UNL     1      36.560 -23.061 -14.008  0.00  0.00    -0.005 C 
ATOM     25  C   UNL     1      38.383 -23.916 -15.343  0.00  0.00    -0.005 C 
ATOM     26  C   UNL     1      37.743 -25.048 -13.307  0.00  0.00    -0.022 C 
ATOM     27  C   UNL     1      36.741 -24.101 -13.096  0.00  0.00    -0.005 C 
ATOM     28  C   UNL     1      38.564 -24.956 -14.431  0.00  0.00    -0.005 C 
ATOM     29  C   UNL     1      37.936 -26.160 -12.333  0.00  0.00    +0.031 C 
ENDBRANCH  22  23
ENDBRANCH  21  22
ENDBRANCH   7  21
TORSDOF 3
ENDMDL
MODEL 6
REMARK VINA RESULT:     -10.2      2.933      6.014
REMARK  Name = 5326929
REMARK  3 active torsions:
REMARK  status: ('A' for Active; 'I' for Inactive)
REMARK    1  A    between atoms: C_7  and  C_21
REMARK    2  A    between atoms: C_21  and  C_22
REMARK    3  A    between atoms: C_22  and  C_23
REMARK                            x       y       z     vdW  Elec       q    Type
REMARK                         _______ _______ _______ _____ _____    ______ ____
ROOT
ATOM      1  O   UNL     1      37.526 -21.755 -16.976  0.00  0.00    -0.209 OA
ATOM      2  N   UNL     1      34.112 -23.802 -16.539  0.00  0.00    -0.275 N 
ATOM      3  N   UNL     1      37.570 -24.095 -12.272  0.00  0.00    -0.315 N 
ATOM      4  N   UNL     1      35.666 -25.219 -12.059  0.00  0.00    -0.316 N 
ATOM      5  N   UNL     1      35.510 -22.394 -17.853  0.00  0.00    -0.302 NA
ATOM      6  N   UNL     1      33.421 -23.126 -18.619  0.00  0.00    -0.320 N 
ATOM      7  C   UNL     1      34.748 -24.578 -14.317  0.00  0.00    +0.007 C 
ATOM      8  C   UNL     1      35.025 -23.845 -15.482  0.00  0.00    +0.060 C 
ATOM      9  C   UNL     1      35.700 -24.588 -13.282  0.00  0.00    +0.056 C 
ATOM     10  C   UNL     1      36.883 -23.876 -13.439  0.00  0.00    +0.060 C 
ATOM     11  C   UNL     1      36.232 -23.138 -15.603  0.00  0.00    +0.109 C 
ATOM     12  C   UNL     1      37.194 -23.137 -14.581  0.00  0.00    +0.029 C 
ATOM     13  C   UNL     1      36.474 -22.376 -16.862  0.00  0.00    +0.208 C 
ATOM     14  C   UNL     1      36.801 -24.903 -11.481  0.00  0.00    +0.182 C 
ATOM     15  C   UNL     1      34.409 -23.075 -17.669  0.00  0.00    +0.248 C 
ATOM     16  H   UNL     1      33.260 -24.290 -16.476  0.00  0.00    +0.156 HD
ATOM     17  H   UNL     1      38.458 -23.735 -12.044  0.00  0.00    +0.148 HD
ATOM     18  H   UNL     1      34.946 -25.786 -11.697  0.00  0.00    +0.148 HD
ATOM     19  H   UNL     1      32.602 -23.649 -18.451  0.00  0.00    +0.146 HD
ATOM     20  H   UNL     1      33.528 -22.642 -19.469  0.00  0.00    +0.146 HD
ENDROOT
BRANCH   7  21
ATOM     21  C   UNL     1      33.463 -25.333 -14.181  0.00  0.00    +0.034 C 
BRANCH  21  22
ATOM     22  C   UNL     1      32.345 -24.537 -13.483  0.00  0.00    +0.031 C 
BRANCH  22  23
ATOM     23  C   UNL     1      31.152 -24.282 -14.371  0.00  0.00    -0.022 C 
ATOM     24  C   UNL     1      30.075 -25.155 -14.331  0.00  0.00    -0.005 C 
ATOM     25  C   UNL     1      31.152 -23.180 -15.210  0.00  0.00    -0.005 C 
ATOM     26  C   UNL     1      28.960 -23.814 -16.003  0.00  0.00    -0.022 C 
ATOM     27  C   UNL     1      28.973 -24.919 -15.152  0.00  0.00    -0.005 C 
ATOM     28  C   UNL     1      30.050 -22.944 -16.031  0.00  0.00    -0.005 C 
ATOM     29  C   UNL     1      27.781 -23.561 -16.879  0.00  0.00    +0.031 C 
ENDBRANCH  22  23
ENDBRANCH  21  22
ENDBRANCH   7  21
TORSDOF 3
ENDMDL
MODEL 7
REMARK VINA RESULT:     -10.0      2.891      5.772
REMARK  Name = 5326929
REMARK  3 active torsions:
REMARK  status: ('A' for Active; 'I' for Inactive)
REMARK    1  A    between atoms: C_7  and  C_21
REMARK    2  A    between atoms: C_21  and  C_22
REMARK    3  A    between atoms: C_22  and  C_23
REMARK                            x       y       z     vdW  Elec       q    Type
REMARK                         _______ _______ _______ _____ _____    ______ ____
ROOT
ATOM      1  O   UNL     1      33.050 -22.758 -19.117  0.00  0.00    -0.209 OA
ATOM      2  N   UNL     1      35.451 -22.962 -15.918  0.00  0.00    -0.275 N 
ATOM      3  N   UNL     1      30.218 -24.388 -15.003  0.00  0.00    -0.315 N 
ATOM      4  N   UNL     1      31.575 -24.493 -13.248  0.00  0.00    -0.316 N 
ATOM      5  N   UNL     1      35.143 -22.484 -18.229  0.00  0.00    -0.302 NA
ATOM      6  N   UNL     1      37.227 -22.251 -17.184  0.00  0.00    -0.320 N 
ATOM      7  C   UNL     1      33.634 -23.722 -14.481  0.00  0.00    +0.007 C 
ATOM      8  C   UNL     1      34.111 -23.314 -15.737  0.00  0.00    +0.060 C 
ATOM      9  C   UNL     1      32.276 -24.067 -14.353  0.00  0.00    +0.056 C 
ATOM     10  C   UNL     1      31.447 -23.994 -15.467  0.00  0.00    +0.060 C 
ATOM     11  C   UNL     1      33.242 -23.253 -16.839  0.00  0.00    +0.109 C 
ATOM     12  C   UNL     1      31.885 -23.592 -16.730  0.00  0.00    +0.029 C 
ATOM     13  C   UNL     1      33.802 -22.813 -18.149  0.00  0.00    +0.208 C 
ATOM     14  C   UNL     1      30.347 -24.675 -13.672  0.00  0.00    +0.182 C 
ATOM     15  C   UNL     1      35.891 -22.565 -17.160  0.00  0.00    +0.248 C 
ATOM     16  H   UNL     1      36.078 -22.996 -15.160  0.00  0.00    +0.156 HD
ATOM     17  H   UNL     1      29.391 -24.453 -15.533  0.00  0.00    +0.148 HD
ATOM     18  H   UNL     1      31.921 -24.629 -12.336  0.00  0.00    +0.148 HD
ATOM     19  H   UNL     1      37.764 -22.322 -16.361  0.00  0.00    +0.146 HD
ATOM     20  H   UNL     1      37.648 -21.955 -18.022  0.00  0.00    +0.146 HD
ENDROOT
BRANCH   7  21
ATOM     21  C   UNL     1      34.554 -23.790 -13.303  0.00  0.00    +0.034 C 
BRANCH  21  22
ATOM     22  C   UNL     1      34.978 -25.222 -12.927  0.00  0.00    +0.031 C 
BRANCH  22  23
ATOM     23  C   UNL     1      36.434 -25.504 -13.205  0.00  0.00    -0.022 C 
ATOM     24  C   UNL     1      37.396 -25.072 -12.304  0.00  0.00    -0.005 C 
ATOM     25  C   UNL     1      36.785 -26.191 -14.356  0.00  0.00    -0.005 C 
ATOM     26  C   UNL     1      39.109 -26.024 -13.717  0.00  0.00    -0.022 C 
ATOM     27  C   UNL     1      38.741 -25.334 -12.562  0.00  0.00    -0.005 C 
ATOM     28  C   UNL     1      38.130 -26.453 -14.614  0.00  0.00    -0.005 C 
ATOM     29  C   UNL     1      40.547 -26.304 -13.992  0.00  0.00    +0.031 C 
ENDBRANCH  22  23
ENDBRANCH  21  22
ENDBRANCH   7  21
TORSDOF 3
ENDMDL
MODEL 8
REMARK VINA RESULT:      -9.2     15.897     19.440
REMARK  Name = 5326929
REMARK  3 active torsions:
REMARK  status: ('A' for Active; 'I' for Inactive)
REMARK    1  A    between atoms: C_7  and  C_21
REMARK    2  A    between atoms: C_21  and  C_22
REMARK    3  A    between atoms: C_22  and  C_23
REMARK                            x       y       z     vdW  Elec       q    Type
REMARK                         _______ _______ _______ _____ _____    ______ ____
ROOT
ATOM      1  O   UNL     1      32.076  -2.375 -26.375  0.00  0.00    -0.209 OA
ATOM      2  N   UNL     1      34.204  -5.497 -25.044  0.00  0.00    -0.275 N 
ATOM      3  N   UNL     1      29.862  -4.143 -21.950  0.00  0.00    -0.315 N 
ATOM      4  N   UNL     1      31.062  -5.872 -21.239  0.00  0.00    -0.316 N 
ATOM      5  N   UNL     1      33.860  -3.782 -26.659  0.00  0.00    -0.302 NA
ATOM      6  N   UNL     1      35.641  -5.296 -26.821  0.00  0.00    -0.320 N 
ATOM      7  C   UNL     1      32.738  -5.799 -23.119  0.00  0.00    +0.007 C 
ATOM      8  C   UNL     1      33.090  -5.113 -24.292  0.00  0.00    +0.060 C 
ATOM      9  C   UNL     1      31.608  -5.374 -22.399  0.00  0.00    +0.056 C 
ATOM     10  C   UNL     1      30.873  -4.289 -22.866  0.00  0.00    +0.060 C 
ATOM     11  C   UNL     1      32.323  -4.022 -24.731  0.00  0.00    +0.109 C 
ATOM     12  C   UNL     1      31.192  -3.582 -24.026  0.00  0.00    +0.029 C 
ATOM     13  C   UNL     1      32.742  -3.329 -25.983  0.00  0.00    +0.208 C 
ATOM     14  C   UNL     1      30.019  -5.112 -20.998  0.00  0.00    +0.182 C 
ATOM     15  C   UNL     1      34.525  -4.805 -26.190  0.00  0.00    +0.248 C 
ATOM     16  H   UNL     1      34.757  -6.258 -24.755  0.00  0.00    +0.156 HD
ATOM     17  H   UNL     1      29.152  -3.463 -21.973  0.00  0.00    +0.148 HD
ATOM     18  H   UNL     1      31.385  -6.633 -20.704  0.00  0.00    +0.148 HD
ATOM     19  H   UNL     1      36.121  -6.068 -26.442  0.00  0.00    +0.146 HD
ATOM     20  H   UNL     1      35.962  -4.876 -27.651  0.00  0.00    +0.146 HD
ENDROOT
BRANCH   7  21
ATOM     21  C   UNL     1      33.551  -6.963 -22.646  0.00  0.00    +0.034 C 
BRANCH  21  22
ATOM     22  C   UNL     1      32.947  -8.333 -23.009  0.00  0.00    +0.031 C 
BRANCH  22  23
ATOM     23  C   UNL     1      32.466  -9.108 -21.807  0.00  0.00    -0.022 C 
ATOM     24  C   UNL     1      31.860 -10.342 -21.992  0.00  0.00    -0.005 C 
ATOM     25  C   UNL     1      32.639  -8.575 -20.540  0.00  0.00    -0.005 C 
ATOM     26  C   UNL     1      31.582 -10.533 -19.599  0.00  0.00    -0.022 C 
ATOM     27  C   UNL     1      31.416 -11.058 -20.881  0.00  0.00    -0.005 C 
ATOM     28  C   UNL     1      32.195  -9.292 -19.429  0.00  0.00    -0.005 C 
ATOM     29  C   UNL     1      31.109 -11.300 -18.412  0.00  0.00    +0.031 C 
ENDBRANCH  22  23
ENDBRANCH  21  22
ENDBRANCH   7  21
TORSDOF 3
ENDMDL
MODEL 9
REMARK VINA RESULT:      -9.2     12.080     15.292
REMARK  Name = 5326929
REMARK  3 active torsions:
REMARK  status: ('A' for Active; 'I' for Inactive)
REMARK    1  A    between atoms: C_7  and  C_21
REMARK    2  A    between atoms: C_21  and  C_22
REMARK    3  A    between atoms: C_22  and  C_23
REMARK                            x       y       z     vdW  Elec       q    Type
REMARK                         _______ _______ _______ _____ _____    ______ ____
ROOT
ATOM      1  O   UNL     1      32.234 -14.800 -20.110  0.00  0.00    -0.209 OA
ATOM      2  N   UNL     1      32.939 -12.416 -23.249  0.00  0.00    -0.275 N 
ATOM      3  N   UNL     1      31.455  -9.818 -18.633  0.00  0.00    -0.315 N 
ATOM      4  N   UNL     1      31.855  -8.522 -20.392  0.00  0.00    -0.316 N 
ATOM      5  N   UNL     1      32.835 -14.600 -22.310  0.00  0.00    -0.302 NA
ATOM      6  N   UNL     1      33.437 -14.241 -24.546  0.00  0.00    -0.320 N 
ATOM      7  C   UNL     1      32.431 -10.408 -21.962  0.00  0.00    +0.007 C 
ATOM      8  C   UNL     1      32.558 -11.803 -22.052  0.00  0.00    +0.060 C 
ATOM      9  C   UNL     1      32.046  -9.842 -20.734  0.00  0.00    +0.056 C 
ATOM     10  C   UNL     1      31.802 -10.674 -19.647  0.00  0.00    +0.060 C 
ATOM     11  C   UNL     1      32.304 -12.611 -20.932  0.00  0.00    +0.109 C 
ATOM     12  C   UNL     1      31.918 -12.064 -19.699  0.00  0.00    +0.029 C 
ATOM     13  C   UNL     1      32.454 -14.087 -21.084  0.00  0.00    +0.208 C 
ATOM     14  C   UNL     1      31.501  -8.544 -19.128  0.00  0.00    +0.182 C 
ATOM     15  C   UNL     1      33.056 -13.785 -23.308  0.00  0.00    +0.248 C 
ATOM     16  H   UNL     1      33.122 -11.869 -24.047  0.00  0.00    +0.156 HD
ATOM     17  H   UNL     1      31.216 -10.075 -17.713  0.00  0.00    +0.148 HD
ATOM     18  H   UNL     1      31.960  -7.733 -20.971  0.00  0.00    +0.148 HD
ATOM     19  H   UNL     1      33.595 -13.601 -25.279  0.00  0.00    +0.146 HD
ATOM     20  H   UNL     1      33.551 -15.205 -24.702  0.00  0.00    +0.146 HD
ENDROOT
BRANCH   7  21
ATOM     21  C   UNL     1      32.702  -9.541 -23.151  0.00  0.00    +0.034 C 
BRANCH  21  22
ATOM     22  C   UNL     1      33.720  -8.417 -22.883  0.00  0.00    +0.031 C 
BRANCH  22  23
ATOM     23  C   UNL     1      33.339  -7.104 -23.521  0.00  0.00    -0.022 C 
ATOM     24  C   UNL     1      32.245  -6.403 -23.036  0.00  0.00    -0.005 C 
ATOM     25  C   UNL     1      34.090  -6.620 -24.581  0.00  0.00    -0.005 C 
ATOM     26  C   UNL     1      32.641  -4.691 -24.695  0.00  0.00    -0.022 C 
ATOM     27  C   UNL     1      31.894  -5.189 -23.627  0.00  0.00    -0.005 C 
ATOM     28  C   UNL     1      33.739  -5.407 -25.172  0.00  0.00    -0.005 C 
ATOM     29  C   UNL     1      32.266  -3.393 -25.325  0.00  0.00    +0.031 C 
ENDBRANCH  22  23
ENDBRANCH  21  22
ENDBRANCH   7  21
TORSDOF 3
ENDMDL
