MODEL 1
REMARK VINA RESULT:     -11.5      0.000      0.000
REMARK  Name = 11979006
REMARK  7 active torsions:
REMARK  status: ('A' for Active; 'I' for Inactive)
REMARK    1  A    between atoms: C_1  and  N_2
REMARK    2  A    between atoms: C_1  and  C_22
REMARK    3  A    between atoms: C_3  and  N_9
REMARK    4  A    between atoms: C_4  and  O_18
REMARK    5  A    between atoms: C_10  and  C_14
REMARK    6  A    between atoms: N_21  and  C_25
REMARK    7  A    between atoms: C_28  and  N_32
REMARK                            x       y       z     vdW  Elec       q    Type
REMARK                         _______ _______ _______ _____ _____    ______ ____
ROOT
ATOM      1  C   UNL     1      35.415 -21.686 -20.136  0.00  0.00    +0.010 C 
ENDROOT
BRANCH   1   2
ATOM      2  N   UNL     1      35.091 -21.941 -18.741  0.00  0.00    +0.396 N 
ATOM      3  C   UNL     1      35.648 -22.742 -16.646  0.00  0.00    +0.076 C 
ATOM      4  C   UNL     1      34.412 -23.514 -17.114  0.00  0.00    +0.106 C 
ATOM      5  C   UNL     1      36.277 -22.234 -17.936  0.00  0.00    -0.054 C 
ATOM      6  C   UNL     1      34.206 -23.100 -18.572  0.00  0.00    -0.045 C 
ATOM      7  H   UNL     1      34.638 -21.082 -18.432  0.00  0.00    -0.079 HD
BRANCH   3   9
ATOM      8  O   UNL     1      35.294 -23.514 -13.957  0.00  0.00    -0.270 OA
ATOM      9  N   UNL     1      36.550 -23.559 -15.881  0.00  0.00    -0.302 N 
ATOM     10  C   UNL     1      36.304 -23.899 -14.548  0.00  0.00    +0.252 C 
ATOM     11  H   UNL     1      37.371 -23.890 -16.310  0.00  0.00    +0.150 HD
BRANCH  10  14
ATOM     12 CL   UNL     1      40.863 -26.761 -13.542  0.00  0.00    -0.075 Cl
ATOM     13  S   UNL     1      38.763 -25.029 -14.727  0.00  0.00    -0.071 S 
ATOM     14  C   UNL     1      37.305 -24.767 -13.910  0.00  0.00    +0.084 C 
ATOM     15  C   UNL     1      37.202 -25.400 -12.720  0.00  0.00    +0.012 C 
ATOM     16  C   UNL     1      38.383 -26.150 -12.447  0.00  0.00    +0.019 C 
ATOM     17  C   UNL     1      39.313 -26.035 -13.456  0.00  0.00    +0.087 C 
ENDBRANCH  10  14
ENDBRANCH   3   9
BRANCH   4  18
ATOM     18  O   UNL     1      33.295 -23.140 -16.319  0.00  0.00    -0.385 OA
ATOM     19  H   UNL     1      32.775 -22.468 -16.788  0.00  0.00    +0.210 HD
ENDBRANCH   4  18
ENDBRANCH   1   2
BRANCH   1  22
ATOM     20  O   UNL     1      33.545 -20.163 -20.219  0.00  0.00    -0.277 OA
ATOM     21  N   UNL     1      35.462 -19.724 -21.502  0.00  0.00    -0.284 N 
ATOM     22  C   UNL     1      34.674 -20.446 -20.608  0.00  0.00    +0.205 C 
ATOM     23  H   UNL     1      36.351 -20.100 -21.698  0.00  0.00    +0.155 HD
BRANCH  21  25
ATOM     24  F   UNL     1      34.869 -19.680 -24.214  0.00  0.00    -0.203 F 
ATOM     25  C   UNL     1      35.134 -18.516 -22.162  0.00  0.00    +0.078 C 
ATOM     26  C   UNL     1      34.845 -18.536 -23.516  0.00  0.00    +0.155 C 
ATOM     27  C   UNL     1      35.111 -17.337 -21.435  0.00  0.00    +0.018 C 
ATOM     28  C   UNL     1      34.495 -16.146 -23.446  0.00  0.00    +0.061 C 
ATOM     29  C   UNL     1      34.523 -17.343 -24.163  0.00  0.00    +0.046 C 
ATOM     30  C   UNL     1      34.790 -16.143 -22.082  0.00  0.00    +0.017 C 
BRANCH  28  32
ATOM     31  O   UNL     1      33.698 -15.910 -26.216  0.00  0.00    -0.269 OA
ATOM     32  N   UNL     1      34.161 -14.906 -24.119  0.00  0.00    -0.233 N 
ATOM     33  C   UNL     1      33.744 -14.929 -25.476  0.00  0.00    +0.257 C 
ATOM     34  C   UNL     1      34.268 -13.686 -23.450  0.00  0.00    +0.072 C 
ATOM     35  C   UNL     1      33.374 -13.611 -26.079  0.00  0.00    +0.059 C 
ATOM     36  C   UNL     1      33.961 -12.517 -24.022  0.00  0.00    +0.017 C 
ATOM     37  C   UNL     1      33.494 -12.483 -25.376  0.00  0.00    +0.006 C 
ENDBRANCH  28  32
ENDBRANCH  21  25
ENDBRANCH   1  22
TORSDOF 7
ENDMDL
MODEL 2
REMARK VINA RESULT:     -11.1      5.235     12.145
REMARK  Name = 11979006
REMARK  7 active torsions:
REMARK  status: ('A' for Active; 'I' for Inactive)
REMARK    1  A    between atoms: C_1  and  N_2
REMARK    2  A    between atoms: C_1  and  C_22
REMARK    3  A    between atoms: C_3  and  N_9
REMARK    4  A    between atoms: C_4  and  O_18
REMARK    5  A    between atoms: C_10  and  C_14
REMARK    6  A    between atoms: N_21  and  C_25
REMARK    7  A    between atoms: C_28  and  N_32
REMARK                            x       y       z     vdW  Elec       q    Type
REMARK                         _______ _______ _______ _____ _____    ______ ____
ROOT
ATOM      1  C   UNL     1      34.924 -20.724 -21.053  0.00  0.00    +0.010 C 
ENDROOT
BRANCH   1   2
ATOM      2  N   UNL     1      35.270 -19.421 -21.599  0.00  0.00    +0.396 N 
ATOM      3  C   UNL     1      34.986 -17.129 -21.708  0.00  0.00    +0.076 C 
ATOM      4  C   UNL     1      34.719 -17.688 -23.108  0.00  0.00    +0.106 C 
ATOM      5  C   UNL     1      34.756 -18.319 -20.786  0.00  0.00    -0.054 C 
ATOM      6  C   UNL     1      34.717 -19.208 -22.942  0.00  0.00    -0.045 C 
ATOM      7  H   UNL     1      36.289 -19.423 -21.616  0.00  0.00    -0.079 HD
BRANCH   3   9
ATOM      8  O   UNL     1      34.962 -14.642 -23.036  0.00  0.00    -0.270 OA
ATOM      9  N   UNL     1      34.137 -16.015 -21.388  0.00  0.00    -0.302 N 
ATOM     10  C   UNL     1      34.184 -14.811 -22.096  0.00  0.00    +0.252 C 
ATOM     11  H   UNL     1      33.500 -16.102 -20.644  0.00  0.00    +0.150 HD
BRANCH  10  14
ATOM     12 CL   UNL     1      31.193 -10.229 -21.878  0.00  0.00    -0.075 Cl
ATOM     13  S   UNL     1      33.084 -12.391 -22.630  0.00  0.00    -0.071 S 
ATOM     14  C   UNL     1      33.231 -13.776 -21.670  0.00  0.00    +0.084 C 
ATOM     15  C   UNL     1      32.436 -13.793 -20.577  0.00  0.00    +0.012 C 
ATOM     16  C   UNL     1      31.652 -12.604 -20.508  0.00  0.00    +0.019 C 
ATOM     17  C   UNL     1      31.906 -11.756 -21.563  0.00  0.00    +0.087 C 
ENDBRANCH  10  14
ENDBRANCH   3   9
BRANCH   4  18
ATOM     18  O   UNL     1      35.759 -17.276 -23.985  0.00  0.00    -0.385 OA
ATOM     19  H   UNL     1      36.584 -17.177 -23.484  0.00  0.00    +0.210 HD
ENDBRANCH   4  18
ENDBRANCH   1   2
BRANCH   1  22
ATOM     20  O   UNL     1      36.911 -20.520 -19.701  0.00  0.00    -0.277 OA
ATOM     21  N   UNL     1      35.141 -21.881 -18.972  0.00  0.00    -0.284 N 
ATOM     22  C   UNL     1      35.796 -21.013 -19.844  0.00  0.00    +0.205 C 
ATOM     23  H   UNL     1      34.243 -22.176 -19.247  0.00  0.00    +0.155 HD
BRANCH  21  25
ATOM     24  F   UNL     1      33.456 -23.235 -17.230  0.00  0.00    -0.203 F 
ATOM     25  C   UNL     1      35.616 -22.388 -17.739  0.00  0.00    +0.078 C 
ATOM     26  C   UNL     1      34.743 -23.058 -16.898  0.00  0.00    +0.155 C 
ATOM     27  C   UNL     1      36.946 -22.203 -17.401  0.00  0.00    +0.018 C 
ATOM     28  C   UNL     1      36.551 -23.378 -15.327  0.00  0.00    +0.061 C 
ATOM     29  C   UNL     1      35.214 -23.556 -15.683  0.00  0.00    +0.046 C 
ATOM     30  C   UNL     1      37.417 -22.700 -16.186  0.00  0.00    +0.017 C 
BRANCH  28  32
ATOM     31  O   UNL     1      37.557 -26.054 -14.895  0.00  0.00    -0.269 OA
ATOM     32  N   UNL     1      37.039 -23.895 -14.064  0.00  0.00    -0.233 N 
ATOM     33  C   UNL     1      37.546 -25.219 -13.991  0.00  0.00    +0.257 C 
ATOM     34  C   UNL     1      36.995 -23.108 -12.911  0.00  0.00    +0.072 C 
ATOM     35  C   UNL     1      38.073 -25.657 -12.662  0.00  0.00    +0.059 C 
ATOM     36  C   UNL     1      37.442 -23.535 -11.726  0.00  0.00    +0.017 C 
ATOM     37  C   UNL     1      38.005 -24.848 -11.603  0.00  0.00    +0.006 C 
ENDBRANCH  28  32
ENDBRANCH  21  25
ENDBRANCH   1  22
TORSDOF 7
ENDMDL
MODEL 3
REMARK VINA RESULT:     -11.1      1.523      1.832
REMARK  Name = 11979006
REMARK  7 active torsions:
REMARK  status: ('A' for Active; 'I' for Inactive)
REMARK    1  A    between atoms: C_1  and  N_2
REMARK    2  A    between atoms: C_1  and  C_22
REMARK    3  A    between atoms: C_3  and  N_9
REMARK    4  A    between atoms: C_4  and  O_18
REMARK    5  A    between atoms: C_10  and  C_14
REMARK    6  A    between atoms: N_21  and  C_25
REMARK    7  A    between atoms: C_28  and  N_32
REMARK                            x       y       z     vdW  Elec       q    Type
REMARK                         _______ _______ _______ _____ _____    ______ ____
ROOT
ATOM      1  C   UNL     1      35.389 -21.229 -20.257  0.00  0.00    +0.010 C 
ENDROOT
BRANCH   1   2
ATOM      2  N   UNL     1      34.963 -21.669 -18.937  0.00  0.00    +0.396 N 
ATOM      3  C   UNL     1      35.388 -22.693 -16.908  0.00  0.00    +0.076 C 
ATOM      4  C   UNL     1      34.245 -23.461 -17.575  0.00  0.00    +0.106 C 
ATOM      5  C   UNL     1      36.092 -22.001 -18.066  0.00  0.00    -0.054 C 
ATOM      6  C   UNL     1      34.138 -22.882 -18.987  0.00  0.00    -0.045 C 
ATOM      7  H   UNL     1      34.435 -20.877 -18.571  0.00  0.00    -0.079 HD
BRANCH   3   9
ATOM      8  O   UNL     1      34.952 -23.627 -14.284  0.00  0.00    -0.270 OA
ATOM      9  N   UNL     1      36.269 -23.551 -16.165  0.00  0.00    -0.302 N 
ATOM     10  C   UNL     1      35.982 -23.973 -14.864  0.00  0.00    +0.252 C 
ATOM     11  H   UNL     1      37.105 -23.853 -16.587  0.00  0.00    +0.150 HD
BRANCH  10  14
ATOM     12 CL   UNL     1      40.644 -26.567 -13.630  0.00  0.00    -0.075 Cl
ATOM     13  S   UNL     1      38.564 -24.798 -14.796  0.00  0.00    -0.071 S 
ATOM     14  C   UNL     1      36.966 -24.875 -14.248  0.00  0.00    +0.084 C 
ATOM     15  C   UNL     1      36.746 -25.784 -13.272  0.00  0.00    +0.012 C 
ATOM     16  C   UNL     1      37.953 -26.467 -12.942  0.00  0.00    +0.019 C 
ATOM     17  C   UNL     1      39.018 -26.028 -13.696  0.00  0.00    +0.087 C 
ENDBRANCH  10  14
ENDBRANCH   3   9
BRANCH   4  18
ATOM     18  O   UNL     1      33.043 -23.242 -16.847  0.00  0.00    -0.385 OA
ATOM     19  H   UNL     1      32.979 -22.305 -16.603  0.00  0.00    +0.210 HD
ENDBRANCH   4  18
ENDBRANCH   1   2
BRANCH   1  22
ATOM     20  O   UNL     1      33.325 -20.123 -20.839  0.00  0.00    -0.277 OA
ATOM     21  N   UNL     1      35.342 -18.921 -20.877  0.00  0.00    -0.284 N 
ATOM     22  C   UNL     1      34.541 -20.046 -20.692  0.00  0.00    +0.205 C 
ATOM     23  H   UNL     1      36.305 -19.041 -20.708  0.00  0.00    +0.155 HD
BRANCH  21  25
ATOM     24  F   UNL     1      35.592 -18.087 -23.513  0.00  0.00    -0.203 F 
ATOM     25  C   UNL     1      34.934 -17.627 -21.278  0.00  0.00    +0.078 C 
ATOM     26  C   UNL     1      35.075 -17.249 -22.603  0.00  0.00    +0.155 C 
ATOM     27  C   UNL     1      34.402 -16.765 -20.334  0.00  0.00    +0.018 C 
ATOM     28  C   UNL     1      34.135 -15.091 -22.056  0.00  0.00    +0.061 C 
ATOM     29  C   UNL     1      34.673 -15.972 -22.995  0.00  0.00    +0.046 C 
ATOM     30  C   UNL     1      34.000 -15.488 -20.725  0.00  0.00    +0.017 C 
BRANCH  28  32
ATOM     31  O   UNL     1      31.986 -13.573 -20.857  0.00  0.00    -0.269 OA
ATOM     32  N   UNL     1      33.718 -13.764 -22.464  0.00  0.00    -0.233 N 
ATOM     33  C   UNL     1      32.671 -13.106 -21.766  0.00  0.00    +0.257 C 
ATOM     34  C   UNL     1      34.323 -13.135 -23.554  0.00  0.00    +0.072 C 
ATOM     35  C   UNL     1      32.335 -11.722 -22.222  0.00  0.00    +0.059 C 
ATOM     36  C   UNL     1      33.982 -11.908 -23.962  0.00  0.00    +0.017 C 
ATOM     37  C   UNL     1      32.962 -11.180 -23.268  0.00  0.00    +0.006 C 
ENDBRANCH  28  32
ENDBRANCH  21  25
ENDBRANCH   1  22
TORSDOF 7
ENDMDL
MODEL 4
REMARK VINA RESULT:     -10.9      1.379      1.679
REMARK  Name = 11979006
REMARK  7 active torsions:
REMARK  status: ('A' for Active; 'I' for Inactive)
REMARK    1  A    between atoms: C_1  and  N_2
REMARK    2  A    between atoms: C_1  and  C_22
REMARK    3  A    between atoms: C_3  and  N_9
REMARK    4  A    between atoms: C_4  and  O_18
REMARK    5  A    between atoms: C_10  and  C_14
REMARK    6  A    between atoms: N_21  and  C_25
REMARK    7  A    between atoms: C_28  and  N_32
REMARK                            x       y       z     vdW  Elec       q    Type
REMARK                         _______ _______ _______ _____ _____    ______ ____
ROOT
ATOM      1  C   UNL     1      35.506 -21.470 -20.192  0.00  0.00    +0.010 C 
ENDROOT
BRANCH   1   2
ATOM      2  N   UNL     1      34.905 -21.826 -18.915  0.00  0.00    +0.396 N 
ATOM      3  C   UNL     1      35.015 -22.824 -16.833  0.00  0.00    +0.076 C 
ATOM      4  C   UNL     1      33.875 -23.498 -17.601  0.00  0.00    +0.106 C 
ATOM      5  C   UNL     1      35.900 -22.239 -17.924  0.00  0.00    -0.054 C 
ATOM      6  C   UNL     1      33.973 -22.954 -19.027  0.00  0.00    -0.045 C 
ATOM      7  H   UNL     1      34.424 -20.976 -18.623  0.00  0.00    -0.079 HD
BRANCH   3   9
ATOM      8  O   UNL     1      37.262 -22.200 -15.248  0.00  0.00    -0.270 OA
ATOM      9  N   UNL     1      35.725 -23.741 -15.984  0.00  0.00    -0.302 N 
ATOM     10  C   UNL     1      36.834 -23.355 -15.227  0.00  0.00    +0.252 C 
ATOM     11  H   UNL     1      35.420 -24.676 -15.935  0.00  0.00    +0.150 HD
BRANCH  10  14
ATOM     12 CL   UNL     1      37.636 -27.074 -11.288  0.00  0.00    -0.075 Cl
ATOM     13  S   UNL     1      36.535 -24.966 -13.066  0.00  0.00    -0.071 S 
ATOM     14  C   UNL     1      37.434 -24.399 -14.383  0.00  0.00    +0.084 C 
ATOM     15  C   UNL     1      38.646 -24.977 -14.532  0.00  0.00    +0.012 C 
ATOM     16  C   UNL     1      38.867 -25.947 -13.511  0.00  0.00    +0.019 C 
ATOM     17  C   UNL     1      37.799 -26.042 -12.648  0.00  0.00    +0.087 C 
ENDBRANCH  10  14
ENDBRANCH   3   9
BRANCH   4  18
ATOM     18  O   UNL     1      32.633 -23.141 -17.008  0.00  0.00    -0.385 OA
ATOM     19  H   UNL     1      32.780 -22.454 -16.339  0.00  0.00    +0.210 HD
ENDBRANCH   4  18
ENDBRANCH   1   2
BRANCH   1  22
ATOM     20  O   UNL     1      33.481 -20.285 -20.756  0.00  0.00    -0.277 OA
ATOM     21  N   UNL     1      35.556 -19.454 -21.475  0.00  0.00    -0.284 N 
ATOM     22  C   UNL     1      34.704 -20.349 -20.831  0.00  0.00    +0.205 C 
ATOM     23  H   UNL     1      36.518 -19.661 -21.430  0.00  0.00    +0.155 HD
BRANCH  21  25
ATOM     24  F   UNL     1      35.155 -17.041 -20.161  0.00  0.00    -0.203 F 
ATOM     25  C   UNL     1      35.201 -18.282 -22.185  0.00  0.00    +0.078 C 
ATOM     26  C   UNL     1      35.010 -17.098 -21.493  0.00  0.00    +0.155 C 
ATOM     27  C   UNL     1      35.053 -18.347 -23.561  0.00  0.00    +0.018 C 
ATOM     28  C   UNL     1      34.506 -15.994 -23.582  0.00  0.00    +0.061 C 
ATOM     29  C   UNL     1      34.661 -15.945 -22.197  0.00  0.00    +0.046 C 
ATOM     30  C   UNL     1      34.702 -17.195 -24.264  0.00  0.00    +0.017 C 
BRANCH  28  32
ATOM     31  O   UNL     1      33.597 -15.921 -26.327  0.00  0.00    -0.269 OA
ATOM     32  N   UNL     1      34.142 -14.795 -24.313  0.00  0.00    -0.233 N 
ATOM     33  C   UNL     1      33.671 -14.897 -25.648  0.00  0.00    +0.257 C 
ATOM     34  C   UNL     1      34.272 -13.538 -23.720  0.00  0.00    +0.072 C 
ATOM     35  C   UNL     1      33.272 -13.618 -26.311  0.00  0.00    +0.059 C 
ATOM     36  C   UNL     1      33.939 -12.405 -24.347  0.00  0.00    +0.017 C 
ATOM     37  C   UNL     1      33.417 -12.450 -25.681  0.00  0.00    +0.006 C 
ENDBRANCH  28  32
ENDBRANCH  21  25
ENDBRANCH   1  22
TORSDOF 7
ENDMDL
MODEL 5
REMARK VINA RESULT:     -10.9      4.884     12.062
REMARK  Name = 11979006
REMARK  7 active torsions:
REMARK  status: ('A' for Active; 'I' for Inactive)
REMARK    1  A    between atoms: C_1  and  N_2
REMARK    2  A    between atoms: C_1  and  C_22
REMARK    3  A    between atoms: C_3  and  N_9
REMARK    4  A    between atoms: C_4  and  O_18
REMARK    5  A    between atoms: C_10  and  C_14
REMARK    6  A    between atoms: N_21  and  C_25
REMARK    7  A    between atoms: C_28  and  N_32
REMARK                            x       y       z     vdW  Elec       q    Type
REMARK                         _______ _______ _______ _____ _____    ______ ____
ROOT
ATOM      1  C   UNL     1      33.728 -21.197 -20.407  0.00  0.00    +0.010 C 
ENDROOT
BRANCH   1   2
ATOM      2  N   UNL     1      34.657 -20.080 -20.487  0.00  0.00    +0.396 N 
ATOM      3  C   UNL     1      35.219 -17.960 -21.217  0.00  0.00    +0.076 C 
ATOM      4  C   UNL     1      36.269 -18.924 -21.772  0.00  0.00    +0.106 C 
ATOM      5  C   UNL     1      34.013 -18.847 -20.940  0.00  0.00    -0.054 C 
ATOM      6  C   UNL     1      35.748 -20.324 -21.438  0.00  0.00    -0.045 C 
ATOM      7  H   UNL     1      35.011 -19.984 -19.536  0.00  0.00    -0.079 HD
BRANCH   3   9
ATOM      8  O   UNL     1      34.217 -15.421 -20.510  0.00  0.00    -0.270 OA
ATOM      9  N   UNL     1      34.915 -16.892 -22.131  0.00  0.00    -0.302 N 
ATOM     10  C   UNL     1      34.420 -15.658 -21.701  0.00  0.00    +0.252 C 
ATOM     11  H   UNL     1      35.060 -17.035 -23.093  0.00  0.00    +0.150 HD
BRANCH  10  14
ATOM     12 CL   UNL     1      33.372 -13.286 -26.524  0.00  0.00    -0.075 Cl
ATOM     13  S   UNL     1      33.859 -15.210 -24.316  0.00  0.00    -0.071 S 
ATOM     14  C   UNL     1      34.189 -14.656 -22.752  0.00  0.00    +0.084 C 
ATOM     15  C   UNL     1      34.208 -13.311 -22.621  0.00  0.00    +0.012 C 
ATOM     16  C   UNL     1      33.938 -12.681 -23.871  0.00  0.00    +0.019 C 
ATOM     17  C   UNL     1      33.728 -13.598 -24.877  0.00  0.00    +0.087 C 
ENDBRANCH  10  14
ENDBRANCH   3   9
BRANCH   4  18
ATOM     18  O   UNL     1      37.515 -18.682 -21.129  0.00  0.00    -0.385 OA
ATOM     19  H   UNL     1      37.364 -18.509 -20.187  0.00  0.00    +0.210 HD
ENDBRANCH   4  18
ENDBRANCH   1   2
BRANCH   1  22
ATOM     20  O   UNL     1      32.732 -21.975 -18.351  0.00  0.00    -0.277 OA
ATOM     21  N   UNL     1      35.065 -22.027 -18.608  0.00  0.00    -0.284 N 
ATOM     22  C   UNL     1      33.753 -21.774 -19.002  0.00  0.00    +0.205 C 
ATOM     23  H   UNL     1      35.766 -21.807 -19.264  0.00  0.00    +0.155 HD
BRANCH  21  25
ATOM     24  F   UNL     1      37.556 -21.374 -17.569  0.00  0.00    -0.203 F 
ATOM     25  C   UNL     1      35.510 -22.564 -17.376  0.00  0.00    +0.078 C 
ATOM     26  C   UNL     1      36.759 -22.213 -16.892  0.00  0.00    +0.155 C 
ATOM     27  C   UNL     1      34.682 -23.430 -16.680  0.00  0.00    +0.018 C 
ATOM     28  C   UNL     1      36.373 -23.618 -14.964  0.00  0.00    +0.061 C 
ATOM     29  C   UNL     1      37.193 -22.744 -15.677  0.00  0.00    +0.046 C 
ATOM     30  C   UNL     1      35.117 -23.961 -15.466  0.00  0.00    +0.017 C 
BRANCH  28  32
ATOM     31  O   UNL     1      37.781 -26.124 -14.645  0.00  0.00    -0.269 OA
ATOM     32  N   UNL     1      36.825 -24.170 -13.702  0.00  0.00    -0.233 N 
ATOM     33  C   UNL     1      37.544 -25.394 -13.683  0.00  0.00    +0.257 C 
ATOM     34  C   UNL     1      36.541 -23.517 -12.501  0.00  0.00    +0.072 C 
ATOM     35  C   UNL     1      38.014 -25.868 -12.345  0.00  0.00    +0.059 C 
ATOM     36  C   UNL     1      36.946 -23.979 -11.313  0.00  0.00    +0.017 C 
ATOM     37  C   UNL     1      37.712 -25.188 -11.237  0.00  0.00    +0.006 C 
ENDBRANCH  28  32
ENDBRANCH  21  25
ENDBRANCH   1  22
TORSDOF 7
ENDMDL
MODEL 6
REMARK VINA RESULT:     -10.5      7.413     13.869
REMARK  Name = 11979006
REMARK  7 active torsions:
REMARK  status: ('A' for Active; 'I' for Inactive)
REMARK    1  A    between atoms: C_1  and  N_2
REMARK    2  A    between atoms: C_1  and  C_22
REMARK    3  A    between atoms: C_3  and  N_9
REMARK    4  A    between atoms: C_4  and  O_18
REMARK    5  A    between atoms: C_10  and  C_14
REMARK    6  A    between atoms: N_21  and  C_25
REMARK    7  A    between atoms: C_28  and  N_32
REMARK                            x       y       z     vdW  Elec       q    Type
REMARK                         _______ _______ _______ _____ _____    ______ ____
ROOT
ATOM      1  C   UNL     1      33.642 -13.250 -24.899  0.00  0.00    +0.010 C 
ENDROOT
BRANCH   1   2
ATOM      2  N   UNL     1      34.115 -12.077 -24.180  0.00  0.00    +0.396 N 
ATOM      3  C   UNL     1      33.751 -10.006 -23.219  0.00  0.00    +0.076 C 
ATOM      4  C   UNL     1      34.821  -9.825 -24.298  0.00  0.00    +0.106 C 
ATOM      5  C   UNL     1      33.019 -11.275 -23.635  0.00  0.00    -0.054 C 
ATOM      6  C   UNL     1      34.880 -11.163 -25.037  0.00  0.00    -0.045 C 
ATOM      7  H   UNL     1      34.697 -12.461 -23.436  0.00  0.00    -0.079 HD
BRANCH   3   9
ATOM      8  O   UNL     1      34.283  -7.626 -21.804  0.00  0.00    -0.270 OA
ATOM      9  N   UNL     1      32.872  -8.874 -23.120  0.00  0.00    -0.302 N 
ATOM     10  C   UNL     1      33.208  -7.726 -22.398  0.00  0.00    +0.252 C 
ATOM     11  H   UNL     1      32.001  -8.908 -23.577  0.00  0.00    +0.150 HD
BRANCH  10  14
ATOM     12 CL   UNL     1      30.370  -3.262 -23.816  0.00  0.00    -0.075 Cl
ATOM     13  S   UNL     1      32.313  -5.503 -23.666  0.00  0.00    -0.071 S 
ATOM     14  C   UNL     1      32.217  -6.639 -22.417  0.00  0.00    +0.084 C 
ATOM     15  C   UNL     1      31.214  -6.429 -21.537  0.00  0.00    +0.012 C 
ATOM     16  C   UNL     1      30.468  -5.268 -21.895  0.00  0.00    +0.019 C 
ATOM     17  C   UNL     1      30.958  -4.669 -23.033  0.00  0.00    +0.087 C 
ENDBRANCH  10  14
ENDBRANCH   3   9
BRANCH   4  18
ATOM     18  O   UNL     1      36.068  -9.534 -23.679  0.00  0.00    -0.385 OA
ATOM     19  H   UNL     1      36.281 -10.231 -23.038  0.00  0.00    +0.210 HD
ENDBRANCH   4  18
ENDBRANCH   1   2
BRANCH   1  22
ATOM     20  O   UNL     1      32.352 -14.520 -23.304  0.00  0.00    -0.277 OA
ATOM     21  N   UNL     1      34.535 -15.199 -23.840  0.00  0.00    -0.284 N 
ATOM     22  C   UNL     1      33.407 -14.384 -23.915  0.00  0.00    +0.205 C 
ATOM     23  H   UNL     1      35.296 -14.940 -24.409  0.00  0.00    +0.155 HD
BRANCH  21  25
ATOM     24  F   UNL     1      34.612 -15.037 -21.070  0.00  0.00    -0.203 F 
ATOM     25  C   UNL     1      34.715 -16.354 -23.043  0.00  0.00    +0.078 C 
ATOM     26  C   UNL     1      34.748 -16.231 -21.664  0.00  0.00    +0.155 C 
ATOM     27  C   UNL     1      34.854 -17.585 -23.662  0.00  0.00    +0.018 C 
ATOM     28  C   UNL     1      35.068 -18.620 -21.489  0.00  0.00    +0.061 C 
ATOM     29  C   UNL     1      34.925 -17.372 -20.881  0.00  0.00    +0.046 C 
ATOM     30  C   UNL     1      35.033 -18.726 -22.880  0.00  0.00    +0.017 C 
BRANCH  28  32
ATOM     31  O   UNL     1      37.618 -19.648 -20.591  0.00  0.00    -0.269 OA
ATOM     32  N   UNL     1      35.254 -19.805 -20.675  0.00  0.00    -0.233 N 
ATOM     33  C   UNL     1      36.559 -20.184 -20.265  0.00  0.00    +0.257 C 
ATOM     34  C   UNL     1      34.160 -20.591 -20.308  0.00  0.00    +0.072 C 
ATOM     35  C   UNL     1      36.656 -21.392 -19.389  0.00  0.00    +0.059 C 
ATOM     36  C   UNL     1      34.277 -21.686 -19.550  0.00  0.00    +0.017 C 
ATOM     37  C   UNL     1      35.565 -22.092 -19.072  0.00  0.00    +0.006 C 
ENDBRANCH  28  32
ENDBRANCH  21  25
ENDBRANCH   1  22
TORSDOF 7
ENDMDL
MODEL 7
REMARK VINA RESULT:     -10.4      3.467      5.819
REMARK  Name = 11979006
REMARK  7 active torsions:
REMARK  status: ('A' for Active; 'I' for Inactive)
REMARK    1  A    between atoms: C_1  and  N_2
REMARK    2  A    between atoms: C_1  and  C_22
REMARK    3  A    between atoms: C_3  and  N_9
REMARK    4  A    between atoms: C_4  and  O_18
REMARK    5  A    between atoms: C_10  and  C_14
REMARK    6  A    between atoms: N_21  and  C_25
REMARK    7  A    between atoms: C_28  and  N_32
REMARK                            x       y       z     vdW  Elec       q    Type
REMARK                         _______ _______ _______ _____ _____    ______ ____
ROOT
ATOM      1  C   UNL     1      34.658 -17.887 -23.842  0.00  0.00    +0.010 C 
ENDROOT
BRANCH   1   2
ATOM      2  N   UNL     1      35.443 -18.640 -22.875  0.00  0.00    +0.396 N 
ATOM      3  C   UNL     1      35.610 -20.188 -21.167  0.00  0.00    +0.076 C 
ATOM      4  C   UNL     1      36.153 -18.861 -20.632  0.00  0.00    +0.106 C 
ATOM      5  C   UNL     1      34.709 -19.779 -22.324  0.00  0.00    -0.054 C 
ATOM      6  C   UNL     1      35.835 -17.829 -21.716  0.00  0.00    -0.045 C 
ATOM      7  H   UNL     1      36.258 -18.947 -23.405  0.00  0.00    -0.079 HD
BRANCH   3   9
ATOM      8  O   UNL     1      36.798 -21.785 -19.170  0.00  0.00    -0.270 OA
ATOM      9  N   UNL     1      34.907 -20.940 -20.164  0.00  0.00    -0.302 N 
ATOM     10  C   UNL     1      35.569 -21.710 -19.205  0.00  0.00    +0.252 C 
ATOM     11  H   UNL     1      33.923 -20.911 -20.152  0.00  0.00    +0.150 HD
BRANCH  10  14
ATOM     12 CL   UNL     1      33.800 -24.315 -14.725  0.00  0.00    -0.075 Cl
ATOM     13  S   UNL     1      35.423 -22.919 -16.782  0.00  0.00    -0.071 S 
ATOM     14  C   UNL     1      34.713 -22.396 -18.226  0.00  0.00    +0.084 C 
ATOM     15  C   UNL     1      33.394 -22.670 -18.339  0.00  0.00    +0.012 C 
ATOM     16  C   UNL     1      32.922 -23.349 -17.179  0.00  0.00    +0.019 C 
ATOM     17  C   UNL     1      33.922 -23.548 -16.253  0.00  0.00    +0.087 C 
ENDBRANCH  10  14
ENDBRANCH   3   9
BRANCH   4  18
ATOM     18  O   UNL     1      37.556 -18.972 -20.435  0.00  0.00    -0.385 OA
ATOM     19  H   UNL     1      37.891 -18.156 -20.032  0.00  0.00    +0.210 HD
ENDBRANCH   4  18
ENDBRANCH   1   2
BRANCH   1  22
ATOM     20  O   UNL     1      36.034 -15.918 -23.608  0.00  0.00    -0.277 OA
ATOM     21  N   UNL     1      33.695 -15.721 -23.531  0.00  0.00    -0.284 N 
ATOM     22  C   UNL     1      34.906 -16.401 -23.646  0.00  0.00    +0.205 C 
ATOM     23  H   UNL     1      32.881 -16.272 -23.590  0.00  0.00    +0.155 HD
BRANCH  21  25
ATOM     24  F   UNL     1      32.335 -14.752 -21.313  0.00  0.00    -0.203 F 
ATOM     25  C   UNL     1      33.498 -14.333 -23.341  0.00  0.00    +0.078 C 
ATOM     26  C   UNL     1      32.815 -13.890 -22.221  0.00  0.00    +0.155 C 
ATOM     27  C   UNL     1      33.996 -13.446 -24.281  0.00  0.00    +0.018 C 
ATOM     28  C   UNL     1      33.116 -11.614 -22.974  0.00  0.00    +0.061 C 
ATOM     29  C   UNL     1      32.622 -12.520 -22.036  0.00  0.00    +0.046 C 
ATOM     30  C   UNL     1      33.803 -12.077 -24.097  0.00  0.00    +0.017 C 
BRANCH  28  32
ATOM     31  O   UNL     1      30.733 -10.395 -21.879  0.00  0.00    -0.269 OA
ATOM     32  N   UNL     1      32.915 -10.191 -22.782  0.00  0.00    -0.233 N 
ATOM     33  C   UNL     1      31.711  -9.720 -22.196  0.00  0.00    +0.257 C 
ATOM     34  C   UNL     1      33.888  -9.277 -23.190  0.00  0.00    +0.072 C 
ATOM     35  C   UNL     1      31.605  -8.242 -21.991  0.00  0.00    +0.059 C 
ATOM     36  C   UNL     1      33.755  -7.957 -23.025  0.00  0.00    +0.017 C 
ATOM     37  C   UNL     1      32.580  -7.427 -22.400  0.00  0.00    +0.006 C 
ENDBRANCH  28  32
ENDBRANCH  21  25
ENDBRANCH   1  22
TORSDOF 7
ENDMDL
MODEL 8
REMARK VINA RESULT:     -10.4      4.347      6.551
REMARK  Name = 11979006
REMARK  7 active torsions:
REMARK  status: ('A' for Active; 'I' for Inactive)
REMARK    1  A    between atoms: C_1  and  N_2
REMARK    2  A    between atoms: C_1  and  C_22
REMARK    3  A    between atoms: C_3  and  N_9
REMARK    4  A    between atoms: C_4  and  O_18
REMARK    5  A    between atoms: C_10  and  C_14
REMARK    6  A    between atoms: N_21  and  C_25
REMARK    7  A    between atoms: C_28  and  N_32
REMARK                            x       y       z     vdW  Elec       q    Type
REMARK                         _______ _______ _______ _____ _____    ______ ____
ROOT
ATOM      1  C   UNL     1      37.211 -23.705 -15.488  0.00  0.00    +0.010 C 
ENDROOT
BRANCH   1   2
ATOM      2  N   UNL     1      36.023 -24.303 -14.898  0.00  0.00    +0.396 N 
ATOM      3  C   UNL     1      33.727 -24.517 -14.742  0.00  0.00    +0.076 C 
ATOM      4  C   UNL     1      34.238 -24.081 -13.366  0.00  0.00    +0.106 C 
ATOM      5  C   UNL     1      34.822 -24.071 -15.701  0.00  0.00    -0.054 C 
ATOM      6  C   UNL     1      35.719 -23.757 -13.570  0.00  0.00    -0.045 C 
ATOM      7  H   UNL     1      36.246 -25.297 -14.848  0.00  0.00    -0.079 HD
BRANCH   3   9
ATOM      8  O   UNL     1      31.218 -25.521 -13.936  0.00  0.00    -0.270 OA
ATOM      9  N   UNL     1      32.450 -23.941 -15.062  0.00  0.00    -0.302 N 
ATOM     10  C   UNL     1      31.246 -24.499 -14.624  0.00  0.00    +0.252 C 
ATOM     11  H   UNL     1      32.421 -23.124 -15.610  0.00  0.00    +0.150 HD
BRANCH  10  14
ATOM     12 CL   UNL     1      26.881 -22.717 -17.411  0.00  0.00    -0.075 Cl
ATOM     13  S   UNL     1      29.349 -24.109 -16.522  0.00  0.00    -0.071 S 
ATOM     14  C   UNL     1      30.024 -23.777 -15.007  0.00  0.00    +0.084 C 
ATOM     15  C   UNL     1      29.354 -22.855 -14.280  0.00  0.00    +0.012 C 
ATOM     16  C   UNL     1      28.216 -22.382 -14.995  0.00  0.00    +0.019 C 
ATOM     17  C   UNL     1      28.095 -22.982 -16.229  0.00  0.00    +0.087 C 
ENDBRANCH  10  14
ENDBRANCH   3   9
BRANCH   4  18
ATOM     18  O   UNL     1      34.077 -25.151 -12.445  0.00  0.00    -0.385 OA
ATOM     19  H   UNL     1      33.251 -25.031 -11.951  0.00  0.00    +0.210 HD
ENDBRANCH   4  18
ENDBRANCH   1   2
BRANCH   1  22
ATOM     20  O   UNL     1      36.669 -21.368 -15.743  0.00  0.00    -0.277 OA
ATOM     21  N   UNL     1      36.665 -22.775 -17.622  0.00  0.00    -0.284 N 
ATOM     22  C   UNL     1      36.815 -22.465 -16.272  0.00  0.00    +0.205 C 
ATOM     23  H   UNL     1      36.828 -23.714 -17.873  0.00  0.00    +0.155 HD
BRANCH  21  25
ATOM     24  F   UNL     1      34.066 -22.685 -18.594  0.00  0.00    -0.203 F 
ATOM     25  C   UNL     1      36.306 -21.901 -18.675  0.00  0.00    +0.078 C 
ATOM     26  C   UNL     1      34.999 -21.886 -19.131  0.00  0.00    +0.155 C 
ATOM     27  C   UNL     1      37.274 -21.077 -19.227  0.00  0.00    +0.018 C 
ATOM     28  C   UNL     1      35.611 -20.187 -20.737  0.00  0.00    +0.061 C 
ATOM     29  C   UNL     1      34.648 -21.022 -20.170  0.00  0.00    +0.046 C 
ATOM     30  C   UNL     1      36.924 -20.215 -20.265  0.00  0.00    +0.017 C 
BRANCH  28  32
ATOM     31  O   UNL     1      35.367 -17.313 -20.514  0.00  0.00    -0.269 OA
ATOM     32  N   UNL     1      35.246 -19.290 -21.817  0.00  0.00    -0.233 N 
ATOM     33  C   UNL     1      35.200 -17.890 -21.588  0.00  0.00    +0.257 C 
ATOM     34  C   UNL     1      34.917 -19.795 -23.076  0.00  0.00    +0.072 C 
ATOM     35  C   UNL     1      34.861 -17.035 -22.767  0.00  0.00    +0.059 C 
ATOM     36  C   UNL     1      34.586 -19.011 -24.106  0.00  0.00    +0.017 C 
ATOM     37  C   UNL     1      34.565 -17.587 -23.945  0.00  0.00    +0.006 C 
ENDBRANCH  28  32
ENDBRANCH  21  25
ENDBRANCH   1  22
TORSDOF 7
ENDMDL
MODEL 9
REMARK VINA RESULT:     -10.3      6.464     10.064
REMARK  Name = 11979006
REMARK  7 active torsions:
REMARK  status: ('A' for Active; 'I' for Inactive)
REMARK    1  A    between atoms: C_1  and  N_2
REMARK    2  A    between atoms: C_1  and  C_22
REMARK    3  A    between atoms: C_3  and  N_9
REMARK    4  A    between atoms: C_4  and  O_18
REMARK    5  A    between atoms: C_10  and  C_14
REMARK    6  A    between atoms: N_21  and  C_25
REMARK    7  A    between atoms: C_28  and  N_32
REMARK                            x       y       z     vdW  Elec       q    Type
REMARK                         _______ _______ _______ _____ _____    ______ ____
ROOT
ATOM      1  C   UNL     1      31.991 -12.602 -20.270  0.00  0.00    +0.010 C 
ENDROOT
BRANCH   1   2
ATOM      2  N   UNL     1      32.613 -13.530 -21.202  0.00  0.00    +0.396 N 
ATOM      3  C   UNL     1      33.597 -15.566 -21.681  0.00  0.00    +0.076 C 
ATOM      4  C   UNL     1      34.614 -14.477 -22.028  0.00  0.00    +0.106 C 
ATOM      5  C   UNL     1      32.665 -14.896 -20.681  0.00  0.00    -0.054 C 
ATOM      6  C   UNL     1      34.003 -13.174 -21.508  0.00  0.00    -0.045 C 
ATOM      7  H   UNL     1      32.026 -13.475 -22.034  0.00  0.00    -0.079 HD
BRANCH   3   9
ATOM      8  O   UNL     1      35.011 -17.501 -23.167  0.00  0.00    -0.270 OA
ATOM      9  N   UNL     1      34.216 -16.748 -21.147  0.00  0.00    -0.302 N 
ATOM     10  C   UNL     1      34.902 -17.662 -21.950  0.00  0.00    +0.252 C 
ATOM     11  H   UNL     1      34.155 -16.920 -20.180  0.00  0.00    +0.150 HD
BRANCH  10  14
ATOM     12 CL   UNL     1      35.593 -22.428 -19.343  0.00  0.00    -0.075 Cl
ATOM     13  S   UNL     1      34.490 -20.064 -20.760  0.00  0.00    -0.071 S 
ATOM     14  C   UNL     1      35.508 -18.805 -21.253  0.00  0.00    +0.084 C 
ATOM     15  C   UNL     1      36.813 -18.981 -20.946  0.00  0.00    +0.012 C 
ATOM     16  C   UNL     1      37.006 -20.218 -20.266  0.00  0.00    +0.019 C 
ATOM     17  C   UNL     1      35.825 -20.907 -20.100  0.00  0.00    +0.087 C 
ENDBRANCH  10  14
ENDBRANCH   3   9
BRANCH   4  18
ATOM     18  O   UNL     1      34.787 -14.426 -23.438  0.00  0.00    -0.385 OA
ATOM     19  H   UNL     1      34.365 -15.200 -23.843  0.00  0.00    +0.210 HD
ENDBRANCH   4  18
ENDBRANCH   1   2
BRANCH   1  22
ATOM     20  O   UNL     1      30.335 -11.444 -21.589  0.00  0.00    -0.277 OA
ATOM     21  N   UNL     1      32.326 -10.349 -20.998  0.00  0.00    -0.284 N 
ATOM     22  C   UNL     1      31.431 -11.416 -21.037  0.00  0.00    +0.205 C 
ATOM     23  H   UNL     1      33.163 -10.503 -20.502  0.00  0.00    +0.155 HD
BRANCH  21  25
ATOM     24  F   UNL     1      33.139  -8.048 -19.674  0.00  0.00    -0.203 F 
ATOM     25  C   UNL     1      32.175  -9.072 -21.588  0.00  0.00    +0.078 C 
ATOM     26  C   UNL     1      32.593  -7.948 -20.895  0.00  0.00    +0.155 C 
ATOM     27  C   UNL     1      31.610  -8.974 -22.849  0.00  0.00    +0.018 C 
ATOM     28  C   UNL     1      31.874  -6.574 -22.748  0.00  0.00    +0.061 C 
ATOM     29  C   UNL     1      32.442  -6.691 -21.479  0.00  0.00    +0.046 C 
ATOM     30  C   UNL     1      31.458  -7.717 -23.433  0.00  0.00    +0.017 C 
BRANCH  28  32
ATOM     31  O   UNL     1      30.005  -4.545 -21.882  0.00  0.00    -0.269 OA
ATOM     32  N   UNL     1      31.717  -5.267 -23.354  0.00  0.00    -0.233 N 
ATOM     33  C   UNL     1      30.789  -4.342 -22.809  0.00  0.00    +0.257 C 
ATOM     34  C   UNL     1      32.457  -4.917 -24.486  0.00  0.00    +0.072 C 
ATOM     35  C   UNL     1      30.723  -3.000 -23.466  0.00  0.00    +0.059 C 
ATOM     36  C   UNL     1      32.356  -3.721 -25.075  0.00  0.00    +0.017 C 
ATOM     37  C   UNL     1      31.467  -2.732 -24.542  0.00  0.00    +0.006 C 
ENDBRANCH  28  32
ENDBRANCH  21  25
ENDBRANCH   1  22
TORSDOF 7
ENDMDL
