MODEL 1
REMARK VINA RESULT:     -11.8      0.000      0.000
REMARK  Name = 9865515
REMARK  6 active torsions:
REMARK  status: ('A' for Active; 'I' for Inactive)
REMARK    1  A    between atoms: C_1  and  C_20
REMARK    2  A    between atoms: C_2  and  C_9
REMARK    3  A    between atoms: N_8  and  C_11
REMARK    4  A    between atoms: C_12  and  N_17
REMARK    5  A    between atoms: C_20  and  N_21
REMARK    6  A    between atoms: C_25  and  C_30
REMARK                            x       y       z     vdW  Elec       q    Type
REMARK                         _______ _______ _______ _____ _____    ______ ____
ROOT
ATOM      1  C   UNL     1      34.506 -22.382 -18.905  0.00  0.00    -0.002 C 
ATOM      2  C   UNL     1      35.132 -20.137 -20.438  0.00  0.00    +0.054 C 
ATOM      3  C   UNL     1      33.486 -21.622 -19.478  0.00  0.00    -0.002 C 
ATOM      4  C   UNL     1      35.839 -22.019 -19.098  0.00  0.00    -0.002 C 
ATOM      5  C   UNL     1      33.799 -20.499 -20.244  0.00  0.00    +0.004 C 
ATOM      6  C   UNL     1      36.151 -20.897 -19.864  0.00  0.00    +0.004 C 
ENDROOT
BRANCH   2   9
ATOM      7  O   UNL     1      36.514 -18.953 -21.886  0.00  0.00    -0.270 OA
ATOM      8  N   UNL     1      34.512 -17.930 -21.216  0.00  0.00    -0.279 N 
ATOM      9  C   UNL     1      35.458 -18.964 -21.234  0.00  0.00    +0.250 C 
ATOM     10  H   UNL     1      33.722 -18.083 -20.649  0.00  0.00    +0.155 HD
BRANCH   8  11
ATOM     11  C   UNL     1      34.546 -16.693 -21.905  0.00  0.00    +0.064 C 
ATOM     12  C   UNL     1      34.662 -16.665 -23.285  0.00  0.00    +0.055 C 
ATOM     13  C   UNL     1      34.462 -15.525 -21.165  0.00  0.00    +0.016 C 
ATOM     14  C   UNL     1      34.694 -15.434 -23.943  0.00  0.00    +0.015 C 
ATOM     15  C   UNL     1      34.494 -14.295 -21.821  0.00  0.00    +0.001 C 
ATOM     16  C   UNL     1      34.610 -14.250 -23.211  0.00  0.00    +0.001 C 
BRANCH  12  17
ATOM     17  N   UNL     1      34.746 -17.851 -24.046  0.00  0.00    -0.356 N 
ATOM     18  H   UNL     1      35.608 -18.128 -24.433  0.00  0.00    +0.142 HD
ATOM     19  H   UNL     1      33.943 -18.403 -24.190  0.00  0.00    +0.142 HD
ENDBRANCH  12  17
ENDBRANCH   8  11
ENDBRANCH   2   9
BRANCH   1  20
ATOM     20  C   UNL     1      34.172 -23.584 -18.086  0.00  0.00    +0.124 C 
BRANCH  20  21
ATOM     21  N   UNL     1      32.996 -23.348 -17.277  0.00  0.00    -0.264 N 
ATOM     22  N   UNL     1      34.025 -24.184 -15.341  0.00  0.00    -0.338 NA
ATOM     23  N   UNL     1      31.758 -23.370 -15.284  0.00  0.00    -0.170 NA
ATOM     24  C   UNL     1      32.924 -23.643 -15.927  0.00  0.00    +0.145 C 
ATOM     25  C   UNL     1      33.920 -24.459 -14.025  0.00  0.00    +0.147 C 
ATOM     26  C   UNL     1      32.783 -24.222 -13.280  0.00  0.00    +0.055 C 
ATOM     27  C   UNL     1      31.722 -23.671 -13.969  0.00  0.00    +0.114 C 
ATOM     28  H   UNL     1      32.204 -22.956 -17.711  0.00  0.00    +0.160 HD
BRANCH  25  30
ATOM     29  N   UNL     1      36.322 -25.607 -11.417  0.00  0.00    -0.242 NA
ATOM     30  C   UNL     1      35.100 -25.032 -13.422  0.00  0.00    +0.050 C 
ATOM     31  C   UNL     1      36.128 -25.548 -14.205  0.00  0.00    +0.006 C 
ATOM     32  C   UNL     1      35.245 -25.086 -12.045  0.00  0.00    +0.101 C 
ATOM     33  C   UNL     1      37.252 -26.093 -13.595  0.00  0.00    +0.021 C 
ATOM     34  C   UNL     1      37.300 -26.099 -12.210  0.00  0.00    +0.099 C 
ENDBRANCH  25  30
ENDBRANCH  20  21
ENDBRANCH   1  20
TORSDOF 6
ENDMDL
MODEL 2
REMARK VINA RESULT:     -11.6      1.946      4.292
REMARK  Name = 9865515
REMARK  6 active torsions:
REMARK  status: ('A' for Active; 'I' for Inactive)
REMARK    1  A    between atoms: C_1  and  C_20
REMARK    2  A    between atoms: C_2  and  C_9
REMARK    3  A    between atoms: N_8  and  C_11
REMARK    4  A    between atoms: C_12  and  N_17
REMARK    5  A    between atoms: C_20  and  N_21
REMARK    6  A    between atoms: C_25  and  C_30
REMARK                            x       y       z     vdW  Elec       q    Type
REMARK                         _______ _______ _______ _____ _____    ______ ____
ROOT
ATOM      1  C   UNL     1      34.267 -22.546 -19.116  0.00  0.00    -0.002 C 
ATOM      2  C   UNL     1      34.993 -20.160 -20.365  0.00  0.00    +0.054 C 
ATOM      3  C   UNL     1      35.614 -22.209 -19.248  0.00  0.00    -0.002 C 
ATOM      4  C   UNL     1      33.283 -21.689 -19.608  0.00  0.00    -0.002 C 
ATOM      5  C   UNL     1      35.978 -21.017 -19.873  0.00  0.00    +0.004 C 
ATOM      6  C   UNL     1      33.646 -20.497 -20.233  0.00  0.00    +0.004 C 
ENDROOT
BRANCH   2   9
ATOM      7  O   UNL     1      36.514 -18.811 -21.498  0.00  0.00    -0.270 OA
ATOM      8  N   UNL     1      34.380 -17.930 -21.078  0.00  0.00    -0.279 N 
ATOM      9  C   UNL     1      35.372 -18.918 -21.020  0.00  0.00    +0.250 C 
ATOM     10  H   UNL     1      33.522 -18.159 -20.654  0.00  0.00    +0.155 HD
BRANCH   8  11
ATOM     11  C   UNL     1      34.451 -16.643 -21.669  0.00  0.00    +0.064 C 
ATOM     12  C   UNL     1      34.689 -16.510 -23.027  0.00  0.00    +0.055 C 
ATOM     13  C   UNL     1      34.278 -15.536 -20.854  0.00  0.00    +0.016 C 
ATOM     14  C   UNL     1      34.755 -15.233 -23.585  0.00  0.00    +0.015 C 
ATOM     15  C   UNL     1      34.344 -14.260 -21.412  0.00  0.00    +0.001 C 
ATOM     16  C   UNL     1      34.583 -14.108 -22.779  0.00  0.00    +0.001 C 
BRANCH  12  17
ATOM     17  N   UNL     1      34.865 -17.634 -23.863  0.00  0.00    -0.356 N 
ATOM     18  H   UNL     1      35.574 -17.634 -24.545  0.00  0.00    +0.142 HD
ATOM     19  H   UNL     1      34.278 -18.419 -23.763  0.00  0.00    +0.142 HD
ENDBRANCH  12  17
ENDBRANCH   8  11
ENDBRANCH   2   9
BRANCH   1  20
ATOM     20  C   UNL     1      33.878 -23.821 -18.445  0.00  0.00    +0.124 C 
BRANCH  20  21
ATOM     21  N   UNL     1      34.265 -23.811 -17.051  0.00  0.00    -0.264 N 
ATOM     22  N   UNL     1      32.051 -23.538 -16.323  0.00  0.00    -0.338 NA
ATOM     23  N   UNL     1      33.864 -23.680 -14.743  0.00  0.00    -0.170 NA
ATOM     24  C   UNL     1      33.366 -23.672 -16.008  0.00  0.00    +0.145 C 
ATOM     25  C   UNL     1      31.203 -23.406 -15.283  0.00  0.00    +0.147 C 
ATOM     26  C   UNL     1      31.605 -23.400 -13.962  0.00  0.00    +0.055 C 
ATOM     27  C   UNL     1      32.961 -23.542 -13.750  0.00  0.00    +0.114 C 
ATOM     28  H   UNL     1      35.220 -23.908 -16.833  0.00  0.00    +0.160 HD
BRANCH  25  30
ATOM     29  N   UNL     1      28.055 -23.582 -17.269  0.00  0.00    -0.242 NA
ATOM     30  C   UNL     1      29.811 -23.265 -15.639  0.00  0.00    +0.050 C 
ATOM     31  C   UNL     1      28.897 -22.704 -14.753  0.00  0.00    +0.006 C 
ATOM     32  C   UNL     1      29.343 -23.685 -16.873  0.00  0.00    +0.101 C 
ATOM     33  C   UNL     1      27.563 -22.581 -15.125  0.00  0.00    +0.021 C 
ATOM     34  C   UNL     1      27.196 -23.031 -16.383  0.00  0.00    +0.099 C 
ENDBRANCH  25  30
ENDBRANCH  20  21
ENDBRANCH   1  20
TORSDOF 6
ENDMDL
MODEL 3
REMARK VINA RESULT:     -11.6      0.742      1.604
REMARK  Name = 9865515
REMARK  6 active torsions:
REMARK  status: ('A' for Active; 'I' for Inactive)
REMARK    1  A    between atoms: C_1  and  C_20
REMARK    2  A    between atoms: C_2  and  C_9
REMARK    3  A    between atoms: N_8  and  C_11
REMARK    4  A    between atoms: C_12  and  N_17
REMARK    5  A    between atoms: C_20  and  N_21
REMARK    6  A    between atoms: C_25  and  C_30
REMARK                            x       y       z     vdW  Elec       q    Type
REMARK                         _______ _______ _______ _____ _____    ______ ____
ROOT
ATOM      1  C   UNL     1      34.628 -22.248 -18.776  0.00  0.00    -0.002 C 
ATOM      2  C   UNL     1      34.723 -20.234 -20.704  0.00  0.00    +0.054 C 
ATOM      3  C   UNL     1      35.858 -21.786 -19.243  0.00  0.00    -0.002 C 
ATOM      4  C   UNL     1      33.444 -21.703 -19.274  0.00  0.00    -0.002 C 
ATOM      5  C   UNL     1      35.906 -20.780 -20.207  0.00  0.00    +0.004 C 
ATOM      6  C   UNL     1      33.492 -20.696 -20.237  0.00  0.00    +0.004 C 
ENDROOT
BRANCH   2   9
ATOM      7  O   UNL     1      34.912 -19.502 -22.904  0.00  0.00    -0.270 OA
ATOM      8  N   UNL     1      34.629 -17.875 -21.238  0.00  0.00    -0.279 N 
ATOM      9  C   UNL     1      34.772 -19.186 -21.712  0.00  0.00    +0.250 C 
ATOM     10  H   UNL     1      34.527 -17.781 -20.264  0.00  0.00    +0.155 HD
BRANCH   8  11
ATOM     11  C   UNL     1      34.612 -16.667 -21.979  0.00  0.00    +0.064 C 
ATOM     12  C   UNL     1      34.280 -15.472 -21.361  0.00  0.00    +0.055 C 
ATOM     13  C   UNL     1      34.932 -16.718 -23.326  0.00  0.00    +0.016 C 
ATOM     14  C   UNL     1      34.270 -14.296 -22.112  0.00  0.00    +0.015 C 
ATOM     15  C   UNL     1      34.922 -15.543 -24.076  0.00  0.00    +0.001 C 
ATOM     16  C   UNL     1      34.590 -14.331 -23.469  0.00  0.00    +0.001 C 
BRANCH  12  17
ATOM     17  N   UNL     1      33.954 -15.413 -19.989  0.00  0.00    -0.356 N 
ATOM     18  H   UNL     1      33.125 -14.968 -19.698  0.00  0.00    +0.142 HD
ATOM     19  H   UNL     1      34.555 -15.818 -19.321  0.00  0.00    +0.142 HD
ENDBRANCH  12  17
ENDBRANCH   8  11
ENDBRANCH   2   9
BRANCH   1  20
ATOM     20  C   UNL     1      34.576 -23.324 -17.743  0.00  0.00    +0.124 C 
BRANCH  20  21
ATOM     21  N   UNL     1      33.348 -23.250 -16.982  0.00  0.00    -0.264 N 
ATOM     22  N   UNL     1      34.330 -24.241 -15.094  0.00  0.00    -0.338 NA
ATOM     23  N   UNL     1      32.015 -23.572 -15.078  0.00  0.00    -0.170 NA
ATOM     24  C   UNL     1      33.228 -23.702 -15.679  0.00  0.00    +0.145 C 
ATOM     25  C   UNL     1      34.177 -24.670 -13.825  0.00  0.00    +0.147 C 
ATOM     26  C   UNL     1      32.990 -24.586 -13.125  0.00  0.00    +0.055 C 
ATOM     27  C   UNL     1      31.932 -24.023 -13.808  0.00  0.00    +0.114 C 
ATOM     28  H   UNL     1      32.555 -22.858 -17.414  0.00  0.00    +0.160 HD
BRANCH  25  30
ATOM     29  N   UNL     1      36.632 -25.716 -11.224  0.00  0.00    -0.242 NA
ATOM     30  C   UNL     1      35.359 -25.239 -13.223  0.00  0.00    +0.050 C 
ATOM     31  C   UNL     1      36.343 -25.840 -14.001  0.00  0.00    +0.006 C 
ATOM     32  C   UNL     1      35.550 -25.204 -11.851  0.00  0.00    +0.101 C 
ATOM     33  C   UNL     1      37.471 -26.379 -13.393  0.00  0.00    +0.021 C 
ATOM     34  C   UNL     1      37.567 -26.292 -12.013  0.00  0.00    +0.099 C 
ENDBRANCH  25  30
ENDBRANCH  20  21
ENDBRANCH   1  20
TORSDOF 6
ENDMDL
MODEL 4
REMARK VINA RESULT:     -11.5      4.985      8.931
REMARK  Name = 9865515
REMARK  6 active torsions:
REMARK  status: ('A' for Active; 'I' for Inactive)
REMARK    1  A    between atoms: C_1  and  C_20
REMARK    2  A    between atoms: C_2  and  C_9
REMARK    3  A    between atoms: N_8  and  C_11
REMARK    4  A    between atoms: C_12  and  N_17
REMARK    5  A    between atoms: C_20  and  N_21
REMARK    6  A    between atoms: C_25  and  C_30
REMARK                            x       y       z     vdW  Elec       q    Type
REMARK                         _______ _______ _______ _____ _____    ______ ____
ROOT
ATOM      1  C   UNL     1      33.495 -14.534 -20.852  0.00  0.00    -0.002 C 
ATOM      2  C   UNL     1      32.177 -12.121 -21.320  0.00  0.00    +0.054 C 
ATOM      3  C   UNL     1      32.587 -14.042 -19.915  0.00  0.00    -0.002 C 
ATOM      4  C   UNL     1      33.744 -13.820 -22.024  0.00  0.00    -0.002 C 
ATOM      5  C   UNL     1      31.929 -12.835 -20.148  0.00  0.00    +0.004 C 
ATOM      6  C   UNL     1      33.085 -12.613 -22.257  0.00  0.00    +0.004 C 
ENDROOT
BRANCH   2   9
ATOM      7  O   UNL     1      30.264 -10.867 -21.745  0.00  0.00    -0.270 OA
ATOM      8  N   UNL     1      32.298  -9.713 -21.542  0.00  0.00    -0.279 N 
ATOM      9  C   UNL     1      31.492 -10.860 -21.562  0.00  0.00    +0.250 C 
ATOM     10  H   UNL     1      33.257  -9.866 -21.385  0.00  0.00    +0.155 HD
BRANCH   8  11
ATOM     11  C   UNL     1      31.910  -8.361 -21.719  0.00  0.00    +0.064 C 
ATOM     12  C   UNL     1      32.258  -7.406 -20.778  0.00  0.00    +0.055 C 
ATOM     13  C   UNL     1      31.179  -8.030 -22.848  0.00  0.00    +0.016 C 
ATOM     14  C   UNL     1      31.865  -6.081 -20.974  0.00  0.00    +0.015 C 
ATOM     15  C   UNL     1      30.786  -6.706 -23.043  0.00  0.00    +0.001 C 
ATOM     16  C   UNL     1      31.129  -5.731 -22.106  0.00  0.00    +0.001 C 
BRANCH  12  17
ATOM     17  N   UNL     1      33.004  -7.737 -19.626  0.00  0.00    -0.356 N 
ATOM     18  H   UNL     1      33.277  -8.669 -19.467  0.00  0.00    +0.142 HD
ATOM     19  H   UNL     1      33.251  -7.035 -18.981  0.00  0.00    +0.142 HD
ENDBRANCH  12  17
ENDBRANCH   8  11
ENDBRANCH   2   9
BRANCH   1  20
ATOM     20  C   UNL     1      34.198 -15.826 -20.604  0.00  0.00    +0.124 C 
BRANCH  20  21
ATOM     21  N   UNL     1      34.763 -16.351 -21.829  0.00  0.00    -0.264 N 
ATOM     22  N   UNL     1      34.629 -18.568 -21.071  0.00  0.00    -0.338 NA
ATOM     23  N   UNL     1      35.513 -18.058 -23.254  0.00  0.00    -0.170 NA
ATOM     24  C   UNL     1      34.975 -17.700 -22.057  0.00  0.00    +0.145 C 
ATOM     25  C   UNL     1      34.849 -19.874 -21.328  0.00  0.00    +0.147 C 
ATOM     26  C   UNL     1      35.390 -20.343 -22.507  0.00  0.00    +0.055 C 
ATOM     27  C   UNL     1      35.706 -19.380 -23.444  0.00  0.00    +0.114 C 
ATOM     28  H   UNL     1      35.010 -15.714 -22.537  0.00  0.00    +0.160 HD
BRANCH  25  30
ATOM     29  N   UNL     1      32.734 -21.751 -18.900  0.00  0.00    -0.242 NA
ATOM     30  C   UNL     1      34.475 -20.779 -20.267  0.00  0.00    +0.050 C 
ATOM     31  C   UNL     1      35.432 -21.535 -19.598  0.00  0.00    +0.006 C 
ATOM     32  C   UNL     1      33.151 -20.923 -19.883  0.00  0.00    +0.101 C 
ATOM     33  C   UNL     1      35.042 -22.398 -18.581  0.00  0.00    +0.021 C 
ATOM     34  C   UNL     1      33.692 -22.469 -18.272  0.00  0.00    +0.099 C 
ENDBRANCH  25  30
ENDBRANCH  20  21
ENDBRANCH   1  20
TORSDOF 6
ENDMDL
MODEL 5
REMARK VINA RESULT:     -11.4      1.878      3.465
REMARK  Name = 9865515
REMARK  6 active torsions:
REMARK  status: ('A' for Active; 'I' for Inactive)
REMARK    1  A    between atoms: C_1  and  C_20
REMARK    2  A    between atoms: C_2  and  C_9
REMARK    3  A    between atoms: N_8  and  C_11
REMARK    4  A    between atoms: C_12  and  N_17
REMARK    5  A    between atoms: C_20  and  N_21
REMARK    6  A    between atoms: C_25  and  C_30
REMARK                            x       y       z     vdW  Elec       q    Type
REMARK                         _______ _______ _______ _____ _____    ______ ____
ROOT
ATOM      1  C   UNL     1      35.303 -21.177 -19.801  0.00  0.00    -0.002 C 
ATOM      2  C   UNL     1      35.097 -18.795 -21.237  0.00  0.00    +0.054 C 
ATOM      3  C   UNL     1      36.455 -20.483 -20.169  0.00  0.00    -0.002 C 
ATOM      4  C   UNL     1      34.048 -20.681 -20.151  0.00  0.00    -0.002 C 
ATOM      5  C   UNL     1      36.353 -19.293 -20.888  0.00  0.00    +0.004 C 
ATOM      6  C   UNL     1      33.945 -19.490 -20.869  0.00  0.00    +0.004 C 
ENDROOT
BRANCH   2   9
ATOM      7  O   UNL     1      35.562 -17.464 -23.088  0.00  0.00    -0.270 OA
ATOM      8  N   UNL     1      34.209 -16.550 -21.403  0.00  0.00    -0.279 N 
ATOM      9  C   UNL     1      34.990 -17.555 -21.990  0.00  0.00    +0.250 C 
ATOM     10  H   UNL     1      33.818 -16.768 -20.527  0.00  0.00    +0.155 HD
BRANCH   8  11
ATOM     11  C   UNL     1      33.907 -15.261 -21.909  0.00  0.00    +0.064 C 
ATOM     12  C   UNL     1      32.996 -14.449 -21.254  0.00  0.00    +0.055 C 
ATOM     13  C   UNL     1      34.545 -14.843 -23.066  0.00  0.00    +0.016 C 
ATOM     14  C   UNL     1      32.714 -13.183 -21.771  0.00  0.00    +0.015 C 
ATOM     15  C   UNL     1      34.264 -13.579 -23.582  0.00  0.00    +0.001 C 
ATOM     16  C   UNL     1      33.348 -12.748 -22.935  0.00  0.00    +0.001 C 
BRANCH  12  17
ATOM     17  N   UNL     1      32.343 -14.868 -20.074  0.00  0.00    -0.356 N 
ATOM     18  H   UNL     1      31.739 -15.645 -20.095  0.00  0.00    +0.142 HD
ATOM     19  H   UNL     1      32.493 -14.384 -19.230  0.00  0.00    +0.142 HD
ENDBRANCH  12  17
ENDBRANCH   8  11
ENDBRANCH   2   9
BRANCH   1  20
ATOM     20  C   UNL     1      35.412 -22.451 -19.030  0.00  0.00    +0.124 C 
BRANCH  20  21
ATOM     21  N   UNL     1      36.472 -22.372 -18.049  0.00  0.00    -0.264 N 
ATOM     22  N   UNL     1      35.083 -23.146 -16.323  0.00  0.00    -0.338 NA
ATOM     23  N   UNL     1      37.390 -22.594 -15.901  0.00  0.00    -0.170 NA
ATOM     24  C   UNL     1      36.310 -22.714 -16.718  0.00  0.00    +0.145 C 
ATOM     25  C   UNL     1      34.961 -23.471 -15.020  0.00  0.00    +0.147 C 
ATOM     26  C   UNL     1      35.993 -23.384 -14.108  0.00  0.00    +0.055 C 
ATOM     27  C   UNL     1      37.197 -22.935 -14.610  0.00  0.00    +0.114 C 
ATOM     28  H   UNL     1      37.357 -22.058 -18.345  0.00  0.00    +0.160 HD
BRANCH  25  30
ATOM     29  N   UNL     1      32.281 -25.161 -13.058  0.00  0.00    -0.242 NA
ATOM     30  C   UNL     1      33.650 -23.927 -14.622  0.00  0.00    +0.050 C 
ATOM     31  C   UNL     1      32.521 -23.604 -15.367  0.00  0.00    +0.006 C 
ATOM     32  C   UNL     1      33.478 -24.701 -13.485  0.00  0.00    +0.101 C 
ATOM     33  C   UNL     1      31.272 -24.059 -14.958  0.00  0.00    +0.021 C 
ATOM     34  C   UNL     1      31.206 -24.827 -13.807  0.00  0.00    +0.099 C 
ENDBRANCH  25  30
ENDBRANCH  20  21
ENDBRANCH   1  20
TORSDOF 6
ENDMDL
MODEL 6
REMARK VINA RESULT:     -11.1      1.578      3.480
REMARK  Name = 9865515
REMARK  6 active torsions:
REMARK  status: ('A' for Active; 'I' for Inactive)
REMARK    1  A    between atoms: C_1  and  C_20
REMARK    2  A    between atoms: C_2  and  C_9
REMARK    3  A    between atoms: N_8  and  C_11
REMARK    4  A    between atoms: C_12  and  N_17
REMARK    5  A    between atoms: C_20  and  N_21
REMARK    6  A    between atoms: C_25  and  C_30
REMARK                            x       y       z     vdW  Elec       q    Type
REMARK                         _______ _______ _______ _____ _____    ______ ____
ROOT
ATOM      1  C   UNL     1      34.772 -21.949 -19.286  0.00  0.00    -0.002 C 
ATOM      2  C   UNL     1      35.252 -19.663 -20.809  0.00  0.00    +0.054 C 
ATOM      3  C   UNL     1      33.705 -21.245 -19.843  0.00  0.00    -0.002 C 
ATOM      4  C   UNL     1      36.080 -21.510 -19.491  0.00  0.00    -0.002 C 
ATOM      5  C   UNL     1      33.944 -20.102 -20.604  0.00  0.00    +0.004 C 
ATOM      6  C   UNL     1      36.320 -20.367 -20.252  0.00  0.00    +0.004 C 
ENDROOT
BRANCH   2   9
ATOM      7  O   UNL     1      36.559 -18.383 -22.247  0.00  0.00    -0.270 OA
ATOM      8  N   UNL     1      34.488 -17.500 -21.585  0.00  0.00    -0.279 N 
ATOM      9  C   UNL     1      35.502 -18.468 -21.601  0.00  0.00    +0.250 C 
ATOM     10  H   UNL     1      33.707 -17.709 -21.023  0.00  0.00    +0.155 HD
BRANCH   8  11
ATOM     11  C   UNL     1      34.442 -16.261 -22.271  0.00  0.00    +0.064 C 
ATOM     12  C   UNL     1      34.308 -15.076 -21.566  0.00  0.00    +0.055 C 
ATOM     13  C   UNL     1      34.532 -16.272 -23.653  0.00  0.00    +0.016 C 
ATOM     14  C   UNL     1      34.264 -13.869 -22.263  0.00  0.00    +0.015 C 
ATOM     15  C   UNL     1      34.487 -15.065 -24.350  0.00  0.00    +0.001 C 
ATOM     16  C   UNL     1      34.353 -13.863 -23.655  0.00  0.00    +0.001 C 
BRANCH  12  17
ATOM     17  N   UNL     1      34.217 -15.059 -20.157  0.00  0.00    -0.356 N 
ATOM     18  H   UNL     1      34.523 -14.270 -19.653  0.00  0.00    +0.142 HD
ATOM     19  H   UNL     1      33.848 -15.835 -19.677  0.00  0.00    +0.142 HD
ENDBRANCH  12  17
ENDBRANCH   8  11
ENDBRANCH   2   9
BRANCH   1  20
ATOM     20  C   UNL     1      34.517 -23.174 -18.473  0.00  0.00    +0.124 C 
BRANCH  20  21
ATOM     21  N   UNL     1      35.306 -23.164 -17.261  0.00  0.00    -0.264 N 
ATOM     22  N   UNL     1      33.483 -23.820 -15.936  0.00  0.00    -0.338 NA
ATOM     23  N   UNL     1      35.650 -23.433 -14.955  0.00  0.00    -0.170 NA
ATOM     24  C   UNL     1      34.797 -23.482 -16.013  0.00  0.00    +0.145 C 
ATOM     25  C   UNL     1      33.021 -24.123 -14.706  0.00  0.00    +0.147 C 
ATOM     26  C   UNL     1      33.801 -24.104 -13.568  0.00  0.00    +0.055 C 
ATOM     27  C   UNL     1      35.121 -23.749 -13.754  0.00  0.00    +0.114 C 
ATOM     28  H   UNL     1      36.257 -22.918 -17.327  0.00  0.00    +0.160 HD
BRANCH  25  30
ATOM     29  N   UNL     1      29.386 -24.216 -15.523  0.00  0.00    -0.242 NA
ATOM     30  C   UNL     1      31.623 -24.480 -14.646  0.00  0.00    +0.050 C 
ATOM     31  C   UNL     1      31.154 -25.388 -13.703  0.00  0.00    +0.006 C 
ATOM     32  C   UNL     1      30.706 -23.927 -15.526  0.00  0.00    +0.101 C 
ATOM     33  C   UNL     1      29.803 -25.711 -13.669  0.00  0.00    +0.021 C 
ATOM     34  C   UNL     1      28.967 -25.103 -14.592  0.00  0.00    +0.099 C 
ENDBRANCH  25  30
ENDBRANCH  20  21
ENDBRANCH   1  20
TORSDOF 6
ENDMDL
MODEL 7
REMARK VINA RESULT:     -11.1      2.410     11.390
REMARK  Name = 9865515
REMARK  6 active torsions:
REMARK  status: ('A' for Active; 'I' for Inactive)
REMARK    1  A    between atoms: C_1  and  C_20
REMARK    2  A    between atoms: C_2  and  C_9
REMARK    3  A    between atoms: N_8  and  C_11
REMARK    4  A    between atoms: C_12  and  N_17
REMARK    5  A    between atoms: C_20  and  N_21
REMARK    6  A    between atoms: C_25  and  C_30
REMARK                            x       y       z     vdW  Elec       q    Type
REMARK                         _______ _______ _______ _____ _____    ______ ____
ROOT
ATOM      1  C   UNL     1      35.732 -18.887 -21.270  0.00  0.00    -0.002 C 
ATOM      2  C   UNL     1      35.371 -21.121 -19.639  0.00  0.00    +0.054 C 
ATOM      3  C   UNL     1      36.828 -19.471 -20.633  0.00  0.00    -0.002 C 
ATOM      4  C   UNL     1      34.456 -19.421 -21.090  0.00  0.00    -0.002 C 
ATOM      5  C   UNL     1      36.647 -20.587 -19.817  0.00  0.00    +0.004 C 
ATOM      6  C   UNL     1      34.276 -20.538 -20.275  0.00  0.00    +0.004 C 
ENDROOT
BRANCH   2   9
ATOM      7  O   UNL     1      34.703 -23.319 -19.275  0.00  0.00    -0.270 OA
ATOM      8  N   UNL     1      35.595 -22.139 -17.454  0.00  0.00    -0.279 N 
ATOM      9  C   UNL     1      35.183 -22.284 -18.785  0.00  0.00    +0.250 C 
ATOM     10  H   UNL     1      35.957 -21.256 -17.212  0.00  0.00    +0.155 HD
BRANCH   8  11
ATOM     11  C   UNL     1      35.558 -23.097 -16.410  0.00  0.00    +0.064 C 
ATOM     12  C   UNL     1      36.728 -23.494 -15.784  0.00  0.00    +0.055 C 
ATOM     13  C   UNL     1      34.329 -23.620 -16.042  0.00  0.00    +0.016 C 
ATOM     14  C   UNL     1      36.667 -24.439 -14.759  0.00  0.00    +0.015 C 
ATOM     15  C   UNL     1      34.268 -24.565 -15.018  0.00  0.00    +0.001 C 
ATOM     16  C   UNL     1      35.437 -24.975 -14.377  0.00  0.00    +0.001 C 
BRANCH  12  17
ATOM     17  N   UNL     1      37.983 -22.964 -16.154  0.00  0.00    -0.356 N 
ATOM     18  H   UNL     1      38.179 -22.777 -17.100  0.00  0.00    +0.142 HD
ATOM     19  H   UNL     1      38.663 -22.781 -15.465  0.00  0.00    +0.142 HD
ENDBRANCH  12  17
ENDBRANCH   8  11
ENDBRANCH   2   9
BRANCH   1  20
ATOM     20  C   UNL     1      35.925 -17.693 -22.144  0.00  0.00    +0.124 C 
BRANCH  20  21
ATOM     21  N   UNL     1      35.378 -17.926 -23.464  0.00  0.00    -0.264 N 
ATOM     22  N   UNL     1      34.361 -15.812 -23.536  0.00  0.00    -0.338 NA
ATOM     23  N   UNL     1      34.158 -17.346 -25.382  0.00  0.00    -0.170 NA
ATOM     24  C   UNL     1      34.609 -17.000 -24.147  0.00  0.00    +0.145 C 
ATOM     25  C   UNL     1      33.609 -14.934 -24.230  0.00  0.00    +0.147 C 
ATOM     26  C   UNL     1      33.102 -15.186 -25.489  0.00  0.00    +0.055 C 
ATOM     27  C   UNL     1      33.412 -16.421 -26.021  0.00  0.00    +0.114 C 
ATOM     28  H   UNL     1      35.564 -18.789 -23.898  0.00  0.00    +0.160 HD
BRANCH  25  30
ATOM     29  N   UNL     1      32.279 -12.478 -21.763  0.00  0.00    -0.242 NA
ATOM     30  C   UNL     1      33.357 -13.679 -23.562  0.00  0.00    +0.050 C 
ATOM     31  C   UNL     1      33.910 -12.493 -24.033  0.00  0.00    +0.006 C 
ATOM     32  C   UNL     1      32.555 -13.618 -22.434  0.00  0.00    +0.101 C 
ATOM     33  C   UNL     1      33.648 -11.299 -23.370  0.00  0.00    +0.021 C 
ATOM     34  C   UNL     1      32.834 -11.345 -22.249  0.00  0.00    +0.099 C 
ENDBRANCH  25  30
ENDBRANCH  20  21
ENDBRANCH   1  20
TORSDOF 6
ENDMDL
MODEL 8
REMARK VINA RESULT:     -11.0      2.248     10.943
REMARK  Name = 9865515
REMARK  6 active torsions:
REMARK  status: ('A' for Active; 'I' for Inactive)
REMARK    1  A    between atoms: C_1  and  C_20
REMARK    2  A    between atoms: C_2  and  C_9
REMARK    3  A    between atoms: N_8  and  C_11
REMARK    4  A    between atoms: C_12  and  N_17
REMARK    5  A    between atoms: C_20  and  N_21
REMARK    6  A    between atoms: C_25  and  C_30
REMARK                            x       y       z     vdW  Elec       q    Type
REMARK                         _______ _______ _______ _____ _____    ______ ____
ROOT
ATOM      1  C   UNL     1      35.696 -19.428 -20.946  0.00  0.00    -0.002 C 
ATOM      2  C   UNL     1      34.624 -21.540 -19.474  0.00  0.00    +0.054 C 
ATOM      3  C   UNL     1      36.540 -20.285 -20.239  0.00  0.00    -0.002 C 
ATOM      4  C   UNL     1      34.317 -19.627 -20.917  0.00  0.00    -0.002 C 
ATOM      5  C   UNL     1      36.004 -21.341 -19.503  0.00  0.00    +0.004 C 
ATOM      6  C   UNL     1      33.780 -20.683 -20.181  0.00  0.00    +0.004 C 
ENDROOT
BRANCH   2   9
ATOM      7  O   UNL     1      33.709 -23.672 -19.296  0.00  0.00    -0.270 OA
ATOM      8  N   UNL     1      33.995 -22.443 -17.318  0.00  0.00    -0.279 N 
ATOM      9  C   UNL     1      34.064 -22.640 -18.704  0.00  0.00    +0.250 C 
ATOM     10  H   UNL     1      34.313 -21.570 -16.993  0.00  0.00    +0.155 HD
BRANCH   8  11
ATOM     11  C   UNL     1      33.525 -23.337 -16.323  0.00  0.00    +0.064 C 
ATOM     12  C   UNL     1      34.421 -24.075 -15.567  0.00  0.00    +0.055 C 
ATOM     13  C   UNL     1      32.157 -23.449 -16.134  0.00  0.00    +0.016 C 
ATOM     14  C   UNL     1      33.935 -24.949 -14.594  0.00  0.00    +0.015 C 
ATOM     15  C   UNL     1      31.672 -24.323 -15.162  0.00  0.00    +0.001 C 
ATOM     16  C   UNL     1      32.561 -25.073 -14.391  0.00  0.00    +0.001 C 
BRANCH  12  17
ATOM     17  N   UNL     1      35.816 -23.964 -15.755  0.00  0.00    -0.356 N 
ATOM     18  H   UNL     1      36.172 -23.428 -16.500  0.00  0.00    +0.142 HD
ATOM     19  H   UNL     1      36.434 -24.423 -15.140  0.00  0.00    +0.142 HD
ENDBRANCH  12  17
ENDBRANCH   8  11
ENDBRANCH   2   9
BRANCH   1  20
ATOM     20  C   UNL     1      36.270 -18.299 -21.735  0.00  0.00    +0.124 C 
BRANCH  20  21
ATOM     21  N   UNL     1      35.830 -18.355 -23.113  0.00  0.00    -0.264 N 
ATOM     22  N   UNL     1      34.567 -16.387 -22.905  0.00  0.00    -0.338 NA
ATOM     23  N   UNL     1      34.656 -17.586 -24.993  0.00  0.00    -0.170 NA
ATOM     24  C   UNL     1      34.992 -17.414 -23.687  0.00  0.00    +0.145 C 
ATOM     25  C   UNL     1      33.754 -15.490 -23.497  0.00  0.00    +0.147 C 
ATOM     26  C   UNL     1      33.351 -15.571 -24.815  0.00  0.00    +0.055 C 
ATOM     27  C   UNL     1      33.839 -16.651 -25.522  0.00  0.00    +0.114 C 
ATOM     28  H   UNL     1      36.143 -19.103 -23.671  0.00  0.00    +0.160 HD
BRANCH  25  30
ATOM     29  N   UNL     1      32.912 -12.041 -22.364  0.00  0.00    -0.242 NA
ATOM     30  C   UNL     1      33.314 -14.407 -22.649  0.00  0.00    +0.050 C 
ATOM     31  C   UNL     1      32.881 -14.644 -21.349  0.00  0.00    +0.006 C 
ATOM     32  C   UNL     1      33.309 -13.099 -23.105  0.00  0.00    +0.101 C 
ATOM     33  C   UNL     1      32.464 -13.581 -20.556  0.00  0.00    +0.021 C 
ATOM     34  C   UNL     1      32.498 -12.310 -21.106  0.00  0.00    +0.099 C 
ENDBRANCH  25  30
ENDBRANCH  20  21
ENDBRANCH   1  20
TORSDOF 6
ENDMDL
MODEL 9
REMARK VINA RESULT:     -10.6      2.446     11.328
REMARK  Name = 9865515
REMARK  6 active torsions:
REMARK  status: ('A' for Active; 'I' for Inactive)
REMARK    1  A    between atoms: C_1  and  C_20
REMARK    2  A    between atoms: C_2  and  C_9
REMARK    3  A    between atoms: N_8  and  C_11
REMARK    4  A    between atoms: C_12  and  N_17
REMARK    5  A    between atoms: C_20  and  N_21
REMARK    6  A    between atoms: C_25  and  C_30
REMARK                            x       y       z     vdW  Elec       q    Type
REMARK                         _______ _______ _______ _____ _____    ______ ____
ROOT
ATOM      1  C   UNL     1      34.451 -19.945 -20.469  0.00  0.00    -0.002 C 
ATOM      2  C   UNL     1      33.676 -22.093 -18.866  0.00  0.00    +0.054 C 
ATOM      3  C   UNL     1      33.099 -20.165 -20.203  0.00  0.00    -0.002 C 
ATOM      4  C   UNL     1      35.415 -20.799 -19.934  0.00  0.00    -0.002 C 
ATOM      5  C   UNL     1      32.712 -21.239 -19.403  0.00  0.00    +0.004 C 
ATOM      6  C   UNL     1      35.028 -21.872 -19.133  0.00  0.00    +0.004 C 
ENDROOT
BRANCH   2   9
ATOM      7  O   UNL     1      33.531 -24.369 -18.409  0.00  0.00    -0.270 OA
ATOM      8  N   UNL     1      32.630 -22.883 -16.832  0.00  0.00    -0.279 N 
ATOM      9  C   UNL     1      33.272 -23.214 -18.033  0.00  0.00    +0.250 C 
ATOM     10  H   UNL     1      32.493 -21.922 -16.670  0.00  0.00    +0.155 HD
BRANCH   8  11
ATOM     11  C   UNL     1      32.151 -23.753 -15.820  0.00  0.00    +0.064 C 
ATOM     12  C   UNL     1      32.941 -24.048 -14.721  0.00  0.00    +0.055 C 
ATOM     13  C   UNL     1      30.884 -24.293 -15.964  0.00  0.00    +0.016 C 
ATOM     14  C   UNL     1      32.448 -24.907 -13.738  0.00  0.00    +0.015 C 
ATOM     15  C   UNL     1      30.392 -25.152 -14.982  0.00  0.00    +0.001 C 
ATOM     16  C   UNL     1      31.174 -25.460 -13.868  0.00  0.00    +0.001 C 
BRANCH  12  17
ATOM     17  N   UNL     1      34.233 -23.500 -14.568  0.00  0.00    -0.356 N 
ATOM     18  H   UNL     1      34.387 -22.775 -13.920  0.00  0.00    +0.142 HD
ATOM     19  H   UNL     1      34.981 -23.843 -15.109  0.00  0.00    +0.142 HD
ENDBRANCH  12  17
ENDBRANCH   8  11
ENDBRANCH   2   9
BRANCH   1  20
ATOM     20  C   UNL     1      34.866 -18.795 -21.325  0.00  0.00    +0.124 C 
BRANCH  20  21
ATOM     21  N   UNL     1      34.937 -17.575 -20.551  0.00  0.00    -0.264 N 
ATOM     22  N   UNL     1      34.352 -16.243 -22.393  0.00  0.00    -0.338 NA
ATOM     23  N   UNL     1      34.785 -15.254 -20.239  0.00  0.00    -0.170 NA
ATOM     24  C   UNL     1      34.684 -16.319 -21.078  0.00  0.00    +0.145 C 
ATOM     25  C   UNL     1      34.112 -15.005 -22.872  0.00  0.00    +0.147 C 
ATOM     26  C   UNL     1      34.188 -13.859 -22.107  0.00  0.00    +0.055 C 
ATOM     27  C   UNL     1      34.532 -14.046 -20.784  0.00  0.00    +0.114 C 
ATOM     28  H   UNL     1      35.178 -17.641 -19.599  0.00  0.00    +0.160 HD
BRANCH  25  30
ATOM     29  N   UNL     1      33.342 -16.113 -26.346  0.00  0.00    -0.242 NA
ATOM     30  C   UNL     1      33.761 -14.946 -24.271  0.00  0.00    +0.050 C 
ATOM     31  C   UNL     1      33.509 -13.729 -24.897  0.00  0.00    +0.006 C 
ATOM     32  C   UNL     1      33.664 -16.099 -25.034  0.00  0.00    +0.101 C 
ATOM     33  C   UNL     1      33.174 -13.703 -26.246  0.00  0.00    +0.021 C 
ATOM     34  C   UNL     1      33.104 -14.912 -26.920  0.00  0.00    +0.099 C 
ENDBRANCH  25  30
ENDBRANCH  20  21
ENDBRANCH   1  20
TORSDOF 6
ENDMDL
