MODEL 1
REMARK VINA RESULT:     -12.0      0.000      0.000
REMARK  Name = 11697676
REMARK  7 active torsions:
REMARK  status: ('A' for Active; 'I' for Inactive)
REMARK    1  A    between atoms: N_1  and  C_18
REMARK    2  A    between atoms: N_2  and  C_8
REMARK    3  A    between atoms: C_18  and  C_19
REMARK    4  A    between atoms: C_19  and  C_20
REMARK    5  A    between atoms: C_20  and  C_21
REMARK    6  A    between atoms: C_21  and  O_22
REMARK    7  A    between atoms: O_22  and  C_28
REMARK                            x       y       z     vdW  Elec       q    Type
REMARK                         _______ _______ _______ _____ _____    ______ ____
ROOT
ATOM      1  N   UNL     1      31.922  -8.658 -20.372  0.00  0.00    +0.389 N 
ATOM      2  N   UNL     1      31.906  -6.495 -22.236  0.00  0.00    -0.312 N 
ATOM      3  C   UNL     1      32.790  -7.493 -20.163  0.00  0.00    -0.055 C 
ATOM      4  C   UNL     1      31.768  -8.916 -21.809  0.00  0.00    -0.055 C 
ATOM      5  C   UNL     1      32.198  -6.243 -20.820  0.00  0.00    +0.068 C 
ATOM      6  C   UNL     1      31.143  -7.713 -22.520  0.00  0.00    +0.068 C 
ATOM      7  H   UNL     1      31.004  -8.461 -19.973  0.00  0.00    -0.080 HD
ENDROOT
BRANCH   2   8
ATOM      8  C   UNL     1      31.795  -5.391 -23.090  0.00  0.00    +0.048 C 
ATOM      9  C   UNL     1      32.692  -5.159 -24.170  0.00  0.00    +0.013 C 
ATOM     10  C   UNL     1      30.750  -4.465 -22.877  0.00  0.00    +0.015 C 
ATOM     11  C   UNL     1      32.534  -4.026 -25.003  0.00  0.00    +0.001 C 
ATOM     12  C   UNL     1      33.746  -6.053 -24.419  0.00  0.00    +0.001 C 
ATOM     13  C   UNL     1      30.594  -3.351 -23.698  0.00  0.00    +0.001 C 
ATOM     14  C   UNL     1      31.479  -3.133 -24.754  0.00  0.00    +0.000 C 
ATOM     15  C   UNL     1      33.434  -3.821 -26.061  0.00  0.00    +0.000 C 
ATOM     16  C   UNL     1      34.631  -5.834 -25.475  0.00  0.00    +0.000 C 
ATOM     17  C   UNL     1      34.475  -4.720 -26.294  0.00  0.00    +0.000 C 
ENDBRANCH   2   8
BRANCH   1  18
ATOM     18  C   UNL     1      32.470  -9.834 -19.695  0.00  0.00    -0.077 C 
BRANCH  18  19
ATOM     19  C   UNL     1      31.393 -10.507 -18.846  0.00  0.00    -0.019 C 
BRANCH  19  20
ATOM     20  C   UNL     1      30.616 -11.542 -19.658  0.00  0.00    +0.045 C 
BRANCH  20  21
ATOM     21  C   UNL     1      31.515 -12.272 -20.646  0.00  0.00    +0.208 C 
BRANCH  21  22
ATOM     22  O   UNL     1      32.091 -13.411 -20.023  0.00  0.00    -0.452 OA
BRANCH  22  28
ATOM     23  O   UNL     1      33.903 -15.392 -26.467  0.00  0.00    -0.275 OA
ATOM     24  N   UNL     1      33.376 -14.738 -24.329  0.00  0.00    -0.263 N 
ATOM     25  N   UNL     1      32.735 -14.077 -22.150  0.00  0.00    -0.357 NA
ATOM     26  C   UNL     1      34.377 -15.830 -22.422  0.00  0.00    +0.090 C 
ATOM     27  C   UNL     1      35.263 -16.610 -23.345  0.00  0.00    +0.022 C 
ATOM     28  C   UNL     1      32.860 -14.226 -20.813  0.00  0.00    +0.278 C 
ATOM     29  C   UNL     1      33.486 -14.886 -22.933  0.00  0.00    +0.170 C 
ATOM     30  C   UNL     1      34.577 -16.845 -24.682  0.00  0.00    +0.086 C 
ATOM     31  C   UNL     1      34.486 -15.942 -21.035  0.00  0.00    -0.012 C 
ATOM     32  C   UNL     1      33.711 -15.136 -20.212  0.00  0.00    +0.068 C 
ATOM     33  C   UNL     1      33.959 -15.585 -25.252  0.00  0.00    +0.228 C 
ATOM     34  H   UNL     1      32.849 -13.980 -24.670  0.00  0.00    +0.157 HD
ENDBRANCH  22  28
ENDBRANCH  21  22
ENDBRANCH  20  21
ENDBRANCH  19  20
ENDBRANCH  18  19
ENDBRANCH   1  18
TORSDOF 7
ENDMDL
MODEL 2
REMARK VINA RESULT:     -11.7      7.825     12.445
REMARK  Name = 11697676
REMARK  7 active torsions:
REMARK  status: ('A' for Active; 'I' for Inactive)
REMARK    1  A    between atoms: N_1  and  C_18
REMARK    2  A    between atoms: N_2  and  C_8
REMARK    3  A    between atoms: C_18  and  C_19
REMARK    4  A    between atoms: C_19  and  C_20
REMARK    5  A    between atoms: C_20  and  C_21
REMARK    6  A    between atoms: C_21  and  O_22
REMARK    7  A    between atoms: O_22  and  C_28
REMARK                            x       y       z     vdW  Elec       q    Type
REMARK                         _______ _______ _______ _____ _____    ______ ____
ROOT
ATOM      1  N   UNL     1      35.746 -21.332 -19.886  0.00  0.00    +0.389 N 
ATOM      2  N   UNL     1      35.222 -19.052 -21.525  0.00  0.00    -0.312 N 
ATOM      3  C   UNL     1      34.370 -20.857 -20.078  0.00  0.00    -0.055 C 
ATOM      4  C   UNL     1      36.674 -20.193 -19.895  0.00  0.00    -0.055 C 
ATOM      5  C   UNL     1      34.224 -20.124 -21.414  0.00  0.00    +0.068 C 
ATOM      6  C   UNL     1      36.603 -19.438 -21.225  0.00  0.00    +0.068 C 
ATOM      7  H   UNL     1      35.988 -21.960 -20.652  0.00  0.00    -0.080 HD
ENDROOT
BRANCH   2   8
ATOM      8  C   UNL     1      34.972 -18.014 -22.429  0.00  0.00    +0.048 C 
ATOM      9  C   UNL     1      34.665 -16.688 -22.013  0.00  0.00    +0.013 C 
ATOM     10  C   UNL     1      35.024 -18.284 -23.814  0.00  0.00    +0.015 C 
ATOM     11  C   UNL     1      34.420 -15.674 -22.970  0.00  0.00    +0.001 C 
ATOM     12  C   UNL     1      34.601 -16.372 -20.646  0.00  0.00    +0.001 C 
ATOM     13  C   UNL     1      34.785 -17.287 -24.755  0.00  0.00    +0.001 C 
ATOM     14  C   UNL     1      34.485 -15.991 -24.337  0.00  0.00    +0.000 C 
ATOM     15  C   UNL     1      34.119 -14.375 -22.532  0.00  0.00    +0.000 C 
ATOM     16  C   UNL     1      34.301 -15.075 -20.229  0.00  0.00    +0.000 C 
ATOM     17  C   UNL     1      34.060 -14.078 -21.169  0.00  0.00    +0.000 C 
ENDBRANCH   2   8
BRANCH   1  18
ATOM     18  C   UNL     1      35.861 -22.076 -18.632  0.00  0.00    -0.077 C 
BRANCH  18  19
ATOM     19  C   UNL     1      37.013 -21.527 -17.792  0.00  0.00    -0.019 C 
BRANCH  19  20
ATOM     20  C   UNL     1      37.381 -22.488 -16.663  0.00  0.00    +0.045 C 
BRANCH  20  21
ATOM     21  C   UNL     1      36.265 -22.599 -15.633  0.00  0.00    +0.208 C 
BRANCH  21  22
ATOM     22  O   UNL     1      35.693 -23.899 -15.680  0.00  0.00    -0.452 OA
BRANCH  22  28
ATOM     23  O   UNL     1      28.927 -22.659 -16.871  0.00  0.00    -0.275 OA
ATOM     24  N   UNL     1      31.137 -23.134 -16.461  0.00  0.00    -0.263 N 
ATOM     25  N   UNL     1      33.434 -23.525 -16.056  0.00  0.00    -0.357 NA
ATOM     26  C   UNL     1      31.803 -24.246 -14.425  0.00  0.00    +0.090 C 
ATOM     27  C   UNL     1      30.360 -24.440 -14.069  0.00  0.00    +0.022 C 
ATOM     28  C   UNL     1      34.398 -24.021 -15.248  0.00  0.00    +0.278 C 
ATOM     29  C   UNL     1      32.154 -23.636 -15.628  0.00  0.00    +0.170 C 
ATOM     30  C   UNL     1      29.508 -23.317 -14.640  0.00  0.00    +0.086 C 
ATOM     31  C   UNL     1      32.827 -24.758 -13.627  0.00  0.00    -0.012 C 
ATOM     32  C   UNL     1      34.149 -24.638 -14.035  0.00  0.00    +0.068 C 
ATOM     33  C   UNL     1      29.807 -23.038 -16.098  0.00  0.00    +0.228 C 
ATOM     34  H   UNL     1      31.389 -22.832 -17.364  0.00  0.00    +0.157 HD
ENDBRANCH  22  28
ENDBRANCH  21  22
ENDBRANCH  20  21
ENDBRANCH  19  20
ENDBRANCH  18  19
ENDBRANCH   1  18
TORSDOF 7
ENDMDL
MODEL 3
REMARK VINA RESULT:     -11.5      2.034      3.259
REMARK  Name = 11697676
REMARK  7 active torsions:
REMARK  status: ('A' for Active; 'I' for Inactive)
REMARK    1  A    between atoms: N_1  and  C_18
REMARK    2  A    between atoms: N_2  and  C_8
REMARK    3  A    between atoms: C_18  and  C_19
REMARK    4  A    between atoms: C_19  and  C_20
REMARK    5  A    between atoms: C_20  and  C_21
REMARK    6  A    between atoms: C_21  and  O_22
REMARK    7  A    between atoms: O_22  and  C_28
REMARK                            x       y       z     vdW  Elec       q    Type
REMARK                         _______ _______ _______ _____ _____    ______ ____
ROOT
ATOM      1  N   UNL     1      32.334  -9.541 -20.477  0.00  0.00    +0.389 N 
ATOM      2  N   UNL     1      32.649  -7.468 -22.415  0.00  0.00    -0.312 N 
ATOM      3  C   UNL     1      31.540  -9.553 -21.711  0.00  0.00    -0.055 C 
ATOM      4  C   UNL     1      32.577  -8.157 -20.052  0.00  0.00    -0.055 C 
ATOM      5  C   UNL     1      32.269  -8.821 -22.840  0.00  0.00    +0.068 C 
ATOM      6  C   UNL     1      33.341  -7.378 -21.126  0.00  0.00    +0.068 C 
ATOM      7  H   UNL     1      33.231  -9.993 -20.658  0.00  0.00    -0.080 HD
ENDROOT
BRANCH   2   8
ATOM      8  C   UNL     1      32.906  -6.515 -23.408  0.00  0.00    +0.048 C 
ATOM      9  C   UNL     1      32.168  -5.303 -23.521  0.00  0.00    +0.013 C 
ATOM     10  C   UNL     1      33.937  -6.759 -24.340  0.00  0.00    +0.015 C 
ATOM     11  C   UNL     1      32.469  -4.374 -24.544  0.00  0.00    +0.001 C 
ATOM     12  C   UNL     1      31.133  -5.018 -22.616  0.00  0.00    +0.001 C 
ATOM     13  C   UNL     1      34.234  -5.844 -25.347  0.00  0.00    +0.001 C 
ATOM     14  C   UNL     1      33.505  -4.659 -25.449  0.00  0.00    +0.000 C 
ATOM     15  C   UNL     1      31.726  -3.186 -24.633  0.00  0.00    +0.000 C 
ATOM     16  C   UNL     1      30.405  -3.832 -22.719  0.00  0.00    +0.000 C 
ATOM     17  C   UNL     1      30.700  -2.918 -23.726  0.00  0.00    +0.000 C 
ENDBRANCH   2   8
BRANCH   1  18
ATOM     18  C   UNL     1      31.652 -10.290 -19.421  0.00  0.00    -0.077 C 
BRANCH  18  19
ATOM     19  C   UNL     1      30.964 -11.522 -20.005  0.00  0.00    -0.019 C 
BRANCH  19  20
ATOM     20  C   UNL     1      31.865 -12.753 -19.916  0.00  0.00    +0.045 C 
BRANCH  20  21
ATOM     21  C   UNL     1      32.196 -13.309 -21.294  0.00  0.00    +0.208 C 
BRANCH  21  22
ATOM     22  O   UNL     1      33.602 -13.464 -21.427  0.00  0.00    -0.452 OA
BRANCH  22  28
ATOM     23  O   UNL     1      36.154 -19.859 -20.274  0.00  0.00    -0.275 OA
ATOM     24  N   UNL     1      35.268 -17.783 -20.700  0.00  0.00    -0.263 N 
ATOM     25  N   UNL     1      34.427 -15.604 -21.079  0.00  0.00    -0.357 NA
ATOM     26  C   UNL     1      34.936 -17.024 -22.968  0.00  0.00    +0.090 C 
ATOM     27  C   UNL     1      35.331 -18.380 -23.469  0.00  0.00    +0.022 C 
ATOM     28  C   UNL     1      34.046 -14.648 -21.955  0.00  0.00    +0.278 C 
ATOM     29  C   UNL     1      34.876 -16.772 -21.597  0.00  0.00    +0.170 C 
ATOM     30  C   UNL     1      36.319 -19.040 -22.521  0.00  0.00    +0.086 C 
ATOM     31  C   UNL     1      34.519 -16.016 -23.838  0.00  0.00    -0.012 C 
ATOM     32  C   UNL     1      34.075 -14.802 -23.330  0.00  0.00    +0.068 C 
ATOM     33  C   UNL     1      35.883 -18.962 -21.073  0.00  0.00    +0.228 C 
ATOM     34  H   UNL     1      35.091 -17.640 -19.742  0.00  0.00    +0.157 HD
ENDBRANCH  22  28
ENDBRANCH  21  22
ENDBRANCH  20  21
ENDBRANCH  19  20
ENDBRANCH  18  19
ENDBRANCH   1  18
TORSDOF 7
ENDMDL
MODEL 4
REMARK VINA RESULT:     -11.5      1.924      2.401
REMARK  Name = 11697676
REMARK  7 active torsions:
REMARK  status: ('A' for Active; 'I' for Inactive)
REMARK    1  A    between atoms: N_1  and  C_18
REMARK    2  A    between atoms: N_2  and  C_8
REMARK    3  A    between atoms: C_18  and  C_19
REMARK    4  A    between atoms: C_19  and  C_20
REMARK    5  A    between atoms: C_20  and  C_21
REMARK    6  A    between atoms: C_21  and  O_22
REMARK    7  A    between atoms: O_22  and  C_28
REMARK                            x       y       z     vdW  Elec       q    Type
REMARK                         _______ _______ _______ _____ _____    ______ ____
ROOT
ATOM      1  N   UNL     1      31.751  -9.059 -20.721  0.00  0.00    +0.389 N 
ATOM      2  N   UNL     1      31.848  -6.773 -22.430  0.00  0.00    -0.312 N 
ATOM      3  C   UNL     1      32.659  -7.946 -20.420  0.00  0.00    -0.055 C 
ATOM      4  C   UNL     1      31.612  -9.211 -22.175  0.00  0.00    -0.055 C 
ATOM      5  C   UNL     1      32.126  -6.631 -20.996  0.00  0.00    +0.068 C 
ATOM      6  C   UNL     1      31.044  -7.938 -22.809  0.00  0.00    +0.068 C 
ATOM      7  H   UNL     1      30.835  -8.854 -20.322  0.00  0.00    -0.080 HD
ENDROOT
BRANCH   2   8
ATOM      8  C   UNL     1      31.792  -5.609 -23.206  0.00  0.00    +0.048 C 
ATOM      9  C   UNL     1      32.749  -5.311 -24.216  0.00  0.00    +0.013 C 
ATOM     10  C   UNL     1      30.746  -4.688 -22.983  0.00  0.00    +0.015 C 
ATOM     11  C   UNL     1      32.646  -4.120 -24.972  0.00  0.00    +0.001 C 
ATOM     12  C   UNL     1      33.807  -6.198 -24.473  0.00  0.00    +0.001 C 
ATOM     13  C   UNL     1      30.644  -3.516 -23.728  0.00  0.00    +0.001 C 
ATOM     14  C   UNL     1      31.587  -3.233 -24.716  0.00  0.00    +0.000 C 
ATOM     15  C   UNL     1      33.604  -3.850 -25.963  0.00  0.00    +0.000 C 
ATOM     16  C   UNL     1      34.750  -5.914 -25.461  0.00  0.00    +0.000 C 
ATOM     17  C   UNL     1      34.649  -4.742 -26.205  0.00  0.00    +0.000 C 
ENDBRANCH   2   8
BRANCH   1  18
ATOM     18  C   UNL     1      32.243 -10.299 -20.121  0.00  0.00    -0.077 C 
BRANCH  18  19
ATOM     19  C   UNL     1      31.146 -11.362 -20.125  0.00  0.00    -0.019 C 
BRANCH  19  20
ATOM     20  C   UNL     1      31.739 -12.767 -20.216  0.00  0.00    +0.045 C 
BRANCH  20  21
ATOM     21  C   UNL     1      32.272 -13.064 -21.612  0.00  0.00    +0.208 C 
BRANCH  21  22
ATOM     22  O   UNL     1      33.664 -13.339 -21.548  0.00  0.00    -0.452 OA
BRANCH  22  28
ATOM     23  O   UNL     1      36.014 -19.790 -20.288  0.00  0.00    -0.275 OA
ATOM     24  N   UNL     1      35.194 -17.695 -20.750  0.00  0.00    -0.263 N 
ATOM     25  N   UNL     1      34.423 -15.498 -21.165  0.00  0.00    -0.357 NA
ATOM     26  C   UNL     1      34.915 -16.953 -23.031  0.00  0.00    +0.090 C 
ATOM     27  C   UNL     1      35.278 -18.326 -23.512  0.00  0.00    +0.022 C 
ATOM     28  C   UNL     1      34.081 -14.541 -22.057  0.00  0.00    +0.278 C 
ATOM     29  C   UNL     1      34.844 -16.684 -21.664  0.00  0.00    +0.170 C 
ATOM     30  C   UNL     1      36.234 -19.003 -22.542  0.00  0.00    +0.086 C 
ATOM     31  C   UNL     1      34.540 -15.944 -23.918  0.00  0.00    -0.012 C 
ATOM     32  C   UNL     1      34.124 -14.712 -23.429  0.00  0.00    +0.068 C 
ATOM     33  C   UNL     1      35.780 -18.895 -21.101  0.00  0.00    +0.228 C 
ATOM     34  H   UNL     1      35.009 -17.536 -19.796  0.00  0.00    +0.157 HD
ENDBRANCH  22  28
ENDBRANCH  21  22
ENDBRANCH  20  21
ENDBRANCH  19  20
ENDBRANCH  18  19
ENDBRANCH   1  18
TORSDOF 7
ENDMDL
MODEL 5
REMARK VINA RESULT:     -11.4      6.469     10.235
REMARK  Name = 11697676
REMARK  7 active torsions:
REMARK  status: ('A' for Active; 'I' for Inactive)
REMARK    1  A    between atoms: N_1  and  C_18
REMARK    2  A    between atoms: N_2  and  C_8
REMARK    3  A    between atoms: C_18  and  C_19
REMARK    4  A    between atoms: C_19  and  C_20
REMARK    5  A    between atoms: C_20  and  C_21
REMARK    6  A    between atoms: C_21  and  O_22
REMARK    7  A    between atoms: O_22  and  C_28
REMARK                            x       y       z     vdW  Elec       q    Type
REMARK                         _______ _______ _______ _____ _____    ______ ____
ROOT
ATOM      1  N   UNL     1      35.382 -17.992 -22.466  0.00  0.00    +0.389 N 
ATOM      2  N   UNL     1      34.308 -15.362 -22.764  0.00  0.00    -0.312 N 
ATOM      3  C   UNL     1      34.644 -17.625 -23.681  0.00  0.00    -0.055 C 
ATOM      4  C   UNL     1      34.824 -17.281 -21.309  0.00  0.00    -0.055 C 
ATOM      5  C   UNL     1      34.736 -16.120 -23.946  0.00  0.00    +0.068 C 
ATOM      6  C   UNL     1      34.921 -15.765 -21.496  0.00  0.00    +0.068 C 
ATOM      7  H   UNL     1      36.359 -17.720 -22.579  0.00  0.00    -0.080 HD
ENDROOT
BRANCH   2   8
ATOM      8  C   UNL     1      33.898 -14.037 -22.947  0.00  0.00    +0.048 C 
ATOM      9  C   UNL     1      33.047 -13.360 -22.029  0.00  0.00    +0.013 C 
ATOM     10  C   UNL     1      34.342 -13.335 -24.089  0.00  0.00    +0.015 C 
ATOM     11  C   UNL     1      32.662 -12.019 -22.262  0.00  0.00    +0.001 C 
ATOM     12  C   UNL     1      32.580 -14.019 -20.880  0.00  0.00    +0.001 C 
ATOM     13  C   UNL     1      33.964 -12.014 -24.318  0.00  0.00    +0.001 C 
ATOM     14  C   UNL     1      33.130 -11.360 -23.411  0.00  0.00    +0.000 C 
ATOM     15  C   UNL     1      31.821 -11.375 -21.340  0.00  0.00    +0.000 C 
ATOM     16  C   UNL     1      31.745 -13.364 -19.974  0.00  0.00    +0.000 C 
ATOM     17  C   UNL     1      31.366 -12.045 -20.204  0.00  0.00    +0.000 C 
ENDBRANCH   2   8
BRANCH   1  18
ATOM     18  C   UNL     1      35.333 -19.438 -22.253  0.00  0.00    -0.077 C 
BRANCH  18  19
ATOM     19  C   UNL     1      34.450 -19.767 -21.050  0.00  0.00    -0.019 C 
BRANCH  19  20
ATOM     20  C   UNL     1      35.018 -20.939 -20.252  0.00  0.00    +0.045 C 
BRANCH  20  21
ATOM     21  C   UNL     1      33.925 -21.699 -19.513  0.00  0.00    +0.208 C 
BRANCH  21  22
ATOM     22  O   UNL     1      34.509 -22.623 -18.606  0.00  0.00    -0.452 OA
BRANCH  22  28
ATOM     23  O   UNL     1      28.183 -23.081 -15.689  0.00  0.00    -0.275 OA
ATOM     24  N   UNL     1      30.278 -22.997 -16.627  0.00  0.00    -0.263 N 
ATOM     25  N   UNL     1      32.419 -22.812 -17.616  0.00  0.00    -0.357 NA
ATOM     26  C   UNL     1      32.222 -23.685 -15.370  0.00  0.00    +0.090 C 
ATOM     27  C   UNL     1      31.328 -24.154 -14.262  0.00  0.00    +0.022 C 
ATOM     28  C   UNL     1      33.757 -22.981 -17.517  0.00  0.00    +0.278 C 
ATOM     29  C   UNL     1      31.674 -23.157 -16.539  0.00  0.00    +0.170 C 
ATOM     30  C   UNL     1      30.054 -23.326 -14.209  0.00  0.00    +0.086 C 
ATOM     31  C   UNL     1      33.605 -23.857 -15.315  0.00  0.00    -0.012 C 
ATOM     32  C   UNL     1      34.392 -23.492 -16.400  0.00  0.00    +0.068 C 
ATOM     33  C   UNL     1      29.406 -23.160 -15.568  0.00  0.00    +0.228 C 
ATOM     34  H   UNL     1      29.898 -22.754 -17.502  0.00  0.00    +0.157 HD
ENDBRANCH  22  28
ENDBRANCH  21  22
ENDBRANCH  20  21
ENDBRANCH  19  20
ENDBRANCH  18  19
ENDBRANCH   1  18
TORSDOF 7
ENDMDL
MODEL 6
REMARK VINA RESULT:     -11.4      5.403      8.830
REMARK  Name = 11697676
REMARK  7 active torsions:
REMARK  status: ('A' for Active; 'I' for Inactive)
REMARK    1  A    between atoms: N_1  and  C_18
REMARK    2  A    between atoms: N_2  and  C_8
REMARK    3  A    between atoms: C_18  and  C_19
REMARK    4  A    between atoms: C_19  and  C_20
REMARK    5  A    between atoms: C_20  and  C_21
REMARK    6  A    between atoms: C_21  and  O_22
REMARK    7  A    between atoms: O_22  and  C_28
REMARK                            x       y       z     vdW  Elec       q    Type
REMARK                         _______ _______ _______ _____ _____    ______ ____
ROOT
ATOM      1  N   UNL     1      34.715 -15.931 -23.771  0.00  0.00    +0.389 N 
ATOM      2  N   UNL     1      33.633 -13.392 -23.036  0.00  0.00    -0.312 N 
ATOM      3  C   UNL     1      33.646 -15.320 -24.571  0.00  0.00    -0.055 C 
ATOM      4  C   UNL     1      34.544 -15.577 -22.356  0.00  0.00    -0.055 C 
ATOM      5  C   UNL     1      33.672 -13.794 -24.447  0.00  0.00    +0.068 C 
ATOM      6  C   UNL     1      34.599 -14.060 -22.159  0.00  0.00    +0.068 C 
ATOM      7  H   UNL     1      35.614 -15.574 -24.094  0.00  0.00    -0.080 HD
ENDROOT
BRANCH   2   8
ATOM      8  C   UNL     1      33.203 -12.094 -22.734  0.00  0.00    +0.048 C 
ATOM      9  C   UNL     1      32.482 -11.778 -21.549  0.00  0.00    +0.013 C 
ATOM     10  C   UNL     1      33.494 -11.050 -23.638  0.00  0.00    +0.015 C 
ATOM     11  C   UNL     1      32.070 -10.449 -21.292  0.00  0.00    +0.001 C 
ATOM     12  C   UNL     1      32.170 -12.785 -20.621  0.00  0.00    +0.001 C 
ATOM     13  C   UNL     1      33.089  -9.742 -23.386  0.00  0.00    +0.001 C 
ATOM     14  C   UNL     1      32.383  -9.443 -22.221  0.00  0.00    +0.000 C 
ATOM     15  C   UNL     1      31.360 -10.165 -20.115  0.00  0.00    +0.000 C 
ATOM     16  C   UNL     1      31.463 -12.485 -19.456  0.00  0.00    +0.000 C 
ATOM     17  C   UNL     1      31.058 -11.178 -19.204  0.00  0.00    +0.000 C 
ENDBRANCH   2   8
BRANCH   1  18
ATOM     18  C   UNL     1      34.715 -17.384 -23.940  0.00  0.00    -0.077 C 
BRANCH  18  19
ATOM     19  C   UNL     1      35.483 -18.051 -22.800  0.00  0.00    -0.019 C 
BRANCH  19  20
ATOM     20  C   UNL     1      35.106 -19.525 -22.669  0.00  0.00    +0.045 C 
BRANCH  20  21
ATOM     21  C   UNL     1      35.293 -20.029 -21.244  0.00  0.00    +0.208 C 
BRANCH  21  22
ATOM     22  O   UNL     1      34.063 -20.540 -20.749  0.00  0.00    -0.452 OA
BRANCH  22  28
ATOM     23  O   UNL     1      30.631 -23.892 -15.678  0.00  0.00    -0.275 OA
ATOM     24  N   UNL     1      31.800 -22.848 -17.357  0.00  0.00    -0.263 N 
ATOM     25  N   UNL     1      32.953 -21.686 -19.064  0.00  0.00    -0.357 NA
ATOM     26  C   UNL     1      34.213 -22.914 -17.406  0.00  0.00    +0.090 C 
ATOM     27  C   UNL     1      34.201 -23.865 -16.248  0.00  0.00    +0.022 C 
ATOM     28  C   UNL     1      34.128 -21.333 -19.632  0.00  0.00    +0.278 C 
ATOM     29  C   UNL     1      33.013 -22.461 -17.956  0.00  0.00    +0.170 C 
ATOM     30  C   UNL     1      32.992 -23.621 -15.360  0.00  0.00    +0.086 C 
ATOM     31  C   UNL     1      35.402 -22.538 -18.032  0.00  0.00    -0.012 C 
ATOM     32  C   UNL     1      35.366 -21.726 -19.158  0.00  0.00    +0.068 C 
ATOM     33  C   UNL     1      31.702 -23.505 -16.146  0.00  0.00    +0.228 C 
ATOM     34  H   UNL     1      30.964 -22.636 -17.833  0.00  0.00    +0.157 HD
ENDBRANCH  22  28
ENDBRANCH  21  22
ENDBRANCH  20  21
ENDBRANCH  19  20
ENDBRANCH  18  19
ENDBRANCH   1  18
TORSDOF 7
ENDMDL
MODEL 7
REMARK VINA RESULT:     -11.4      8.454     15.898
REMARK  Name = 11697676
REMARK  7 active torsions:
REMARK  status: ('A' for Active; 'I' for Inactive)
REMARK    1  A    between atoms: N_1  and  C_18
REMARK    2  A    between atoms: N_2  and  C_8
REMARK    3  A    between atoms: C_18  and  C_19
REMARK    4  A    between atoms: C_19  and  C_20
REMARK    5  A    between atoms: C_20  and  C_21
REMARK    6  A    between atoms: C_21  and  O_22
REMARK    7  A    between atoms: O_22  and  C_28
REMARK                            x       y       z     vdW  Elec       q    Type
REMARK                         _______ _______ _______ _____ _____    ______ ____
ROOT
ATOM      1  N   UNL     1      34.537 -22.424 -17.782  0.00  0.00    +0.389 N 
ATOM      2  N   UNL     1      35.352 -23.734 -15.378  0.00  0.00    -0.312 N 
ATOM      3  C   UNL     1      33.887 -23.671 -17.360  0.00  0.00    -0.055 C 
ATOM      4  C   UNL     1      35.951 -22.438 -17.385  0.00  0.00    -0.055 C 
ATOM      5  C   UNL     1      33.963 -23.841 -15.840  0.00  0.00    +0.068 C 
ATOM      6  C   UNL     1      36.095 -22.569 -15.867  0.00  0.00    +0.068 C 
ATOM      7  H   UNL     1      34.074 -21.639 -17.323  0.00  0.00    -0.080 HD
ENDROOT
BRANCH   2   8
ATOM      8  C   UNL     1      35.677 -24.294 -14.137  0.00  0.00    +0.048 C 
ATOM      9  C   UNL     1      36.953 -24.860 -13.858  0.00  0.00    +0.013 C 
ATOM     10  C   UNL     1      34.704 -24.301 -13.115  0.00  0.00    +0.015 C 
ATOM     11  C   UNL     1      37.229 -25.413 -12.586  0.00  0.00    +0.001 C 
ATOM     12  C   UNL     1      37.951 -24.874 -14.845  0.00  0.00    +0.001 C 
ATOM     13  C   UNL     1      34.976 -24.845 -11.862  0.00  0.00    +0.001 C 
ATOM     14  C   UNL     1      36.229 -25.397 -11.598  0.00  0.00    +0.000 C 
ATOM     15  C   UNL     1      38.496 -25.965 -12.337  0.00  0.00    +0.000 C 
ATOM     16  C   UNL     1      39.205 -25.427 -14.581  0.00  0.00    +0.000 C 
ATOM     17  C   UNL     1      39.477 -25.971 -13.329  0.00  0.00    +0.000 C 
ENDBRANCH   2   8
BRANCH   1  18
ATOM     18  C   UNL     1      34.412 -22.245 -19.228  0.00  0.00    -0.077 C 
BRANCH  18  19
ATOM     19  C   UNL     1      33.283 -21.266 -19.546  0.00  0.00    -0.019 C 
BRANCH  19  20
ATOM     20  C   UNL     1      33.711 -20.254 -20.607  0.00  0.00    +0.045 C 
BRANCH  20  21
ATOM     21  C   UNL     1      35.202 -20.343 -20.900  0.00  0.00    +0.208 C 
BRANCH  21  22
ATOM     22  O   UNL     1      35.831 -19.111 -20.578  0.00  0.00    -0.452 OA
BRANCH  22  28
ATOM     23  O   UNL     1      32.485 -12.990 -20.322  0.00  0.00    -0.275 OA
ATOM     24  N   UNL     1      33.638 -14.973 -20.444  0.00  0.00    -0.263 N 
ATOM     25  N   UNL     1      34.747 -17.061 -20.523  0.00  0.00    -0.357 NA
ATOM     26  C   UNL     1      34.510 -15.766 -22.551  0.00  0.00    +0.090 C 
ATOM     27  C   UNL     1      34.099 -14.477 -23.196  0.00  0.00    +0.022 C 
ATOM     28  C   UNL     1      35.395 -17.999 -21.250  0.00  0.00    +0.278 C 
ATOM     29  C   UNL     1      34.306 -15.965 -21.186  0.00  0.00    +0.170 C 
ATOM     30  C   UNL     1      32.875 -13.895 -22.507  0.00  0.00    +0.086 C 
ATOM     31  C   UNL     1      35.196 -16.752 -23.261  0.00  0.00    -0.012 C 
ATOM     32  C   UNL     1      35.640 -17.894 -22.607  0.00  0.00    +0.068 C 
ATOM     33  C   UNL     1      33.003 -13.879 -20.998  0.00  0.00    +0.228 C 
ATOM     34  H   UNL     1      33.623 -15.064 -19.463  0.00  0.00    +0.157 HD
ENDBRANCH  22  28
ENDBRANCH  21  22
ENDBRANCH  20  21
ENDBRANCH  19  20
ENDBRANCH  18  19
ENDBRANCH   1  18
TORSDOF 7
ENDMDL
MODEL 8
REMARK VINA RESULT:     -11.3      7.207     14.653
REMARK  Name = 11697676
REMARK  7 active torsions:
REMARK  status: ('A' for Active; 'I' for Inactive)
REMARK    1  A    between atoms: N_1  and  C_18
REMARK    2  A    between atoms: N_2  and  C_8
REMARK    3  A    between atoms: C_18  and  C_19
REMARK    4  A    between atoms: C_19  and  C_20
REMARK    5  A    between atoms: C_20  and  C_21
REMARK    6  A    between atoms: C_21  and  O_22
REMARK    7  A    between atoms: O_22  and  C_28
REMARK                            x       y       z     vdW  Elec       q    Type
REMARK                         _______ _______ _______ _____ _____    ______ ____
ROOT
ATOM      1  N   UNL     1      35.613 -22.048 -19.227  0.00  0.00    +0.389 N 
ATOM      2  N   UNL     1      34.428 -23.057 -16.832  0.00  0.00    -0.312 N 
ATOM      3  C   UNL     1      36.228 -21.772 -17.922  0.00  0.00    -0.055 C 
ATOM      4  C   UNL     1      34.153 -22.110 -19.089  0.00  0.00    -0.055 C 
ATOM      5  C   UNL     1      35.882 -22.868 -16.911  0.00  0.00    +0.068 C 
ATOM      6  C   UNL     1      33.739 -23.216 -18.115  0.00  0.00    +0.068 C 
ATOM      7  H   UNL     1      35.951 -22.949 -19.566  0.00  0.00    -0.080 HD
ENDROOT
BRANCH   2   8
ATOM      8  C   UNL     1      33.905 -23.662 -15.683  0.00  0.00    +0.048 C 
ATOM      9  C   UNL     1      32.511 -23.704 -15.402  0.00  0.00    +0.013 C 
ATOM     10  C   UNL     1      34.792 -24.257 -14.760  0.00  0.00    +0.015 C 
ATOM     11  C   UNL     1      32.036 -24.329 -14.225  0.00  0.00    +0.001 C 
ATOM     12  C   UNL     1      31.592 -23.125 -16.292  0.00  0.00    +0.001 C 
ATOM     13  C   UNL     1      34.324 -24.873 -13.602  0.00  0.00    +0.001 C 
ATOM     14  C   UNL     1      32.956 -24.909 -13.336  0.00  0.00    +0.000 C 
ATOM     15  C   UNL     1      30.655 -24.356 -13.972  0.00  0.00    +0.000 C 
ATOM     16  C   UNL     1      30.223 -23.161 -16.024  0.00  0.00    +0.000 C 
ATOM     17  C   UNL     1      29.755 -23.775 -14.866  0.00  0.00    +0.000 C 
ENDBRANCH   2   8
BRANCH   1  18
ATOM     18  C   UNL     1      35.994 -21.024 -20.199  0.00  0.00    -0.077 C 
BRANCH  18  19
ATOM     19  C   UNL     1      34.766 -20.232 -20.644  0.00  0.00    -0.019 C 
BRANCH  19  20
ATOM     20  C   UNL     1      34.986 -19.594 -22.014  0.00  0.00    +0.045 C 
BRANCH  20  21
ATOM     21  C   UNL     1      35.733 -18.271 -21.906  0.00  0.00    +0.208 C 
BRANCH  21  22
ATOM     22  O   UNL     1      35.271 -17.548 -20.774  0.00  0.00    -0.452 OA
BRANCH  22  28
ATOM     23  O   UNL     1      33.953 -12.231 -25.100  0.00  0.00    -0.275 OA
ATOM     24  N   UNL     1      34.316 -13.990 -23.668  0.00  0.00    -0.263 N 
ATOM     25  N   UNL     1      34.791 -15.782 -22.199  0.00  0.00    -0.357 NA
ATOM     26  C   UNL     1      33.171 -14.111 -21.546  0.00  0.00    +0.090 C 
ATOM     27  C   UNL     1      32.356 -12.912 -21.929  0.00  0.00    +0.022 C 
ATOM     28  C   UNL     1      34.563 -16.400 -21.019  0.00  0.00    +0.278 C 
ATOM     29  C   UNL     1      34.100 -14.643 -22.440  0.00  0.00    +0.170 C 
ATOM     30  C   UNL     1      33.141 -11.999 -22.856  0.00  0.00    +0.086 C 
ATOM     31  C   UNL     1      32.955 -14.788 -20.346  0.00  0.00    -0.012 C 
ATOM     32  C   UNL     1      33.667 -15.948 -20.067  0.00  0.00    +0.068 C 
ATOM     33  C   UNL     1      33.804 -12.749 -23.993  0.00  0.00    +0.228 C 
ATOM     34  H   UNL     1      34.870 -14.448 -24.341  0.00  0.00    +0.157 HD
ENDBRANCH  22  28
ENDBRANCH  21  22
ENDBRANCH  20  21
ENDBRANCH  19  20
ENDBRANCH  18  19
ENDBRANCH   1  18
TORSDOF 7
ENDMDL
MODEL 9
REMARK VINA RESULT:     -11.2      8.516     12.849
REMARK  Name = 11697676
REMARK  7 active torsions:
REMARK  status: ('A' for Active; 'I' for Inactive)
REMARK    1  A    between atoms: N_1  and  C_18
REMARK    2  A    between atoms: N_2  and  C_8
REMARK    3  A    between atoms: C_18  and  C_19
REMARK    4  A    between atoms: C_19  and  C_20
REMARK    5  A    between atoms: C_20  and  C_21
REMARK    6  A    between atoms: C_21  and  O_22
REMARK    7  A    between atoms: O_22  and  C_28
REMARK                            x       y       z     vdW  Elec       q    Type
REMARK                         _______ _______ _______ _____ _____    ______ ____
ROOT
ATOM      1  N   UNL     1      35.989 -20.898 -20.320  0.00  0.00    +0.389 N 
ATOM      2  N   UNL     1      35.272 -18.594 -21.850  0.00  0.00    -0.312 N 
ATOM      3  C   UNL     1      34.577 -20.531 -20.494  0.00  0.00    -0.055 C 
ATOM      4  C   UNL     1      36.817 -19.686 -20.272  0.00  0.00    -0.055 C 
ATOM      5  C   UNL     1      34.369 -19.750 -21.793  0.00  0.00    +0.068 C 
ATOM      6  C   UNL     1      36.682 -18.876 -21.564  0.00  0.00    +0.068 C 
ATOM      7  H   UNL     1      36.281 -21.466 -21.115  0.00  0.00    -0.080 HD
ENDROOT
BRANCH   2   8
ATOM      8  C   UNL     1      34.935 -17.538 -22.703  0.00  0.00    +0.048 C 
ATOM      9  C   UNL     1      34.533 -16.259 -22.225  0.00  0.00    +0.013 C 
ATOM     10  C   UNL     1      34.993 -17.741 -24.099  0.00  0.00    +0.015 C 
ATOM     11  C   UNL     1      34.202 -15.225 -23.132  0.00  0.00    +0.001 C 
ATOM     12  C   UNL     1      34.460 -16.011 -20.845  0.00  0.00    +0.001 C 
ATOM     13  C   UNL     1      34.669 -16.723 -24.992  0.00  0.00    +0.001 C 
ATOM     14  C   UNL     1      34.276 -15.474 -24.513  0.00  0.00    +0.000 C 
ATOM     15  C   UNL     1      33.809 -13.973 -22.633  0.00  0.00    +0.000 C 
ATOM     16  C   UNL     1      34.067 -14.761 -20.366  0.00  0.00    +0.000 C 
ATOM     17  C   UNL     1      33.741 -13.744 -21.258  0.00  0.00    +0.000 C 
ENDBRANCH   2   8
BRANCH   1  18
ATOM     18  C   UNL     1      36.167 -21.690 -19.104  0.00  0.00    -0.077 C 
BRANCH  18  19
ATOM     19  C   UNL     1      35.084 -22.762 -19.005  0.00  0.00    -0.019 C 
BRANCH  19  20
ATOM     20  C   UNL     1      34.206 -22.550 -17.773  0.00  0.00    +0.045 C 
BRANCH  20  21
ATOM     21  C   UNL     1      34.218 -23.767 -16.858  0.00  0.00    +0.208 C 
BRANCH  21  22
ATOM     22  O   UNL     1      34.255 -23.348 -15.501  0.00  0.00    -0.452 OA
BRANCH  22  28
ATOM     23  O   UNL     1      40.837 -25.586 -14.866  0.00  0.00    -0.275 OA
ATOM     24  N   UNL     1      38.678 -24.816 -15.012  0.00  0.00    -0.263 N 
ATOM     25  N   UNL     1      36.443 -24.079 -15.248  0.00  0.00    -0.357 NA
ATOM     26  C   UNL     1      37.158 -25.043 -13.150  0.00  0.00    +0.090 C 
ATOM     27  C   UNL     1      38.285 -25.558 -12.305  0.00  0.00    +0.022 C 
ATOM     28  C   UNL     1      35.216 -23.916 -14.704  0.00  0.00    +0.278 C 
ATOM     29  C   UNL     1      37.391 -24.648 -14.467  0.00  0.00    +0.170 C 
ATOM     30  C   UNL     1      39.308 -26.289 -13.158  0.00  0.00    +0.086 C 
ATOM     31  C   UNL     1      35.882 -24.844 -12.623  0.00  0.00    -0.012 C 
ATOM     32  C   UNL     1      34.887 -24.281 -13.411  0.00  0.00    +0.068 C 
ATOM     33  C   UNL     1      39.701 -25.513 -14.398  0.00  0.00    +0.228 C 
ATOM     34  H   UNL     1      38.862 -24.410 -15.890  0.00  0.00    +0.157 HD
ENDBRANCH  22  28
ENDBRANCH  21  22
ENDBRANCH  20  21
ENDBRANCH  19  20
ENDBRANCH  18  19
ENDBRANCH   1  18
TORSDOF 7
ENDMDL
