MODEL 1
REMARK VINA RESULT:     -11.2      0.000      0.000
REMARK  Name = 57336276
REMARK  5 active torsions:
REMARK  status: ('A' for Active; 'I' for Inactive)
REMARK    1  A    between atoms: C_2  and  C_16
REMARK    2  A    between atoms: C_6  and  O_17
REMARK    3  A    between atoms: O_17  and  C_18
REMARK    4  A    between atoms: C_18  and  C_21
REMARK    5  A    between atoms: C_22  and  C_26
REMARK                            x       y       z     vdW  Elec       q    Type
REMARK                         _______ _______ _______ _____ _____    ______ ____
ROOT
ATOM      1  N   UNL     1      33.831 -12.248 -24.085  0.00  0.00    -0.210 NA
ATOM      2  C   UNL     1      33.656 -14.651 -23.883  0.00  0.00    +0.073 C 
ATOM      3  C   UNL     1      32.863 -14.505 -22.750  0.00  0.00    +0.011 C 
ATOM      4  C   UNL     1      34.111 -13.501 -24.509  0.00  0.00    +0.107 C 
ATOM      5  C   UNL     1      32.553 -13.231 -22.285  0.00  0.00    +0.058 C 
ATOM      6  C   UNL     1      33.058 -12.146 -22.982  0.00  0.00    +0.225 C 
ENDROOT
BRANCH   2  16
ATOM      7  S   UNL     1      35.041 -18.983 -21.474  0.00  0.00    -0.007 S 
ATOM      8  O   UNL     1      34.113 -19.694 -20.617  0.00  0.00    -0.173 OA
ATOM      9  O   UNL     1      36.463 -19.267 -21.426  0.00  0.00    -0.173 OA
ATOM     10  O   UNL     1      33.509 -16.285 -25.484  0.00  0.00    -0.270 OA
ATOM     11  N   UNL     1      34.840 -16.789 -23.628  0.00  0.00    -0.272 N 
ATOM     12  C   UNL     1      34.490 -19.179 -23.161  0.00  0.00    +0.172 C 
ATOM     13  C   UNL     1      34.811 -17.234 -21.203  0.00  0.00    +0.172 C 
ATOM     14  C   UNL     1      35.138 -18.151 -24.077  0.00  0.00    +0.119 C 
ATOM     15  C   UNL     1      35.424 -16.416 -22.330  0.00  0.00    +0.119 C 
ATOM     16  C   UNL     1      34.001 -15.981 -24.399  0.00  0.00    +0.251 C 
ENDBRANCH   2  16
BRANCH   6  17
ATOM     17  O   UNL     1      32.766 -10.881 -22.543  0.00  0.00    -0.455 OA
BRANCH  17  18
ATOM     18  C   UNL     1      31.542 -10.714 -21.839  0.00  0.00    +0.238 C 
BRANCH  18  21
ATOM     19  O   UNL     1      31.992  -9.104 -18.551  0.00  0.00    -0.358 OA
ATOM     20  N   UNL     1      32.251  -8.010 -19.368  0.00  0.00    -0.078 NA
ATOM     21  C   UNL     1      31.778  -9.835 -20.646  0.00  0.00    +0.075 A 
ATOM     22  C   UNL     1      32.116  -8.471 -20.615  0.00  0.00    +0.122 A 
ATOM     23  C   UNL     1      31.712 -10.184 -19.323  0.00  0.00    +0.154 A 
ATOM     24  C   UNL     1      31.413 -11.435 -18.612  0.00  0.00    +0.075 C 
BRANCH  22  26
ATOM     25  F   UNL     1      32.890  -5.079 -24.962  0.00  0.00    -0.204 F 
ATOM     26  C   UNL     1      32.316  -7.594 -21.738  0.00  0.00    +0.021 C 
ATOM     27  C   UNL     1      31.230  -6.928 -22.305  0.00  0.00    +0.004 C 
ATOM     28  C   UNL     1      33.597  -7.410 -22.261  0.00  0.00    +0.004 C 
ATOM     29  C   UNL     1      31.424  -6.078 -23.394  0.00  0.00    +0.030 C 
ATOM     30  C   UNL     1      33.790  -6.560 -23.350  0.00  0.00    +0.030 C 
ATOM     31  C   UNL     1      32.704  -5.895 -23.917  0.00  0.00    +0.140 C 
ENDBRANCH  22  26
ENDBRANCH  18  21
ENDBRANCH  17  18
ENDBRANCH   6  17
TORSDOF 5
ENDMDL
MODEL 2
REMARK VINA RESULT:     -10.4      4.608     10.384
REMARK  Name = 57336276
REMARK  5 active torsions:
REMARK  status: ('A' for Active; 'I' for Inactive)
REMARK    1  A    between atoms: C_2  and  C_16
REMARK    2  A    between atoms: C_6  and  O_17
REMARK    3  A    between atoms: O_17  and  C_18
REMARK    4  A    between atoms: C_18  and  C_21
REMARK    5  A    between atoms: C_22  and  C_26
REMARK                            x       y       z     vdW  Elec       q    Type
REMARK                         _______ _______ _______ _____ _____    ______ ____
ROOT
ATOM      1  N   UNL     1      34.720 -14.535 -22.074  0.00  0.00    -0.210 NA
ATOM      2  C   UNL     1      33.263 -12.642 -22.446  0.00  0.00    +0.073 C 
ATOM      3  C   UNL     1      32.239 -13.287 -21.763  0.00  0.00    +0.011 C 
ATOM      4  C   UNL     1      34.475 -13.303 -22.573  0.00  0.00    +0.107 C 
ATOM      5  C   UNL     1      32.454 -14.556 -21.234  0.00  0.00    +0.058 C 
ATOM      6  C   UNL     1      33.701 -15.130 -21.416  0.00  0.00    +0.225 C 
ENDROOT
BRANCH   2  16
ATOM      7  S   UNL     1      32.450  -8.078 -20.211  0.00  0.00    -0.007 S 
ATOM      8  O   UNL     1      33.473  -7.447 -19.400  0.00  0.00    -0.173 OA
ATOM      9  O   UNL     1      31.073  -7.625 -20.155  0.00  0.00    -0.173 OA
ATOM     10  O   UNL     1      33.571 -11.107 -24.121  0.00  0.00    -0.270 OA
ATOM     11  N   UNL     1      32.346 -10.370 -22.268  0.00  0.00    -0.272 N 
ATOM     12  C   UNL     1      32.987  -8.021 -21.913  0.00  0.00    +0.172 C 
ATOM     13  C   UNL     1      32.478  -9.829 -19.866  0.00  0.00    +0.172 C 
ATOM     14  C   UNL     1      32.203  -9.001 -22.773  0.00  0.00    +0.119 C 
ATOM     15  C   UNL     1      31.749 -10.615 -20.947  0.00  0.00    +0.119 C 
ATOM     16  C   UNL     1      33.068 -11.303 -23.016  0.00  0.00    +0.251 C 
ENDBRANCH   2  16
BRANCH   6  17
ATOM     17  O   UNL     1      33.938 -16.379 -20.904  0.00  0.00    -0.455 OA
BRANCH  17  18
ATOM     18  C   UNL     1      35.159 -17.005 -21.279  0.00  0.00    +0.238 C 
BRANCH  18  21
ATOM     19  O   UNL     1      34.559 -18.823 -24.433  0.00  0.00    -0.358 OA
ATOM     20  N   UNL     1      34.466 -19.887 -23.544  0.00  0.00    -0.078 NA
ATOM     21  C   UNL     1      34.893 -17.964 -22.402  0.00  0.00    +0.075 A 
ATOM     22  C   UNL     1      34.668 -19.350 -22.338  0.00  0.00    +0.122 A 
ATOM     23  C   UNL     1      34.814 -17.683 -23.741  0.00  0.00    +0.154 A 
ATOM     24  C   UNL     1      34.944 -16.453 -24.534  0.00  0.00    +0.075 C 
BRANCH  22  26
ATOM     25  F   UNL     1      34.565 -22.550 -17.783  0.00  0.00    -0.204 F 
ATOM     26  C   UNL     1      34.641 -20.177 -21.161  0.00  0.00    +0.021 C 
ATOM     27  C   UNL     1      33.421 -20.541 -20.592  0.00  0.00    +0.004 C 
ATOM     28  C   UNL     1      35.836 -20.615 -20.588  0.00  0.00    +0.004 C 
ATOM     29  C   UNL     1      33.395 -21.343 -19.451  0.00  0.00    +0.030 C 
ATOM     30  C   UNL     1      35.810 -21.416 -19.447  0.00  0.00    +0.030 C 
ATOM     31  C   UNL     1      34.590 -21.780 -18.878  0.00  0.00    +0.140 C 
ENDBRANCH  22  26
ENDBRANCH  18  21
ENDBRANCH  17  18
ENDBRANCH   6  17
TORSDOF 5
ENDMDL
MODEL 3
REMARK VINA RESULT:     -10.0      1.232      1.867
REMARK  Name = 57336276
REMARK  5 active torsions:
REMARK  status: ('A' for Active; 'I' for Inactive)
REMARK    1  A    between atoms: C_2  and  C_16
REMARK    2  A    between atoms: C_6  and  O_17
REMARK    3  A    between atoms: O_17  and  C_18
REMARK    4  A    between atoms: C_18  and  C_21
REMARK    5  A    between atoms: C_22  and  C_26
REMARK                            x       y       z     vdW  Elec       q    Type
REMARK                         _______ _______ _______ _____ _____    ______ ____
ROOT
ATOM      1  N   UNL     1      32.391 -13.076 -22.156  0.00  0.00    -0.210 NA
ATOM      2  C   UNL     1      33.451 -14.186 -24.024  0.00  0.00    +0.073 C 
ATOM      3  C   UNL     1      33.993 -12.976 -24.443  0.00  0.00    +0.011 C 
ATOM      4  C   UNL     1      32.663 -14.183 -22.883  0.00  0.00    +0.107 C 
ATOM      5  C   UNL     1      33.736 -11.817 -23.720  0.00  0.00    +0.058 C 
ATOM      6  C   UNL     1      32.935 -11.920 -22.594  0.00  0.00    +0.225 C 
ENDROOT
BRANCH   2  16
ATOM      7  S   UNL     1      35.153 -18.789 -22.475  0.00  0.00    -0.007 S 
ATOM      8  O   UNL     1      34.360 -19.625 -21.595  0.00  0.00    -0.173 OA
ATOM      9  O   UNL     1      36.563 -19.057 -22.682  0.00  0.00    -0.173 OA
ATOM     10  O   UNL     1      33.052 -15.584 -25.796  0.00  0.00    -0.270 OA
ATOM     11  N   UNL     1      34.645 -16.321 -24.249  0.00  0.00    -0.272 N 
ATOM     12  C   UNL     1      34.351 -18.758 -24.070  0.00  0.00    +0.172 C 
ATOM     13  C   UNL     1      34.978 -17.098 -21.932  0.00  0.00    +0.172 C 
ATOM     14  C   UNL     1      34.861 -17.605 -24.922  0.00  0.00    +0.119 C 
ATOM     15  C   UNL     1      35.420 -16.123 -23.015  0.00  0.00    +0.119 C 
ATOM     16  C   UNL     1      33.704 -15.427 -24.765  0.00  0.00    +0.251 C 
ENDBRANCH   2  16
BRANCH   6  17
ATOM     17  O   UNL     1      32.667 -10.791 -21.864  0.00  0.00    -0.455 OA
BRANCH  17  18
ATOM     18  C   UNL     1      32.534  -9.576 -22.590  0.00  0.00    +0.238 C 
BRANCH  18  21
ATOM     19  O   UNL     1      32.061  -7.261 -19.757  0.00  0.00    -0.358 OA
ATOM     20  N   UNL     1      32.316  -6.333 -20.759  0.00  0.00    -0.078 NA
ATOM     21  C   UNL     1      32.389  -8.439 -21.621  0.00  0.00    +0.075 A 
ATOM     22  C   UNL     1      32.508  -7.059 -21.863  0.00  0.00    +0.122 A 
ATOM     23  C   UNL     1      32.107  -8.511 -20.283  0.00  0.00    +0.154 A 
ATOM     24  C   UNL     1      31.858  -9.621 -19.352  0.00  0.00    +0.075 C 
BRANCH  22  26
ATOM     25  F   UNL     1      33.642  -4.561 -26.708  0.00  0.00    -0.204 F 
ATOM     26  C   UNL     1      32.801  -6.414 -23.115  0.00  0.00    +0.021 C 
ATOM     27  C   UNL     1      33.897  -6.826 -23.873  0.00  0.00    +0.004 C 
ATOM     28  C   UNL     1      31.990  -5.375 -23.572  0.00  0.00    +0.004 C 
ATOM     29  C   UNL     1      34.181  -6.201 -25.087  0.00  0.00    +0.030 C 
ATOM     30  C   UNL     1      32.274  -4.749 -24.786  0.00  0.00    +0.030 C 
ATOM     31  C   UNL     1      33.369  -5.161 -25.543  0.00  0.00    +0.140 C 
ENDBRANCH  22  26
ENDBRANCH  18  21
ENDBRANCH  17  18
ENDBRANCH   6  17
TORSDOF 5
ENDMDL
MODEL 4
REMARK VINA RESULT:     -10.0      8.391     12.660
REMARK  Name = 57336276
REMARK  5 active torsions:
REMARK  status: ('A' for Active; 'I' for Inactive)
REMARK    1  A    between atoms: C_2  and  C_16
REMARK    2  A    between atoms: C_6  and  O_17
REMARK    3  A    between atoms: O_17  and  C_18
REMARK    4  A    between atoms: C_18  and  C_21
REMARK    5  A    between atoms: C_22  and  C_26
REMARK                            x       y       z     vdW  Elec       q    Type
REMARK                         _______ _______ _______ _____ _____    ______ ____
ROOT
ATOM      1  N   UNL     1      35.952 -22.756 -16.503  0.00  0.00    -0.210 NA
ATOM      2  C   UNL     1      37.770 -23.784 -15.285  0.00  0.00    +0.073 C 
ATOM      3  C   UNL     1      38.685 -22.996 -15.973  0.00  0.00    +0.011 C 
ATOM      4  C   UNL     1      36.425 -23.627 -15.584  0.00  0.00    +0.107 C 
ATOM      5  C   UNL     1      38.236 -22.087 -16.926  0.00  0.00    +0.058 C 
ATOM      6  C   UNL     1      36.871 -22.007 -17.151  0.00  0.00    +0.225 C 
ENDROOT
BRANCH   2  16
ATOM      7  S   UNL     1      35.898 -24.944 -10.634  0.00  0.00    -0.007 S 
ATOM      8  O   UNL     1      34.599 -25.570 -10.483  0.00  0.00    -0.173 OA
ATOM      9  O   UNL     1      36.561 -24.328  -9.501  0.00  0.00    -0.173 OA
ATOM     10  O   UNL     1      38.833 -25.727 -14.694  0.00  0.00    -0.270 OA
ATOM     11  N   UNL     1      37.895 -24.499 -12.938  0.00  0.00    -0.272 N 
ATOM     12  C   UNL     1      37.008 -26.149 -11.343  0.00  0.00    +0.172 C 
ATOM     13  C   UNL     1      35.775 -23.731 -11.938  0.00  0.00    +0.172 C 
ATOM     14  C   UNL     1      38.252 -25.485 -11.915  0.00  0.00    +0.119 C 
ATOM     15  C   UNL     1      37.152 -23.328 -12.446  0.00  0.00    +0.119 C 
ATOM     16  C   UNL     1      38.213 -24.752 -14.274  0.00  0.00    +0.251 C 
ENDBRANCH   2  16
BRANCH   6  17
ATOM     17  O   UNL     1      36.403 -21.119 -18.084  0.00  0.00    -0.455 OA
BRANCH  17  18
ATOM     18  C   UNL     1      36.085 -21.646 -19.366  0.00  0.00    +0.238 C 
BRANCH  18  21
ATOM     19  O   UNL     1      32.411 -21.943 -19.482  0.00  0.00    -0.358 OA
ATOM     20  N   UNL     1      32.570 -20.853 -20.329  0.00  0.00    -0.078 NA
ATOM     21  C   UNL     1      34.603 -21.553 -19.582  0.00  0.00    +0.075 A 
ATOM     22  C   UNL     1      33.888 -20.639 -20.373  0.00  0.00    +0.122 A 
ATOM     23  C   UNL     1      33.628 -22.352 -19.044  0.00  0.00    +0.154 A 
ATOM     24  C   UNL     1      33.642 -23.504 -18.132  0.00  0.00    +0.075 C 
BRANCH  22  26
ATOM     25  F   UNL     1      35.956 -16.488 -23.455  0.00  0.00    -0.204 F 
ATOM     26  C   UNL     1      34.422 -19.566 -21.169  0.00  0.00    +0.021 C 
ATOM     27  C   UNL     1      34.481 -18.273 -20.649  0.00  0.00    +0.004 C 
ATOM     28  C   UNL     1      34.882 -19.819 -22.463  0.00  0.00    +0.004 C 
ATOM     29  C   UNL     1      35.000 -17.234 -21.421  0.00  0.00    +0.030 C 
ATOM     30  C   UNL     1      35.400 -18.779 -23.235  0.00  0.00    +0.030 C 
ATOM     31  C   UNL     1      35.458 -17.487 -22.714  0.00  0.00    +0.140 C 
ENDBRANCH  22  26
ENDBRANCH  18  21
ENDBRANCH  17  18
ENDBRANCH   6  17
TORSDOF 5
ENDMDL
MODEL 5
REMARK VINA RESULT:      -9.9      4.330     10.134
REMARK  Name = 57336276
REMARK  5 active torsions:
REMARK  status: ('A' for Active; 'I' for Inactive)
REMARK    1  A    between atoms: C_2  and  C_16
REMARK    2  A    between atoms: C_6  and  O_17
REMARK    3  A    between atoms: O_17  and  C_18
REMARK    4  A    between atoms: C_18  and  C_21
REMARK    5  A    between atoms: C_22  and  C_26
REMARK                            x       y       z     vdW  Elec       q    Type
REMARK                         _______ _______ _______ _____ _____    ______ ____
ROOT
ATOM      1  N   UNL     1      32.649 -12.129 -22.534  0.00  0.00    -0.210 NA
ATOM      2  C   UNL     1      32.048 -10.816 -20.594  0.00  0.00    +0.073 C 
ATOM      3  C   UNL     1      31.855 -11.979 -19.858  0.00  0.00    +0.011 C 
ATOM      4  C   UNL     1      32.442 -10.943 -21.918  0.00  0.00    +0.107 C 
ATOM      5  C   UNL     1      32.060 -13.217 -20.458  0.00  0.00    +0.058 C 
ATOM      6  C   UNL     1      32.452 -13.237 -21.786  0.00  0.00    +0.225 C 
ENDROOT
BRANCH   2  16
ATOM      7  S   UNL     1      31.695  -6.131 -22.696  0.00  0.00    -0.007 S 
ATOM      8  O   UNL     1      30.581  -5.776 -23.553  0.00  0.00    -0.173 OA
ATOM      9  O   UNL     1      32.897  -5.319 -22.664  0.00  0.00    -0.173 OA
ATOM     10  O   UNL     1      31.248  -9.478 -18.913  0.00  0.00    -0.270 OA
ATOM     11  N   UNL     1      32.317  -8.375 -20.678  0.00  0.00    -0.272 N 
ATOM     12  C   UNL     1      31.078  -6.279 -21.027  0.00  0.00    +0.172 C 
ATOM     13  C   UNL     1      32.165  -7.811 -23.074  0.00  0.00    +0.172 C 
ATOM     14  C   UNL     1      32.054  -7.037 -20.141  0.00  0.00    +0.119 C 
ATOM     15  C   UNL     1      33.025  -8.405 -21.967  0.00  0.00    +0.119 C 
ATOM     16  C   UNL     1      31.840  -9.494 -19.991  0.00  0.00    +0.251 C 
ENDBRANCH   2  16
BRANCH   6  17
ATOM     17  O   UNL     1      32.660 -14.445 -22.399  0.00  0.00    -0.455 OA
BRANCH  17  18
ATOM     18  C   UNL     1      34.012 -14.825 -22.624  0.00  0.00    +0.238 C 
BRANCH  18  21
ATOM     19  O   UNL     1      34.023 -16.055 -26.102  0.00  0.00    -0.358 OA
ATOM     20  N   UNL     1      34.471 -17.204 -25.461  0.00  0.00    -0.078 NA
ATOM     21  C   UNL     1      34.105 -15.558 -23.930  0.00  0.00    +0.075 A 
ATOM     22  C   UNL     1      34.511 -16.883 -24.165  0.00  0.00    +0.122 A 
ATOM     23  C   UNL     1      33.808 -15.082 -25.180  0.00  0.00    +0.154 A 
ATOM     24  C   UNL     1      33.328 -13.791 -25.692  0.00  0.00    +0.075 C 
BRANCH  22  26
ATOM     25  F   UNL     1      36.165 -20.633 -20.395  0.00  0.00    -0.204 F 
ATOM     26  C   UNL     1      34.938 -17.852 -23.190  0.00  0.00    +0.021 C 
ATOM     27  C   UNL     1      35.688 -17.447 -22.086  0.00  0.00    +0.004 C 
ATOM     28  C   UNL     1      34.603 -19.197 -23.350  0.00  0.00    +0.004 C 
ATOM     29  C   UNL     1      36.102 -18.386 -21.141  0.00  0.00    +0.030 C 
ATOM     30  C   UNL     1      35.018 -20.136 -22.405  0.00  0.00    +0.030 C 
ATOM     31  C   UNL     1      35.767 -19.731 -21.302  0.00  0.00    +0.140 C 
ENDBRANCH  22  26
ENDBRANCH  18  21
ENDBRANCH  17  18
ENDBRANCH   6  17
TORSDOF 5
ENDMDL
MODEL 6
REMARK VINA RESULT:      -9.7      4.528     10.373
REMARK  Name = 57336276
REMARK  5 active torsions:
REMARK  status: ('A' for Active; 'I' for Inactive)
REMARK    1  A    between atoms: C_2  and  C_16
REMARK    2  A    between atoms: C_6  and  O_17
REMARK    3  A    between atoms: O_17  and  C_18
REMARK    4  A    between atoms: C_18  and  C_21
REMARK    5  A    between atoms: C_22  and  C_26
REMARK                            x       y       z     vdW  Elec       q    Type
REMARK                         _______ _______ _______ _____ _____    ______ ____
ROOT
ATOM      1  N   UNL     1      33.488 -13.754 -21.697  0.00  0.00    -0.210 NA
ATOM      2  C   UNL     1      32.507 -11.620 -22.269  0.00  0.00    +0.073 C 
ATOM      3  C   UNL     1      33.295 -11.556 -23.412  0.00  0.00    +0.011 C 
ATOM      4  C   UNL     1      32.640 -12.731 -21.450  0.00  0.00    +0.107 C 
ATOM      5  C   UNL     1      34.179 -12.591 -23.699  0.00  0.00    +0.058 C 
ATOM      6  C   UNL     1      34.238 -13.657 -22.818  0.00  0.00    +0.225 C 
ENDROOT
BRANCH   2  16
ATOM      7  S   UNL     1      32.516  -6.606 -23.431  0.00  0.00    -0.007 S 
ATOM      8  O   UNL     1      32.358  -6.153 -24.799  0.00  0.00    -0.173 OA
ATOM      9  O   UNL     1      33.007  -5.708 -22.403  0.00  0.00    -0.173 OA
ATOM     10  O   UNL     1      30.402 -10.890 -21.729  0.00  0.00    -0.270 OA
ATOM     11  N   UNL     1      32.049  -9.236 -21.893  0.00  0.00    -0.272 N 
ATOM     12  C   UNL     1      30.951  -7.272 -22.889  0.00  0.00    +0.172 C 
ATOM     13  C   UNL     1      33.556  -8.057 -23.449  0.00  0.00    +0.172 C 
ATOM     14  C   UNL     1      31.116  -8.133 -21.645  0.00  0.00    +0.119 C 
ATOM     15  C   UNL     1      33.441  -8.834 -22.145  0.00  0.00    +0.119 C 
ATOM     16  C   UNL     1      31.564 -10.545 -21.938  0.00  0.00    +0.251 C 
ENDBRANCH   2  16
BRANCH   6  17
ATOM     17  O   UNL     1      35.101 -14.689 -23.079  0.00  0.00    -0.455 OA
BRANCH  17  18
ATOM     18  C   UNL     1      34.849 -15.920 -22.412  0.00  0.00    +0.238 C 
BRANCH  18  21
ATOM     19  O   UNL     1      34.112 -18.067 -25.319  0.00  0.00    -0.358 OA
ATOM     20  N   UNL     1      34.563 -19.040 -24.435  0.00  0.00    -0.078 NA
ATOM     21  C   UNL     1      34.634 -16.996 -23.435  0.00  0.00    +0.075 A 
ATOM     22  C   UNL     1      34.869 -18.377 -23.317  0.00  0.00    +0.122 A 
ATOM     23  C   UNL     1      34.158 -16.855 -24.712  0.00  0.00    +0.154 A 
ATOM     24  C   UNL     1      33.712 -15.705 -25.512  0.00  0.00    +0.075 C 
BRANCH  22  26
ATOM     25  F   UNL     1      36.835 -21.109 -18.881  0.00  0.00    -0.204 F 
ATOM     26  C   UNL     1      35.377 -19.083 -22.171  0.00  0.00    +0.021 C 
ATOM     27  C   UNL     1      36.679 -18.851 -21.729  0.00  0.00    +0.004 C 
ATOM     28  C   UNL     1      34.567 -20.001 -21.501  0.00  0.00    +0.004 C 
ATOM     29  C   UNL     1      37.172 -19.534 -20.618  0.00  0.00    +0.030 C 
ATOM     30  C   UNL     1      35.060 -20.685 -20.389  0.00  0.00    +0.030 C 
ATOM     31  C   UNL     1      36.362 -20.452 -19.948  0.00  0.00    +0.140 C 
ENDBRANCH  22  26
ENDBRANCH  18  21
ENDBRANCH  17  18
ENDBRANCH   6  17
TORSDOF 5
ENDMDL
MODEL 7
REMARK VINA RESULT:      -9.5      4.973     10.179
REMARK  Name = 57336276
REMARK  5 active torsions:
REMARK  status: ('A' for Active; 'I' for Inactive)
REMARK    1  A    between atoms: C_2  and  C_16
REMARK    2  A    between atoms: C_6  and  O_17
REMARK    3  A    between atoms: O_17  and  C_18
REMARK    4  A    between atoms: C_18  and  C_21
REMARK    5  A    between atoms: C_22  and  C_26
REMARK                            x       y       z     vdW  Elec       q    Type
REMARK                         _______ _______ _______ _____ _____    ______ ____
ROOT
ATOM      1  N   UNL     1      31.518  -8.747 -23.277  0.00  0.00    -0.210 NA
ATOM      2  C   UNL     1      31.269  -6.614 -22.166  0.00  0.00    +0.073 C 
ATOM      3  C   UNL     1      32.040  -7.070 -21.103  0.00  0.00    +0.011 C 
ATOM      4  C   UNL     1      31.039  -7.484 -23.221  0.00  0.00    +0.107 C 
ATOM      5  C   UNL     1      32.551  -8.364 -21.126  0.00  0.00    +0.058 C 
ATOM      6  C   UNL     1      32.263  -9.154 -22.226  0.00  0.00    +0.225 C 
ENDROOT
BRANCH   2  16
ATOM      7  S   UNL     1      31.625  -2.810 -25.615  0.00  0.00    -0.007 S 
ATOM      8  O   UNL     1      31.020  -2.928 -26.927  0.00  0.00    -0.173 OA
ATOM      9  O   UNL     1      32.616  -1.786 -25.343  0.00  0.00    -0.173 OA
ATOM     10  O   UNL     1      29.690  -5.085 -21.517  0.00  0.00    -0.270 OA
ATOM     11  N   UNL     1      31.382  -4.277 -22.916  0.00  0.00    -0.272 N 
ATOM     12  C   UNL     1      30.312  -2.647 -24.417  0.00  0.00    +0.172 C 
ATOM     13  C   UNL     1      32.329  -4.395 -25.190  0.00  0.00    +0.172 C 
ATOM     14  C   UNL     1      30.811  -2.930 -23.008  0.00  0.00    +0.119 C 
ATOM     15  C   UNL     1      32.610  -4.490 -23.697  0.00  0.00    +0.119 C 
ATOM     16  C   UNL     1      30.716  -5.254 -22.173  0.00  0.00    +0.251 C 
ENDBRANCH   2  16
BRANCH   6  17
ATOM     17  O   UNL     1      32.755 -10.433 -22.272  0.00  0.00    -0.455 OA
BRANCH  17  18
ATOM     18  C   UNL     1      31.801 -11.483 -22.363  0.00  0.00    +0.238 C 
BRANCH  18  21
ATOM     19  O   UNL     1      31.871 -13.245 -19.123  0.00  0.00    -0.358 OA
ATOM     20  N   UNL     1      32.533 -14.187 -19.900  0.00  0.00    -0.078 NA
ATOM     21  C   UNL     1      31.960 -12.395 -21.182  0.00  0.00    +0.075 A 
ATOM     22  C   UNL     1      32.575 -13.658 -21.125  0.00  0.00    +0.122 A 
ATOM     23  C   UNL     1      31.535 -12.182 -19.897  0.00  0.00    +0.154 A 
ATOM     24  C   UNL     1      30.823 -11.085 -19.228  0.00  0.00    +0.075 C 
BRANCH  22  26
ATOM     25  F   UNL     1      34.994 -16.431 -25.303  0.00  0.00    -0.204 F 
ATOM     26  C   UNL     1      33.200 -14.375 -22.205  0.00  0.00    +0.021 C 
ATOM     27  C   UNL     1      34.206 -15.303 -21.936  0.00  0.00    +0.004 C 
ATOM     28  C   UNL     1      32.801 -14.142 -23.522  0.00  0.00    +0.004 C 
ATOM     29  C   UNL     1      34.811 -15.998 -22.983  0.00  0.00    +0.030 C 
ATOM     30  C   UNL     1      33.407 -14.837 -24.568  0.00  0.00    +0.030 C 
ATOM     31  C   UNL     1      34.412 -15.764 -24.299  0.00  0.00    +0.140 C 
ENDBRANCH  22  26
ENDBRANCH  18  21
ENDBRANCH  17  18
ENDBRANCH   6  17
TORSDOF 5
ENDMDL
MODEL 8
REMARK VINA RESULT:      -8.9      4.708      9.623
REMARK  Name = 57336276
REMARK  5 active torsions:
REMARK  status: ('A' for Active; 'I' for Inactive)
REMARK    1  A    between atoms: C_2  and  C_16
REMARK    2  A    between atoms: C_6  and  O_17
REMARK    3  A    between atoms: O_17  and  C_18
REMARK    4  A    between atoms: C_18  and  C_21
REMARK    5  A    between atoms: C_22  and  C_26
REMARK                            x       y       z     vdW  Elec       q    Type
REMARK                         _______ _______ _______ _____ _____    ______ ____
ROOT
ATOM      1  N   UNL     1      31.214  -8.378 -22.961  0.00  0.00    -0.210 NA
ATOM      2  C   UNL     1      31.522  -5.981 -22.930  0.00  0.00    +0.073 C 
ATOM      3  C   UNL     1      32.113  -6.066 -21.675  0.00  0.00    +0.011 C 
ATOM      4  C   UNL     1      31.093  -7.156 -23.527  0.00  0.00    +0.107 C 
ATOM      5  C   UNL     1      32.256  -7.307 -21.062  0.00  0.00    +0.058 C 
ATOM      6  C   UNL     1      31.794  -8.422 -21.742  0.00  0.00    +0.225 C 
ENDROOT
BRANCH   2  16
ATOM      7  S   UNL     1      33.692  -4.053 -27.180  0.00  0.00    -0.007 S 
ATOM      8  O   UNL     1      33.423  -4.625 -28.485  0.00  0.00    -0.173 OA
ATOM      9  O   UNL     1      34.813  -3.155 -26.980  0.00  0.00    -0.173 OA
ATOM     10  O   UNL     1      30.279  -4.121 -23.431  0.00  0.00    -0.270 OA
ATOM     11  N   UNL     1      32.415  -4.210 -24.380  0.00  0.00    -0.272 N 
ATOM     12  C   UNL     1      32.210  -3.228 -26.627  0.00  0.00    +0.172 C 
ATOM     13  C   UNL     1      33.835  -5.395 -26.011  0.00  0.00    +0.172 C 
ATOM     14  C   UNL     1      32.251  -2.961 -25.129  0.00  0.00    +0.119 C 
ATOM     15  C   UNL     1      33.701  -4.896 -24.580  0.00  0.00    +0.119 C 
ATOM     16  C   UNL     1      31.357  -4.687 -23.603  0.00  0.00    +0.251 C 
ENDBRANCH   2  16
BRANCH   6  17
ATOM     17  O   UNL     1      31.923  -9.655 -21.159  0.00  0.00    -0.455 OA
BRANCH  17  18
ATOM     18  C   UNL     1      31.422 -10.766 -21.892  0.00  0.00    +0.238 C 
BRANCH  18  21
ATOM     19  O   UNL     1      32.453 -13.642 -19.825  0.00  0.00    -0.358 OA
ATOM     20  N   UNL     1      32.957 -14.060 -21.051  0.00  0.00    -0.078 NA
ATOM     21  C   UNL     1      31.946 -12.033 -21.283  0.00  0.00    +0.075 A 
ATOM     22  C   UNL     1      32.642 -13.084 -21.906  0.00  0.00    +0.122 A 
ATOM     23  C   UNL     1      31.854 -12.433 -19.976  0.00  0.00    +0.154 A 
ATOM     24  C   UNL     1      31.263 -11.841 -18.768  0.00  0.00    +0.075 C 
BRANCH  22  26
ATOM     25  F   UNL     1      34.089 -13.473 -27.269  0.00  0.00    -0.204 F 
ATOM     26  C   UNL     1      33.016 -13.184 -23.291  0.00  0.00    +0.021 C 
ATOM     27  C   UNL     1      32.730 -14.345 -24.009  0.00  0.00    +0.004 C 
ATOM     28  C   UNL     1      33.666 -12.120 -23.919  0.00  0.00    +0.004 C 
ATOM     29  C   UNL     1      33.091 -14.442 -25.353  0.00  0.00    +0.030 C 
ATOM     30  C   UNL     1      34.028 -12.218 -25.262  0.00  0.00    +0.030 C 
ATOM     31  C   UNL     1      33.741 -13.379 -25.979  0.00  0.00    +0.140 C 
ENDBRANCH  22  26
ENDBRANCH  18  21
ENDBRANCH  17  18
ENDBRANCH   6  17
TORSDOF 5
ENDMDL
MODEL 9
REMARK VINA RESULT:      -8.9      2.277      3.750
REMARK  Name = 57336276
REMARK  5 active torsions:
REMARK  status: ('A' for Active; 'I' for Inactive)
REMARK    1  A    between atoms: C_2  and  C_16
REMARK    2  A    between atoms: C_6  and  O_17
REMARK    3  A    between atoms: O_17  and  C_18
REMARK    4  A    between atoms: C_18  and  C_21
REMARK    5  A    between atoms: C_22  and  C_26
REMARK                            x       y       z     vdW  Elec       q    Type
REMARK                         _______ _______ _______ _____ _____    ______ ____
ROOT
ATOM      1  N   UNL     1      32.959 -12.896 -22.611  0.00  0.00    -0.210 NA
ATOM      2  C   UNL     1      33.637 -14.311 -24.450  0.00  0.00    +0.073 C 
ATOM      3  C   UNL     1      34.099 -13.199 -25.145  0.00  0.00    +0.011 C 
ATOM      4  C   UNL     1      33.080 -14.108 -23.197  0.00  0.00    +0.107 C 
ATOM      5  C   UNL     1      33.992 -11.935 -24.574  0.00  0.00    +0.058 C 
ATOM      6  C   UNL     1      33.419 -11.839 -23.316  0.00  0.00    +0.225 C 
ENDROOT
BRANCH   2  16
ATOM      7  S   UNL     1      35.178 -18.778 -22.411  0.00  0.00    -0.007 S 
ATOM      8  O   UNL     1      34.421 -19.421 -21.354  0.00  0.00    -0.173 OA
ATOM      9  O   UNL     1      36.541 -19.181 -22.699  0.00  0.00    -0.173 OA
ATOM     10  O   UNL     1      32.977 -15.903 -25.961  0.00  0.00    -0.270 OA
ATOM     11  N   UNL     1      34.661 -16.544 -24.469  0.00  0.00    -0.272 N 
ATOM     12  C   UNL     1      34.229 -18.903 -23.918  0.00  0.00    +0.172 C 
ATOM     13  C   UNL     1      35.168 -17.020 -22.103  0.00  0.00    +0.172 C 
ATOM     14  C   UNL     1      34.727 -17.921 -24.968  0.00  0.00    +0.119 C 
ATOM     15  C   UNL     1      35.565 -16.240 -23.348  0.00  0.00    +0.119 C 
ATOM     16  C   UNL     1      33.736 -15.658 -25.025  0.00  0.00    +0.251 C 
ENDBRANCH   2  16
BRANCH   6  17
ATOM     17  O   UNL     1      33.303 -10.604 -22.732  0.00  0.00    -0.455 OA
BRANCH  17  18
ATOM     18  C   UNL     1      33.777  -9.494 -23.483  0.00  0.00    +0.238 C 
BRANCH  18  21
ATOM     19  O   UNL     1      32.500  -6.119 -22.718  0.00  0.00    -0.358 OA
ATOM     20  N   UNL     1      31.992  -6.800 -21.619  0.00  0.00    -0.078 NA
ATOM     21  C   UNL     1      33.151  -8.238 -22.951  0.00  0.00    +0.075 A 
ATOM     22  C   UNL     1      32.394  -8.064 -21.780  0.00  0.00    +0.122 A 
ATOM     23  C   UNL     1      33.189  -6.985 -23.504  0.00  0.00    +0.154 A 
ATOM     24  C   UNL     1      33.797  -6.425 -24.719  0.00  0.00    +0.075 C 
BRANCH  22  26
ATOM     25  F   UNL     1      31.029 -11.943 -18.026  0.00  0.00    -0.204 F 
ATOM     26  C   UNL     1      32.041  -9.066 -20.810  0.00  0.00    +0.021 C 
ATOM     27  C   UNL     1      31.187 -10.110 -21.164  0.00  0.00    +0.004 C 
ATOM     28  C   UNL     1      32.553  -8.994 -19.514  0.00  0.00    +0.004 C 
ATOM     29  C   UNL     1      30.846 -11.082 -20.224  0.00  0.00    +0.030 C 
ATOM     30  C   UNL     1      32.211  -9.966 -18.573  0.00  0.00    +0.030 C 
ATOM     31  C   UNL     1      31.357 -11.010 -18.928  0.00  0.00    +0.140 C 
ENDBRANCH  22  26
ENDBRANCH  18  21
ENDBRANCH  17  18
ENDBRANCH   6  17
TORSDOF 5
ENDMDL
