MODEL 1
REMARK VINA RESULT:     -11.1      0.000      0.000
REMARK  Name = 6420159
REMARK  9 active torsions:
REMARK  status: ('A' for Active; 'I' for Inactive)
REMARK    1  A    between atoms: C_1  and  N_3
REMARK    2  A    between atoms: C_1  and  C_15
REMARK    3  A    between atoms: C_1  and  C_29
REMARK    4  A    between atoms: N_14  and  C_17
REMARK    5  A    between atoms: C_17  and  C_18
REMARK    6  A    between atoms: C_18  and  N_19
REMARK    7  A    between atoms: N_19  and  C_21
REMARK    8  A    between atoms: C_26  and  O_27
REMARK    9  A    between atoms: C_29  and  C_30
REMARK                            x       y       z     vdW  Elec       q    Type
REMARK                         _______ _______ _______ _____ _____    ______ ____
ROOT
ATOM      1  C   UNL     1      33.699 -23.592 -16.823  0.00  0.00    +0.151 C 
ENDROOT
BRANCH   1   3
ATOM      2  O   UNL     1      36.229 -23.049 -14.226  0.00  0.00    -0.414 OA
ATOM      3  N   UNL     1      34.658 -23.021 -15.900  0.00  0.00    -0.271 N 
ATOM      4  N   UNL     1      35.354 -25.054 -14.819  0.00  0.00    -0.356 NA
ATOM      5  C   UNL     1      35.390 -23.771 -14.997  0.00  0.00    +0.345 C 
ATOM      6  C   UNL     1      36.811 -24.008 -13.447  0.00  0.00    +0.175 C 
ATOM      7  C   UNL     1      36.273 -25.234 -13.813  0.00  0.00    +0.152 C 
ATOM      8  C   UNL     1      37.770 -23.828 -12.458  0.00  0.00    +0.040 C 
ATOM      9  C   UNL     1      36.712 -26.390 -13.153  0.00  0.00    +0.088 C 
ATOM     10  C   UNL     1      38.197 -24.992 -11.809  0.00  0.00    -0.001 C 
ATOM     11  C   UNL     1      37.680 -26.249 -12.148  0.00  0.00    -0.018 C 
ATOM     12  H   UNL     1      34.796 -22.047 -15.917  0.00  0.00    +0.153 HD
ENDBRANCH   1   3
BRANCH   1  15
ATOM     13  O   UNL     1      33.474 -23.564 -19.235  0.00  0.00    -0.273 OA
ATOM     14  N   UNL     1      35.181 -22.334 -18.262  0.00  0.00    -0.301 N 
ATOM     15  C   UNL     1      34.080 -23.176 -18.238  0.00  0.00    +0.240 C 
ATOM     16  H   UNL     1      35.603 -22.076 -17.410  0.00  0.00    +0.150 HD
BRANCH  14  17
ATOM     17  C   UNL     1      35.729 -21.822 -19.495  0.00  0.00    +0.111 C 
BRANCH  17  18
ATOM     18  C   UNL     1      34.827 -20.779 -20.136  0.00  0.00    +0.109 C 
BRANCH  18  19
ATOM     19  N   UNL     1      35.614 -19.695 -20.674  0.00  0.00    -0.331 N 
ATOM     20  H   UNL     1      36.410 -19.405 -20.173  0.00  0.00    +0.147 HD
BRANCH  19  21
ATOM     21  C   UNL     1      35.311 -19.037 -21.856  0.00  0.00    +0.045 C 
ATOM     22  C   UNL     1      34.850 -19.748 -22.980  0.00  0.00    +0.017 C 
ATOM     23  C   UNL     1      35.458 -17.642 -21.964  0.00  0.00    +0.017 C 
ATOM     24  C   UNL     1      34.547 -19.086 -24.170  0.00  0.00    +0.038 C 
ATOM     25  C   UNL     1      35.155 -16.980 -23.154  0.00  0.00    +0.038 C 
ATOM     26  C   UNL     1      34.700 -17.702 -24.257  0.00  0.00    +0.139 C 
BRANCH  26  27
ATOM     27  O   UNL     1      34.403 -17.056 -25.418  0.00  0.00    -0.471 OA
ATOM     28  C   UNL     1      33.773 -15.781 -25.309  0.00  0.00    +0.252 C 
ENDBRANCH  26  27
ENDBRANCH  19  21
ENDBRANCH  18  19
ENDBRANCH  17  18
ENDBRANCH  14  17
ENDBRANCH   1  15
BRANCH   1  29
ATOM     29  C   UNL     1      32.288 -23.103 -16.495  0.00  0.00    +0.029 C 
BRANCH  29  30
ATOM     30  C   UNL     1      31.418 -24.198 -15.881  0.00  0.00    +0.002 C 
ATOM     31  C   UNL     1      29.929 -23.870 -16.057  0.00  0.00    +0.000 C 
ATOM     32  C   UNL     1      31.761 -24.396 -14.398  0.00  0.00    +0.000 C 
ATOM     33  C   UNL     1      29.039 -24.925 -15.404  0.00  0.00    +0.000 C 
ATOM     34  C   UNL     1      30.868 -25.449 -13.748  0.00  0.00    +0.000 C 
ATOM     35  C   UNL     1      29.389 -25.125 -13.933  0.00  0.00    +0.000 C 
ENDBRANCH  29  30
ENDBRANCH   1  29
TORSDOF 9
ENDMDL
MODEL 2
REMARK VINA RESULT:     -11.0      3.063      7.438
REMARK  Name = 6420159
REMARK  9 active torsions:
REMARK  status: ('A' for Active; 'I' for Inactive)
REMARK    1  A    between atoms: C_1  and  N_3
REMARK    2  A    between atoms: C_1  and  C_15
REMARK    3  A    between atoms: C_1  and  C_29
REMARK    4  A    between atoms: N_14  and  C_17
REMARK    5  A    between atoms: C_17  and  C_18
REMARK    6  A    between atoms: C_18  and  N_19
REMARK    7  A    between atoms: N_19  and  C_21
REMARK    8  A    between atoms: C_26  and  O_27
REMARK    9  A    between atoms: C_29  and  C_30
REMARK                            x       y       z     vdW  Elec       q    Type
REMARK                         _______ _______ _______ _____ _____    ______ ____
ROOT
ATOM      1  C   UNL     1      33.879 -23.302 -16.723  0.00  0.00    +0.151 C 
ENDROOT
BRANCH   1   3
ATOM      2  O   UNL     1      36.034 -25.658 -14.921  0.00  0.00    -0.414 OA
ATOM      3  N   UNL     1      34.618 -24.466 -16.280  0.00  0.00    -0.271 N 
ATOM      4  N   UNL     1      35.674 -23.494 -14.349  0.00  0.00    -0.356 NA
ATOM      5  C   UNL     1      35.434 -24.474 -15.162  0.00  0.00    +0.345 C 
ATOM      6  C   UNL     1      36.759 -25.395 -13.794  0.00  0.00    +0.175 C 
ATOM      7  C   UNL     1      36.537 -24.070 -13.447  0.00  0.00    +0.152 C 
ATOM      8  C   UNL     1      37.581 -26.269 -13.094  0.00  0.00    +0.040 C 
ATOM      9  C   UNL     1      37.175 -23.551 -12.312  0.00  0.00    +0.088 C 
ATOM     10  C   UNL     1      38.211 -25.735 -11.964  0.00  0.00    -0.001 C 
ATOM     11  C   UNL     1      38.013 -24.403 -11.579  0.00  0.00    -0.018 C 
ATOM     12  H   UNL     1      34.536 -25.295 -16.803  0.00  0.00    +0.153 HD
ENDBRANCH   1   3
BRANCH   1  15
ATOM     13  O   UNL     1      31.476 -22.997 -16.746  0.00  0.00    -0.273 OA
ATOM     14  N   UNL     1      32.470 -23.864 -14.839  0.00  0.00    -0.301 N 
ATOM     15  C   UNL     1      32.476 -23.364 -16.133  0.00  0.00    +0.240 C 
ATOM     16  H   UNL     1      33.322 -24.133 -14.428  0.00  0.00    +0.150 HD
BRANCH  14  17
ATOM     17  C   UNL     1      31.252 -24.002 -14.077  0.00  0.00    +0.111 C 
BRANCH  17  18
ATOM     18  C   UNL     1      30.807 -25.451 -13.961  0.00  0.00    +0.109 C 
BRANCH  18  19
ATOM     19  N   UNL     1      29.549 -25.648 -14.641  0.00  0.00    -0.331 N 
ATOM     20  H   UNL     1      29.180 -26.561 -14.681  0.00  0.00    +0.147 HD
BRANCH  19  21
ATOM     21  C   UNL     1      28.831 -24.627 -15.242  0.00  0.00    +0.045 C 
ATOM     22  C   UNL     1      28.392 -23.517 -14.496  0.00  0.00    +0.017 C 
ATOM     23  C   UNL     1      28.520 -24.673 -16.614  0.00  0.00    +0.017 C 
ATOM     24  C   UNL     1      27.667 -22.490 -15.101  0.00  0.00    +0.038 C 
ATOM     25  C   UNL     1      27.796 -23.646 -17.218  0.00  0.00    +0.038 C 
ATOM     26  C   UNL     1      27.369 -22.555 -16.462  0.00  0.00    +0.139 C 
BRANCH  26  27
ATOM     27  O   UNL     1      26.664 -21.552 -17.053  0.00  0.00    -0.471 OA
ATOM     28  C   UNL     1      25.942 -21.877 -18.240  0.00  0.00    +0.252 C 
ENDBRANCH  26  27
ENDBRANCH  19  21
ENDBRANCH  18  19
ENDBRANCH  17  18
ENDBRANCH  14  17
ENDBRANCH   1  15
BRANCH   1  29
ATOM     29  C   UNL     1      33.805 -23.267 -18.250  0.00  0.00    +0.029 C 
BRANCH  29  30
ATOM     30  C   UNL     1      34.257 -21.928 -18.827  0.00  0.00    +0.002 C 
ATOM     31  C   UNL     1      33.232 -21.399 -19.839  0.00  0.00    +0.000 C 
ATOM     32  C   UNL     1      35.644 -22.054 -19.471  0.00  0.00    +0.000 C 
ATOM     33  C   UNL     1      33.687 -20.085 -20.469  0.00  0.00    +0.000 C 
ATOM     34  C   UNL     1      36.095 -20.740 -20.103  0.00  0.00    +0.000 C 
ATOM     35  C   UNL     1      35.069 -20.213 -21.101  0.00  0.00    +0.000 C 
ENDBRANCH  29  30
ENDBRANCH   1  29
TORSDOF 9
ENDMDL
MODEL 3
REMARK VINA RESULT:     -10.6      1.210      4.767
REMARK  Name = 6420159
REMARK  9 active torsions:
REMARK  status: ('A' for Active; 'I' for Inactive)
REMARK    1  A    between atoms: C_1  and  N_3
REMARK    2  A    between atoms: C_1  and  C_15
REMARK    3  A    between atoms: C_1  and  C_29
REMARK    4  A    between atoms: N_14  and  C_17
REMARK    5  A    between atoms: C_17  and  C_18
REMARK    6  A    between atoms: C_18  and  N_19
REMARK    7  A    between atoms: N_19  and  C_21
REMARK    8  A    between atoms: C_26  and  O_27
REMARK    9  A    between atoms: C_29  and  C_30
REMARK                            x       y       z     vdW  Elec       q    Type
REMARK                         _______ _______ _______ _____ _____    ______ ____
ROOT
ATOM      1  C   UNL     1      35.605 -23.106 -15.805  0.00  0.00    +0.151 C 
ENDROOT
BRANCH   1   3
ATOM      2  O   UNL     1      32.041 -23.806 -16.300  0.00  0.00    -0.414 OA
ATOM      3  N   UNL     1      34.266 -23.240 -16.339  0.00  0.00    -0.271 N 
ATOM      4  N   UNL     1      33.217 -24.217 -14.406  0.00  0.00    -0.356 NA
ATOM      5  C   UNL     1      33.207 -23.768 -15.622  0.00  0.00    +0.345 C 
ATOM      6  C   UNL     1      31.188 -24.356 -15.386  0.00  0.00    +0.175 C 
ATOM      7  C   UNL     1      31.911 -24.606 -14.229  0.00  0.00    +0.152 C 
ATOM      8  C   UNL     1      29.836 -24.630 -15.549  0.00  0.00    +0.040 C 
ATOM      9  C   UNL     1      31.255 -25.176 -13.130  0.00  0.00    +0.088 C 
ATOM     10  C   UNL     1      29.195 -25.199 -14.443  0.00  0.00    -0.001 C 
ATOM     11  C   UNL     1      29.889 -25.468 -13.256  0.00  0.00    -0.018 C 
ATOM     12  H   UNL     1      34.101 -22.939 -17.261  0.00  0.00    +0.153 HD
ENDBRANCH   1   3
BRANCH   1  15
ATOM     13  O   UNL     1      37.615 -22.018 -16.608  0.00  0.00    -0.273 OA
ATOM     14  N   UNL     1      35.828 -22.268 -18.063  0.00  0.00    -0.301 N 
ATOM     15  C   UNL     1      36.475 -22.411 -16.845  0.00  0.00    +0.240 C 
ATOM     16  H   UNL     1      34.912 -22.615 -18.161  0.00  0.00    +0.150 HD
BRANCH  14  17
ATOM     17  C   UNL     1      36.456 -21.627 -19.194  0.00  0.00    +0.111 C 
BRANCH  17  18
ATOM     18  C   UNL     1      35.439 -21.038 -20.159  0.00  0.00    +0.109 C 
BRANCH  18  19
ATOM     19  N   UNL     1      35.800 -19.684 -20.507  0.00  0.00    -0.331 N 
ATOM     20  H   UNL     1      36.331 -19.164 -19.861  0.00  0.00    +0.147 HD
BRANCH  19  21
ATOM     21  C   UNL     1      35.441 -19.074 -21.699  0.00  0.00    +0.045 C 
ATOM     22  C   UNL     1      34.928 -19.829 -22.770  0.00  0.00    +0.017 C 
ATOM     23  C   UNL     1      35.582 -17.685 -21.870  0.00  0.00    +0.017 C 
ATOM     24  C   UNL     1      34.568 -19.215 -23.970  0.00  0.00    +0.038 C 
ATOM     25  C   UNL     1      35.223 -17.072 -23.070  0.00  0.00    +0.038 C 
ATOM     26  C   UNL     1      34.716 -17.837 -24.120  0.00  0.00    +0.139 C 
BRANCH  26  27
ATOM     27  O   UNL     1      34.364 -17.237 -25.290  0.00  0.00    -0.471 OA
ATOM     28  C   UNL     1      33.790 -15.934 -25.206  0.00  0.00    +0.252 C 
ENDBRANCH  26  27
ENDBRANCH  19  21
ENDBRANCH  18  19
ENDBRANCH  17  18
ENDBRANCH  14  17
ENDBRANCH   1  15
BRANCH   1  29
ATOM     29  C   UNL     1      36.185 -24.481 -15.471  0.00  0.00    +0.029 C 
BRANCH  29  30
ATOM     30  C   UNL     1      37.008 -24.471 -14.185  0.00  0.00    +0.002 C 
ATOM     31  C   UNL     1      36.952 -25.840 -13.494  0.00  0.00    +0.000 C 
ATOM     32  C   UNL     1      36.525 -23.363 -13.239  0.00  0.00    +0.000 C 
ATOM     33  C   UNL     1      37.725 -25.840 -12.177  0.00  0.00    +0.000 C 
ATOM     34  C   UNL     1      37.297 -23.368 -11.923  0.00  0.00    +0.000 C 
ATOM     35  C   UNL     1      37.247 -24.733 -11.244  0.00  0.00    +0.000 C 
ENDBRANCH  29  30
ENDBRANCH   1  29
TORSDOF 9
ENDMDL
MODEL 4
REMARK VINA RESULT:     -10.3      5.243     13.012
REMARK  Name = 6420159
REMARK  9 active torsions:
REMARK  status: ('A' for Active; 'I' for Inactive)
REMARK    1  A    between atoms: C_1  and  N_3
REMARK    2  A    between atoms: C_1  and  C_15
REMARK    3  A    between atoms: C_1  and  C_29
REMARK    4  A    between atoms: N_14  and  C_17
REMARK    5  A    between atoms: C_17  and  C_18
REMARK    6  A    between atoms: C_18  and  N_19
REMARK    7  A    between atoms: N_19  and  C_21
REMARK    8  A    between atoms: C_26  and  O_27
REMARK    9  A    between atoms: C_29  and  C_30
REMARK                            x       y       z     vdW  Elec       q    Type
REMARK                         _______ _______ _______ _____ _____    ______ ____
ROOT
ATOM      1  C   UNL     1      32.635 -13.820 -21.565  0.00  0.00    +0.151 C 
ENDROOT
BRANCH   1   3
ATOM      2  O   UNL     1      32.164 -10.586 -19.904  0.00  0.00    -0.414 OA
ATOM      3  N   UNL     1      32.497 -12.748 -20.602  0.00  0.00    -0.271 N 
ATOM      4  N   UNL     1      32.126 -10.939 -22.143  0.00  0.00    -0.356 NA
ATOM      5  C   UNL     1      32.260 -11.431 -20.952  0.00  0.00    +0.345 C 
ATOM      6  C   UNL     1      31.935  -9.386 -20.515  0.00  0.00    +0.175 C 
ATOM      7  C   UNL     1      31.913  -9.606 -21.885  0.00  0.00    +0.152 C 
ATOM      8  C   UNL     1      31.753  -8.149 -19.910  0.00  0.00    +0.040 C 
ATOM      9  C   UNL     1      31.692  -8.519 -22.742  0.00  0.00    +0.088 C 
ATOM     10  C   UNL     1      31.535  -7.075 -20.779  0.00  0.00    -0.001 C 
ATOM     11  C   UNL     1      31.504  -7.253 -22.167  0.00  0.00    -0.018 C 
ATOM     12  H   UNL     1      32.576 -12.969 -19.646  0.00  0.00    +0.153 HD
ENDBRANCH   1   3
BRANCH   1  15
ATOM     13  O   UNL     1      32.320 -15.569 -19.920  0.00  0.00    -0.273 OA
ATOM     14  N   UNL     1      34.200 -15.640 -21.274  0.00  0.00    -0.301 N 
ATOM     15  C   UNL     1      33.007 -15.096 -20.823  0.00  0.00    +0.240 C 
ATOM     16  H   UNL     1      34.683 -15.192 -22.005  0.00  0.00    +0.150 HD
BRANCH  14  17
ATOM     17  C   UNL     1      34.756 -16.846 -20.707  0.00  0.00    +0.111 C 
BRANCH  17  18
ATOM     18  C   UNL     1      35.065 -17.891 -21.768  0.00  0.00    +0.109 C 
BRANCH  18  19
ATOM     19  N   UNL     1      35.733 -19.026 -21.177  0.00  0.00    -0.331 N 
ATOM     20  H   UNL     1      36.715 -19.071 -21.239  0.00  0.00    +0.147 HD
BRANCH  19  21
ATOM     21  C   UNL     1      35.072 -20.056 -20.527  0.00  0.00    +0.045 C 
ATOM     22  C   UNL     1      33.668 -20.147 -20.559  0.00  0.00    +0.017 C 
ATOM     23  C   UNL     1      35.787 -21.038 -19.816  0.00  0.00    +0.017 C 
ATOM     24  C   UNL     1      33.003 -21.184 -19.904  0.00  0.00    +0.038 C 
ATOM     25  C   UNL     1      35.121 -22.074 -19.161  0.00  0.00    +0.038 C 
ATOM     26  C   UNL     1      33.730 -22.147 -19.205  0.00  0.00    +0.139 C 
BRANCH  26  27
ATOM     27  O   UNL     1      33.081 -23.159 -18.566  0.00  0.00    -0.471 OA
ATOM     28  C   UNL     1      33.467 -23.432 -17.220  0.00  0.00    +0.252 C 
ENDBRANCH  26  27
ENDBRANCH  19  21
ENDBRANCH  18  19
ENDBRANCH  17  18
ENDBRANCH  14  17
ENDBRANCH   1  15
BRANCH   1  29
ATOM     29  C   UNL     1      33.716 -13.476 -22.592  0.00  0.00    +0.029 C 
BRANCH  29  30
ATOM     30  C   UNL     1      33.247 -13.695 -24.029  0.00  0.00    +0.002 C 
ATOM     31  C   UNL     1      33.657 -15.087 -24.527  0.00  0.00    +0.000 C 
ATOM     32  C   UNL     1      33.800 -12.601 -24.953  0.00  0.00    +0.000 C 
ATOM     33  C   UNL     1      33.246 -15.310 -25.981  0.00  0.00    +0.000 C 
ATOM     34  C   UNL     1      33.389 -12.827 -26.405  0.00  0.00    +0.000 C 
ATOM     35  C   UNL     1      33.790 -14.216 -26.894  0.00  0.00    +0.000 C 
ENDBRANCH  29  30
ENDBRANCH   1  29
TORSDOF 9
ENDMDL
MODEL 5
REMARK VINA RESULT:     -10.1      2.764      8.480
REMARK  Name = 6420159
REMARK  9 active torsions:
REMARK  status: ('A' for Active; 'I' for Inactive)
REMARK    1  A    between atoms: C_1  and  N_3
REMARK    2  A    between atoms: C_1  and  C_15
REMARK    3  A    between atoms: C_1  and  C_29
REMARK    4  A    between atoms: N_14  and  C_17
REMARK    5  A    between atoms: C_17  and  C_18
REMARK    6  A    between atoms: C_18  and  N_19
REMARK    7  A    between atoms: N_19  and  C_21
REMARK    8  A    between atoms: C_26  and  O_27
REMARK    9  A    between atoms: C_29  and  C_30
REMARK                            x       y       z     vdW  Elec       q    Type
REMARK                         _______ _______ _______ _____ _____    ______ ____
ROOT
ATOM      1  C   UNL     1      35.271 -24.181 -15.625  0.00  0.00    +0.151 C 
ENDROOT
BRANCH   1   3
ATOM      2  O   UNL     1      33.386 -22.390 -18.210  0.00  0.00    -0.414 OA
ATOM      3  N   UNL     1      34.235 -23.623 -16.468  0.00  0.00    -0.271 N 
ATOM      4  N   UNL     1      35.643 -22.408 -17.995  0.00  0.00    -0.356 NA
ATOM      5  C   UNL     1      34.490 -22.806 -17.555  0.00  0.00    +0.345 C 
ATOM      6  C   UNL     1      33.910 -21.620 -19.209  0.00  0.00    +0.175 C 
ATOM      7  C   UNL     1      35.291 -21.634 -19.074  0.00  0.00    +0.152 C 
ATOM      8  C   UNL     1      33.218 -20.933 -20.198  0.00  0.00    +0.040 C 
ATOM      9  C   UNL     1      36.068 -20.910 -19.989  0.00  0.00    +0.088 C 
ATOM     10  C   UNL     1      34.008 -20.216 -21.104  0.00  0.00    -0.001 C 
ATOM     11  C   UNL     1      35.405 -20.204 -21.003  0.00  0.00    -0.018 C 
ATOM     12  H   UNL     1      33.298 -23.838 -16.256  0.00  0.00    +0.153 HD
ENDBRANCH   1   3
BRANCH   1  15
ATOM     13  O   UNL     1      35.057 -26.373 -14.617  0.00  0.00    -0.273 OA
ATOM     14  N   UNL     1      33.560 -24.713 -14.001  0.00  0.00    -0.301 N 
ATOM     15  C   UNL     1      34.643 -25.219 -14.705  0.00  0.00    +0.240 C 
ATOM     16  H   UNL     1      33.301 -23.773 -14.135  0.00  0.00    +0.150 HD
BRANCH  14  17
ATOM     17  C   UNL     1      32.802 -25.521 -13.077  0.00  0.00    +0.111 C 
BRANCH  17  18
ATOM     18  C   UNL     1      31.320 -25.546 -13.417  0.00  0.00    +0.109 C 
BRANCH  18  19
ATOM     19  N   UNL     1      30.864 -24.226 -13.783  0.00  0.00    -0.331 N 
ATOM     20  H   UNL     1      31.269 -23.452 -13.328  0.00  0.00    +0.147 HD
BRANCH  19  21
ATOM     21  C   UNL     1      29.888 -23.986 -14.737  0.00  0.00    +0.045 C 
ATOM     22  C   UNL     1      29.429 -25.019 -15.576  0.00  0.00    +0.017 C 
ATOM     23  C   UNL     1      29.332 -22.704 -14.895  0.00  0.00    +0.017 C 
ATOM     24  C   UNL     1      28.447 -24.777 -16.538  0.00  0.00    +0.038 C 
ATOM     25  C   UNL     1      28.350 -22.462 -15.856  0.00  0.00    +0.038 C 
ATOM     26  C   UNL     1      27.909 -23.498 -16.678  0.00  0.00    +0.139 C 
BRANCH  26  27
ATOM     27  O   UNL     1      26.950 -23.262 -17.615  0.00  0.00    -0.471 OA
ATOM     28  C   UNL     1      26.293 -21.997 -17.567  0.00  0.00    +0.252 C 
ENDBRANCH  26  27
ENDBRANCH  19  21
ENDBRANCH  18  19
ENDBRANCH  17  18
ENDBRANCH  14  17
ENDBRANCH   1  15
BRANCH   1  29
ATOM     29  C   UNL     1      35.935 -23.079 -14.798  0.00  0.00    +0.029 C 
BRANCH  29  30
ATOM     30  C   UNL     1      37.223 -23.549 -14.124  0.00  0.00    +0.002 C 
ATOM     31  C   UNL     1      37.889 -24.662 -14.944  0.00  0.00    +0.000 C 
ATOM     32  C   UNL     1      36.944 -24.019 -12.690  0.00  0.00    +0.000 C 
ATOM     33  C   UNL     1      39.151 -25.185 -14.263  0.00  0.00    +0.000 C 
ATOM     34  C   UNL     1      38.207 -24.544 -12.013  0.00  0.00    +0.000 C 
ATOM     35  C   UNL     1      38.872 -25.644 -12.835  0.00  0.00    +0.000 C 
ENDBRANCH  29  30
ENDBRANCH   1  29
TORSDOF 9
ENDMDL
MODEL 6
REMARK VINA RESULT:      -9.8      8.460     15.915
REMARK  Name = 6420159
REMARK  9 active torsions:
REMARK  status: ('A' for Active; 'I' for Inactive)
REMARK    1  A    between atoms: C_1  and  N_3
REMARK    2  A    between atoms: C_1  and  C_15
REMARK    3  A    between atoms: C_1  and  C_29
REMARK    4  A    between atoms: N_14  and  C_17
REMARK    5  A    between atoms: C_17  and  C_18
REMARK    6  A    between atoms: C_18  and  N_19
REMARK    7  A    between atoms: N_19  and  C_21
REMARK    8  A    between atoms: C_26  and  O_27
REMARK    9  A    between atoms: C_29  and  C_30
REMARK                            x       y       z     vdW  Elec       q    Type
REMARK                         _______ _______ _______ _____ _____    ______ ____
ROOT
ATOM      1  C   UNL     1      33.340  -8.831 -22.990  0.00  0.00    +0.151 C 
ENDROOT
BRANCH   1   3
ATOM      2  O   UNL     1      33.088  -5.592 -24.689  0.00  0.00    -0.414 OA
ATOM      3  N   UNL     1      33.483  -7.710 -23.895  0.00  0.00    -0.271 N 
ATOM      4  N   UNL     1      31.984  -6.181 -22.799  0.00  0.00    -0.356 NA
ATOM      5  C   UNL     1      32.817  -6.508 -23.737  0.00  0.00    +0.345 C 
ATOM      6  C   UNL     1      32.320  -4.530 -24.303  0.00  0.00    +0.175 C 
ATOM      7  C   UNL     1      31.647  -4.895 -23.146  0.00  0.00    +0.152 C 
ATOM      8  C   UNL     1      32.208  -3.295 -24.928  0.00  0.00    +0.040 C 
ATOM      9  C   UNL     1      30.784  -3.968 -22.544  0.00  0.00    +0.088 C 
ATOM     10  C   UNL     1      31.344  -2.382 -24.315  0.00  0.00    -0.001 C 
ATOM     11  C   UNL     1      30.645  -2.709 -23.146  0.00  0.00    -0.018 C 
ATOM     12  H   UNL     1      34.088  -7.809 -24.665  0.00  0.00    +0.153 HD
ENDBRANCH   1   3
BRANCH   1  15
ATOM     13  O   UNL     1      35.433  -9.829 -23.690  0.00  0.00    -0.273 OA
ATOM     14  N   UNL     1      33.526 -11.147 -23.659  0.00  0.00    -0.301 N 
ATOM     15  C   UNL     1      34.230  -9.966 -23.477  0.00  0.00    +0.240 C 
ATOM     16  H   UNL     1      32.562 -11.163 -23.461  0.00  0.00    +0.150 HD
BRANCH  14  17
ATOM     17  C   UNL     1      34.162 -12.355 -24.127  0.00  0.00    +0.111 C 
BRANCH  17  18
ATOM     18  C   UNL     1      33.537 -13.605 -23.528  0.00  0.00    +0.109 C 
BRANCH  18  19
ATOM     19  N   UNL     1      34.232 -14.785 -23.985  0.00  0.00    -0.331 N 
ATOM     20  H   UNL     1      34.479 -14.840 -24.937  0.00  0.00    +0.147 HD
BRANCH  19  21
ATOM     21  C   UNL     1      34.571 -15.846 -23.160  0.00  0.00    +0.045 C 
ATOM     22  C   UNL     1      34.494 -15.726 -21.760  0.00  0.00    +0.017 C 
ATOM     23  C   UNL     1      35.003 -17.071 -23.700  0.00  0.00    +0.017 C 
ATOM     24  C   UNL     1      34.836 -16.793 -20.930  0.00  0.00    +0.038 C 
ATOM     25  C   UNL     1      35.346 -18.139 -22.870  0.00  0.00    +0.038 C 
ATOM     26  C   UNL     1      35.263 -17.999 -21.485  0.00  0.00    +0.139 C 
BRANCH  26  27
ATOM     27  O   UNL     1      35.596 -19.042 -20.676  0.00  0.00    -0.471 OA
ATOM     28  C   UNL     1      34.732 -20.177 -20.690  0.00  0.00    +0.252 C 
ENDBRANCH  26  27
ENDBRANCH  19  21
ENDBRANCH  18  19
ENDBRANCH  17  18
ENDBRANCH  14  17
ENDBRANCH   1  15
BRANCH   1  29
ATOM     29  C   UNL     1      31.882  -9.291 -22.940  0.00  0.00    +0.029 C 
BRANCH  29  30
ATOM     30  C   UNL     1      31.408  -9.581 -21.517  0.00  0.00    +0.002 C 
ATOM     31  C   UNL     1      32.382  -8.987 -20.491  0.00  0.00    +0.000 C 
ATOM     32  C   UNL     1      31.239 -11.090 -21.298  0.00  0.00    +0.000 C 
ATOM     33  C   UNL     1      31.957  -9.308 -19.059  0.00  0.00    +0.000 C 
ATOM     34  C   UNL     1      30.817 -11.409 -19.866  0.00  0.00    +0.000 C 
ATOM     35  C   UNL     1      31.782 -10.809 -18.849  0.00  0.00    +0.000 C 
ENDBRANCH  29  30
ENDBRANCH   1  29
TORSDOF 9
ENDMDL
MODEL 7
REMARK VINA RESULT:      -9.7      2.275      5.008
REMARK  Name = 6420159
REMARK  9 active torsions:
REMARK  status: ('A' for Active; 'I' for Inactive)
REMARK    1  A    between atoms: C_1  and  N_3
REMARK    2  A    between atoms: C_1  and  C_15
REMARK    3  A    between atoms: C_1  and  C_29
REMARK    4  A    between atoms: N_14  and  C_17
REMARK    5  A    between atoms: C_17  and  C_18
REMARK    6  A    between atoms: C_18  and  N_19
REMARK    7  A    between atoms: N_19  and  C_21
REMARK    8  A    between atoms: C_26  and  O_27
REMARK    9  A    between atoms: C_29  and  C_30
REMARK                            x       y       z     vdW  Elec       q    Type
REMARK                         _______ _______ _______ _____ _____    ______ ____
ROOT
ATOM      1  C   UNL     1      33.527 -21.871 -18.321  0.00  0.00    +0.151 C 
ENDROOT
BRANCH   1   3
ATOM      2  O   UNL     1      30.680 -23.774 -17.011  0.00  0.00    -0.414 OA
ATOM      3  N   UNL     1      32.283 -22.592 -18.156  0.00  0.00    -0.271 N 
ATOM      4  N   UNL     1      32.488 -23.112 -15.815  0.00  0.00    -0.356 NA
ATOM      5  C   UNL     1      31.870 -23.141 -16.954  0.00  0.00    +0.345 C 
ATOM      6  C   UNL     1      30.516 -24.209 -15.727  0.00  0.00    +0.175 C 
ATOM      7  C   UNL     1      31.625 -23.802 -14.998  0.00  0.00    +0.152 C 
ATOM      8  C   UNL     1      29.449 -24.930 -15.207  0.00  0.00    +0.040 C 
ATOM      9  C   UNL     1      31.698 -24.129 -13.637  0.00  0.00    +0.088 C 
ATOM     10  C   UNL     1      29.537 -25.248 -13.848  0.00  0.00    -0.001 C 
ATOM     11  C   UNL     1      30.639 -24.857 -13.076  0.00  0.00    -0.018 C 
ATOM     12  H   UNL     1      31.699 -22.698 -18.941  0.00  0.00    +0.153 HD
ENDBRANCH   1   3
BRANCH   1  15
ATOM     13  O   UNL     1      32.485 -21.022 -20.336  0.00  0.00    -0.273 OA
ATOM     14  N   UNL     1      34.775 -20.769 -20.074  0.00  0.00    -0.301 N 
ATOM     15  C   UNL     1      33.511 -21.179 -19.677  0.00  0.00    +0.240 C 
ATOM     16  H   UNL     1      35.541 -20.938 -19.479  0.00  0.00    +0.150 HD
BRANCH  14  17
ATOM     17  C   UNL     1      35.004 -20.101 -21.333  0.00  0.00    +0.111 C 
BRANCH  17  18
ATOM     18  C   UNL     1      35.004 -18.587 -21.189  0.00  0.00    +0.109 C 
BRANCH  18  19
ATOM     19  N   UNL     1      35.594 -17.970 -22.353  0.00  0.00    -0.331 N 
ATOM     20  H   UNL     1      36.448 -18.329 -22.687  0.00  0.00    +0.147 HD
BRANCH  19  21
ATOM     21  C   UNL     1      35.027 -16.900 -23.028  0.00  0.00    +0.045 C 
ATOM     22  C   UNL     1      34.739 -16.985 -24.403  0.00  0.00    +0.017 C 
ATOM     23  C   UNL     1      34.727 -15.701 -22.358  0.00  0.00    +0.017 C 
ATOM     24  C   UNL     1      34.169 -15.908 -25.083  0.00  0.00    +0.038 C 
ATOM     25  C   UNL     1      34.158 -14.623 -23.038  0.00  0.00    +0.038 C 
ATOM     26  C   UNL     1      33.879 -14.727 -24.400  0.00  0.00    +0.139 C 
BRANCH  26  27
ATOM     27  O   UNL     1      33.323 -13.677 -25.062  0.00  0.00    -0.471 OA
ATOM     28  C   UNL     1      33.182 -13.800 -26.477  0.00  0.00    +0.252 C 
ENDBRANCH  26  27
ENDBRANCH  19  21
ENDBRANCH  18  19
ENDBRANCH  17  18
ENDBRANCH  14  17
ENDBRANCH   1  15
BRANCH   1  29
ATOM     29  C   UNL     1      34.715 -22.831 -18.235  0.00  0.00    +0.029 C 
BRANCH  29  30
ATOM     30  C   UNL     1      35.577 -22.585 -16.999  0.00  0.00    +0.002 C 
ATOM     31  C   UNL     1      37.021 -22.255 -17.402  0.00  0.00    +0.000 C 
ATOM     32  C   UNL     1      35.537 -23.796 -16.058  0.00  0.00    +0.000 C 
ATOM     33  C   UNL     1      37.916 -22.056 -16.182  0.00  0.00    +0.000 C 
ATOM     34  C   UNL     1      36.435 -23.595 -14.840  0.00  0.00    +0.000 C 
ATOM     35  C   UNL     1      37.867 -23.259 -15.246  0.00  0.00    +0.000 C 
ENDBRANCH  29  30
ENDBRANCH   1  29
TORSDOF 9
ENDMDL
MODEL 8
REMARK VINA RESULT:      -9.7      1.344      1.921
REMARK  Name = 6420159
REMARK  9 active torsions:
REMARK  status: ('A' for Active; 'I' for Inactive)
REMARK    1  A    between atoms: C_1  and  N_3
REMARK    2  A    between atoms: C_1  and  C_15
REMARK    3  A    between atoms: C_1  and  C_29
REMARK    4  A    between atoms: N_14  and  C_17
REMARK    5  A    between atoms: C_17  and  C_18
REMARK    6  A    between atoms: C_18  and  N_19
REMARK    7  A    between atoms: N_19  and  C_21
REMARK    8  A    between atoms: C_26  and  O_27
REMARK    9  A    between atoms: C_29  and  C_30
REMARK                            x       y       z     vdW  Elec       q    Type
REMARK                         _______ _______ _______ _____ _____    ______ ____
ROOT
ATOM      1  C   UNL     1      33.896 -23.605 -16.550  0.00  0.00    +0.151 C 
ENDROOT
BRANCH   1   3
ATOM      2  O   UNL     1      35.898 -26.096 -14.753  0.00  0.00    -0.414 OA
ATOM      3  N   UNL     1      34.546 -24.817 -16.100  0.00  0.00    -0.271 N 
ATOM      4  N   UNL     1      35.744 -23.896 -14.227  0.00  0.00    -0.356 NA
ATOM      5  C   UNL     1      35.394 -24.870 -15.007  0.00  0.00    +0.345 C 
ATOM      6  C   UNL     1      36.678 -25.871 -13.656  0.00  0.00    +0.175 C 
ATOM      7  C   UNL     1      36.582 -24.524 -13.337  0.00  0.00    +0.152 C 
ATOM      8  C   UNL     1      37.445 -26.796 -12.958  0.00  0.00    +0.040 C 
ATOM      9  C   UNL     1      37.298 -24.035 -12.236  0.00  0.00    +0.088 C 
ATOM     10  C   UNL     1      38.153 -26.293 -11.862  0.00  0.00    -0.001 C 
ATOM     11  C   UNL     1      38.083 -24.940 -11.506  0.00  0.00    -0.018 C 
ATOM     12  H   UNL     1      34.377 -25.649 -16.598  0.00  0.00    +0.153 HD
ENDBRANCH   1   3
BRANCH   1  15
ATOM     13  O   UNL     1      36.039 -22.566 -16.994  0.00  0.00    -0.273 OA
ATOM     14  N   UNL     1      34.350 -22.350 -18.567  0.00  0.00    -0.301 N 
ATOM     15  C   UNL     1      34.892 -22.796 -17.371  0.00  0.00    +0.240 C 
ATOM     16  H   UNL     1      33.419 -22.584 -18.786  0.00  0.00    +0.150 HD
BRANCH  14  17
ATOM     17  C   UNL     1      35.107 -21.553 -19.502  0.00  0.00    +0.111 C 
BRANCH  17  18
ATOM     18  C   UNL     1      34.215 -20.669 -20.360  0.00  0.00    +0.109 C 
BRANCH  18  19
ATOM     19  N   UNL     1      34.937 -20.198 -21.518  0.00  0.00    -0.331 N 
ATOM     20  H   UNL     1      35.459 -20.851 -22.038  0.00  0.00    +0.147 HD
BRANCH  19  21
ATOM     21  C   UNL     1      34.938 -18.877 -21.939  0.00  0.00    +0.045 C 
ATOM     22  C   UNL     1      34.952 -18.557 -23.310  0.00  0.00    +0.017 C 
ATOM     23  C   UNL     1      34.927 -17.822 -21.009  0.00  0.00    +0.017 C 
ATOM     24  C   UNL     1      34.954 -17.228 -23.734  0.00  0.00    +0.038 C 
ATOM     25  C   UNL     1      34.929 -16.493 -21.433  0.00  0.00    +0.038 C 
ATOM     26  C   UNL     1      34.943 -16.196 -22.795  0.00  0.00    +0.139 C 
BRANCH  26  27
ATOM     27  O   UNL     1      34.944 -14.899 -23.208  0.00  0.00    -0.471 OA
ATOM     28  C   UNL     1      33.812 -14.453 -23.952  0.00  0.00    +0.252 C 
ENDBRANCH  26  27
ENDBRANCH  19  21
ENDBRANCH  18  19
ENDBRANCH  17  18
ENDBRANCH  14  17
ENDBRANCH   1  15
BRANCH   1  29
ATOM     29  C   UNL     1      33.413 -22.784 -15.354  0.00  0.00    +0.029 C 
BRANCH  29  30
ATOM     30  C   UNL     1      31.995 -23.155 -14.924  0.00  0.00    +0.002 C 
ATOM     31  C   UNL     1      32.024 -24.211 -13.811  0.00  0.00    +0.000 C 
ATOM     32  C   UNL     1      31.177 -23.650 -16.125  0.00  0.00    +0.000 C 
ATOM     33  C   UNL     1      30.617 -24.637 -13.401  0.00  0.00    +0.000 C 
ATOM     34  C   UNL     1      29.771 -24.078 -15.711  0.00  0.00    +0.000 C 
ATOM     35  C   UNL     1      29.804 -25.121 -14.598  0.00  0.00    +0.000 C 
ENDBRANCH  29  30
ENDBRANCH   1  29
TORSDOF 9
ENDMDL
MODEL 9
REMARK VINA RESULT:      -9.3      6.819     13.372
REMARK  Name = 6420159
REMARK  9 active torsions:
REMARK  status: ('A' for Active; 'I' for Inactive)
REMARK    1  A    between atoms: C_1  and  N_3
REMARK    2  A    between atoms: C_1  and  C_15
REMARK    3  A    between atoms: C_1  and  C_29
REMARK    4  A    between atoms: N_14  and  C_17
REMARK    5  A    between atoms: C_17  and  C_18
REMARK    6  A    between atoms: C_18  and  N_19
REMARK    7  A    between atoms: N_19  and  C_21
REMARK    8  A    between atoms: C_26  and  O_27
REMARK    9  A    between atoms: C_29  and  C_30
REMARK                            x       y       z     vdW  Elec       q    Type
REMARK                         _______ _______ _______ _____ _____    ______ ____
ROOT
ATOM      1  C   UNL     1      34.095 -12.349 -23.524  0.00  0.00    +0.151 C 
ENDROOT
BRANCH   1   3
ATOM      2  O   UNL     1      34.307  -8.692 -23.687  0.00  0.00    -0.414 OA
ATOM      3  N   UNL     1      34.517 -10.979 -23.727  0.00  0.00    -0.271 N 
ATOM      4  N   UNL     1      32.531  -9.880 -22.930  0.00  0.00    -0.356 NA
ATOM      5  C   UNL     1      33.729  -9.883 -23.424  0.00  0.00    +0.345 C 
ATOM      6  C   UNL     1      33.340  -7.806 -23.306  0.00  0.00    +0.175 C 
ATOM      7  C   UNL     1      32.255  -8.536 -22.844  0.00  0.00    +0.152 C 
ATOM      8  C   UNL     1      33.396  -6.419 -23.358  0.00  0.00    +0.040 C 
ATOM      9  C   UNL     1      31.120  -7.850 -22.390  0.00  0.00    +0.088 C 
ATOM     10  C   UNL     1      32.256  -5.749 -22.901  0.00  0.00    -0.001 C 
ATOM     11  C   UNL     1      31.140  -6.448 -22.426  0.00  0.00    -0.018 C 
ATOM     12  H   UNL     1      35.414 -10.819 -24.100  0.00  0.00    +0.153 HD
ENDBRANCH   1   3
BRANCH   1  15
ATOM     13  O   UNL     1      33.834 -12.329 -25.932  0.00  0.00    -0.273 OA
ATOM     14  N   UNL     1      33.341 -14.277 -24.775  0.00  0.00    -0.301 N 
ATOM     15  C   UNL     1      33.755 -12.957 -24.878  0.00  0.00    +0.240 C 
ATOM     16  H   UNL     1      33.310 -14.698 -23.886  0.00  0.00    +0.150 HD
BRANCH  14  17
ATOM     17  C   UNL     1      32.956 -15.052 -25.929  0.00  0.00    +0.111 C 
BRANCH  17  18
ATOM     18  C   UNL     1      33.299 -16.526 -25.773  0.00  0.00    +0.109 C 
BRANCH  18  19
ATOM     19  N   UNL     1      34.583 -16.679 -25.131  0.00  0.00    -0.331 N 
ATOM     20  H   UNL     1      35.334 -16.130 -25.455  0.00  0.00    +0.147 HD
BRANCH  19  21
ATOM     21  C   UNL     1      34.820 -17.556 -24.084  0.00  0.00    +0.045 C 
ATOM     22  C   UNL     1      34.422 -18.903 -24.166  0.00  0.00    +0.017 C 
ATOM     23  C   UNL     1      35.464 -17.122 -22.910  0.00  0.00    +0.017 C 
ATOM     24  C   UNL     1      34.659 -19.785 -23.112  0.00  0.00    +0.038 C 
ATOM     25  C   UNL     1      35.701 -18.004 -21.856  0.00  0.00    +0.038 C 
ATOM     26  C   UNL     1      35.298 -19.335 -21.957  0.00  0.00    +0.139 C 
BRANCH  26  27
ATOM     27  O   UNL     1      35.531 -20.196 -20.928  0.00  0.00    -0.471 OA
ATOM     28  C   UNL     1      34.391 -20.747 -20.270  0.00  0.00    +0.252 C 
ENDBRANCH  26  27
ENDBRANCH  19  21
ENDBRANCH  18  19
ENDBRANCH  17  18
ENDBRANCH  14  17
ENDBRANCH   1  15
BRANCH   1  29
ATOM     29  C   UNL     1      32.873 -12.399 -22.605  0.00  0.00    +0.029 C 
BRANCH  29  30
ATOM     30  C   UNL     1      33.132 -13.203 -21.333  0.00  0.00    +0.002 C 
ATOM     31  C   UNL     1      34.354 -14.115 -21.506  0.00  0.00    +0.000 C 
ATOM     32  C   UNL     1      31.892 -14.020 -20.945  0.00  0.00    +0.000 C 
ATOM     33  C   UNL     1      34.602 -14.968 -20.265  0.00  0.00    +0.000 C 
ATOM     34  C   UNL     1      32.144 -14.874 -19.706  0.00  0.00    +0.000 C 
ATOM     35  C   UNL     1      33.365 -15.772 -19.879  0.00  0.00    +0.000 C 
ENDBRANCH  29  30
ENDBRANCH   1  29
TORSDOF 9
ENDMDL
