MODEL 1
REMARK VINA RESULT:     -11.2      0.000      0.000
REMARK  Name = 5327153
REMARK  6 active torsions:
REMARK  status: ('A' for Active; 'I' for Inactive)
REMARK    1  A    between atoms: C_3  and  C_15
REMARK    2  A    between atoms: C_10  and  O_24
REMARK    3  A    between atoms: C_11  and  N_18
REMARK    4  A    between atoms: N_18  and  S_20
REMARK    5  A    between atoms: O_24  and  C_25
REMARK    6  A    between atoms: C_25  and  C_26
REMARK                            x       y       z     vdW  Elec       q    Type
REMARK                         _______ _______ _______ _____ _____    ______ ____
ROOT
ATOM      1  O   UNL     1      37.167 -22.223 -16.345  0.00  0.00    -0.226 OA
ATOM      2  N   UNL     1      35.051 -23.145 -16.019  0.00  0.00    -0.235 N 
ATOM      3  C   UNL     1      35.339 -23.583 -14.654  0.00  0.00    +0.159 C 
ATOM      4  C   UNL     1      34.187 -23.301 -13.693  0.00  0.00    +0.055 C 
ATOM      5  C   UNL     1      33.759 -23.519 -16.614  0.00  0.00    +0.124 C 
ATOM      6  C   UNL     1      32.844 -23.692 -14.250  0.00  0.00    -0.022 C 
ATOM      7  C   UNL     1      32.644 -23.776 -15.636  0.00  0.00    -0.005 C 
ATOM      8  C   UNL     1      31.375 -24.119 -16.126  0.00  0.00    +0.013 C 
ATOM      9  C   UNL     1      31.771 -23.926 -13.378  0.00  0.00    -0.003 C 
ATOM     10  C   UNL     1      36.070 -22.556 -16.786  0.00  0.00    +0.406 C 
ATOM     11  C   UNL     1      30.316 -24.361 -15.252  0.00  0.00    +0.065 C 
ATOM     12  C   UNL     1      30.514 -24.262 -13.878  0.00  0.00    +0.016 C 
ENDROOT
BRANCH   3  15
ATOM     13  O   UNL     1      34.832 -25.920 -14.623  0.00  0.00    -0.273 OA
ATOM     14  N   UNL     1      37.044 -25.249 -14.904  0.00  0.00    -0.301 N 
ATOM     15  C   UNL     1      35.686 -25.043 -14.729  0.00  0.00    +0.241 C 
ATOM     16  C   UNL     1      37.640 -26.563 -14.984  0.00  0.00    +0.111 C 
ATOM     17  H   UNL     1      37.632 -24.463 -14.976  0.00  0.00    +0.150 HD
ENDBRANCH   3  15
BRANCH  11  18
ATOM     18  N   UNL     1      29.030 -24.707 -15.767  0.00  0.00    -0.213 N 
ATOM     19  H   UNL     1      28.692 -25.632 -15.733  0.00  0.00    +0.174 HD
BRANCH  18  20
ATOM     20  S   UNL     1      28.096 -23.421 -16.455  0.00  0.00    +0.091 S 
ATOM     21  O   UNL     1      26.969 -23.087 -15.324  0.00  0.00    -0.050 OA
ATOM     22  O   UNL     1      28.943 -22.250 -16.593  0.00  0.00    -0.050 OA
ATOM     23  O   UNL     1      27.398 -23.948 -17.613  0.00  0.00    -0.050 OA
ENDBRANCH  18  20
ENDBRANCH  11  18
BRANCH  10  24
ATOM     24  O   UNL     1      35.710 -22.397 -18.100  0.00  0.00    -0.430 OA
BRANCH  24  25
ATOM     25  C   UNL     1      36.722 -21.880 -18.971  0.00  0.00    +0.237 C 
BRANCH  25  26
ATOM     26  C   UNL     1      36.107 -20.862 -19.886  0.00  0.00    +0.021 C 
ATOM     27  C   UNL     1      34.738 -20.894 -20.130  0.00  0.00    -0.001 C 
ATOM     28  C   UNL     1      36.910 -19.897 -20.483  0.00  0.00    -0.001 C 
ATOM     29  C   UNL     1      34.166 -19.948 -20.980  0.00  0.00    -0.000 C 
ATOM     30  C   UNL     1      36.337 -18.951 -21.334  0.00  0.00    -0.000 C 
ATOM     31  C   UNL     1      34.965 -18.977 -21.582  0.00  0.00    -0.000 C 
ENDBRANCH  25  26
ENDBRANCH  24  25
ENDBRANCH  10  24
TORSDOF 6
ENDMDL
MODEL 2
REMARK VINA RESULT:      -8.4      6.093      9.562
REMARK  Name = 5327153
REMARK  6 active torsions:
REMARK  status: ('A' for Active; 'I' for Inactive)
REMARK    1  A    between atoms: C_3  and  C_15
REMARK    2  A    between atoms: C_10  and  O_24
REMARK    3  A    between atoms: C_11  and  N_18
REMARK    4  A    between atoms: N_18  and  S_20
REMARK    5  A    between atoms: O_24  and  C_25
REMARK    6  A    between atoms: C_25  and  C_26
REMARK                            x       y       z     vdW  Elec       q    Type
REMARK                         _______ _______ _______ _____ _____    ______ ____
ROOT
ATOM      1  O   UNL     1      34.968 -13.860 -22.083  0.00  0.00    -0.226 OA
ATOM      2  N   UNL     1      34.461 -16.099 -21.675  0.00  0.00    -0.235 N 
ATOM      3  C   UNL     1      35.429 -16.604 -22.648  0.00  0.00    +0.159 C 
ATOM      4  C   UNL     1      36.219 -17.799 -22.123  0.00  0.00    +0.055 C 
ATOM      5  C   UNL     1      33.578 -17.066 -21.005  0.00  0.00    +0.124 C 
ATOM      6  C   UNL     1      35.352 -18.830 -21.449  0.00  0.00    -0.022 C 
ATOM      7  C   UNL     1      34.110 -18.471 -20.906  0.00  0.00    -0.005 C 
ATOM      8  C   UNL     1      33.335 -19.447 -20.263  0.00  0.00    +0.013 C 
ATOM      9  C   UNL     1      35.813 -20.148 -21.319  0.00  0.00    -0.003 C 
ATOM     10  C   UNL     1      34.264 -14.714 -21.548  0.00  0.00    +0.406 C 
ATOM     11  C   UNL     1      33.795 -20.759 -20.148  0.00  0.00    +0.065 C 
ATOM     12  C   UNL     1      35.035 -21.108 -20.675  0.00  0.00    +0.016 C 
ENDROOT
BRANCH   3  15
ATOM     13  O   UNL     1      34.544 -18.070 -24.316  0.00  0.00    -0.273 OA
ATOM     14  N   UNL     1      34.155 -15.782 -24.505  0.00  0.00    -0.301 N 
ATOM     15  C   UNL     1      34.663 -16.920 -23.902  0.00  0.00    +0.241 C 
ATOM     16  C   UNL     1      33.399 -15.813 -25.736  0.00  0.00    +0.111 C 
ATOM     17  H   UNL     1      34.316 -14.911 -24.076  0.00  0.00    +0.150 HD
ENDBRANCH   3  15
BRANCH  11  18
ATOM     18  N   UNL     1      32.995 -21.741 -19.489  0.00  0.00    -0.213 N 
ATOM     19  H   UNL     1      32.013 -21.745 -19.568  0.00  0.00    +0.174 HD
BRANCH  18  20
ATOM     20  S   UNL     1      33.837 -22.923 -18.543  0.00  0.00    +0.091 S 
ATOM     21  O   UNL     1      32.875 -23.170 -17.249  0.00  0.00    -0.050 OA
ATOM     22  O   UNL     1      33.897 -24.165 -19.293  0.00  0.00    -0.050 OA
ATOM     23  O   UNL     1      35.061 -22.312 -18.056  0.00  0.00    -0.050 OA
ENDBRANCH  18  20
ENDBRANCH  11  18
BRANCH  10  24
ATOM     24  O   UNL     1      33.185 -14.409 -20.759  0.00  0.00    -0.430 OA
BRANCH  24  25
ATOM     25  C   UNL     1      32.105 -13.727 -21.406  0.00  0.00    +0.237 C 
BRANCH  25  26
ATOM     26  C   UNL     1      31.911 -12.389 -20.755  0.00  0.00    +0.021 C 
ATOM     27  C   UNL     1      31.715 -12.314 -19.381  0.00  0.00    -0.001 C 
ATOM     28  C   UNL     1      31.930 -11.235 -21.531  0.00  0.00    -0.001 C 
ATOM     29  C   UNL     1      31.535 -11.071 -18.775  0.00  0.00    -0.000 C 
ATOM     30  C   UNL     1      31.751  -9.992 -20.925  0.00  0.00    -0.000 C 
ATOM     31  C   UNL     1      31.553  -9.909 -19.547  0.00  0.00    -0.000 C 
ENDBRANCH  25  26
ENDBRANCH  24  25
ENDBRANCH  10  24
TORSDOF 6
ENDMDL
MODEL 3
REMARK VINA RESULT:      -8.3      3.419      6.457
REMARK  Name = 5327153
REMARK  6 active torsions:
REMARK  status: ('A' for Active; 'I' for Inactive)
REMARK    1  A    between atoms: C_3  and  C_15
REMARK    2  A    between atoms: C_10  and  O_24
REMARK    3  A    between atoms: C_11  and  N_18
REMARK    4  A    between atoms: N_18  and  S_20
REMARK    5  A    between atoms: O_24  and  C_25
REMARK    6  A    between atoms: C_25  and  C_26
REMARK                            x       y       z     vdW  Elec       q    Type
REMARK                         _______ _______ _______ _____ _____    ______ ____
ROOT
ATOM      1  O   UNL     1      33.083 -22.818 -18.322  0.00  0.00    -0.226 OA
ATOM      2  N   UNL     1      34.562 -23.511 -16.658  0.00  0.00    -0.235 N 
ATOM      3  C   UNL     1      33.567 -24.336 -15.973  0.00  0.00    +0.159 C 
ATOM      4  C   UNL     1      34.127 -25.687 -15.537  0.00  0.00    +0.055 C 
ATOM      5  C   UNL     1      35.888 -23.362 -16.041  0.00  0.00    +0.124 C 
ATOM      6  C   UNL     1      35.475 -25.582 -14.876  0.00  0.00    -0.022 C 
ATOM      7  C   UNL     1      36.312 -24.487 -15.133  0.00  0.00    -0.005 C 
ATOM      8  C   UNL     1      37.574 -24.428 -14.522  0.00  0.00    +0.013 C 
ATOM      9  C   UNL     1      35.920 -26.613 -14.035  0.00  0.00    -0.003 C 
ATOM     10  C   UNL     1      34.176 -22.738 -17.765  0.00  0.00    +0.406 C 
ATOM     11  C   UNL     1      38.003 -25.451 -13.678  0.00  0.00    +0.065 C 
ATOM     12  C   UNL     1      37.176 -26.545 -13.436  0.00  0.00    +0.016 C 
ENDROOT
BRANCH   3  15
ATOM     13  O   UNL     1      33.576 -22.470 -14.479  0.00  0.00    -0.273 OA
ATOM     14  N   UNL     1      31.954 -24.119 -14.213  0.00  0.00    -0.301 N 
ATOM     15  C   UNL     1      33.047 -23.524 -14.820  0.00  0.00    +0.241 C 
ATOM     16  C   UNL     1      31.282 -23.551 -13.066  0.00  0.00    +0.111 C 
ATOM     17  H   UNL     1      31.619 -24.969 -14.579  0.00  0.00    +0.150 HD
ENDBRANCH   3  15
BRANCH  11  18
ATOM     18  N   UNL     1      39.290 -25.377 -13.065  0.00  0.00    -0.213 N 
ATOM     19  H   UNL     1      39.407 -25.045 -12.145  0.00  0.00    +0.174 HD
BRANCH  18  20
ATOM     20  S   UNL     1      40.637 -25.901 -14.020  0.00  0.00    +0.091 S 
ATOM     21  O   UNL     1      39.962 -26.561 -15.350  0.00  0.00    -0.050 OA
ATOM     22  O   UNL     1      41.394 -24.736 -14.440  0.00  0.00    -0.050 OA
ATOM     23  O   UNL     1      41.302 -26.974 -13.301  0.00  0.00    -0.050 OA
ENDBRANCH  18  20
ENDBRANCH  11  18
BRANCH  10  24
ATOM     24  O   UNL     1      35.156 -21.865 -18.162  0.00  0.00    -0.430 OA
BRANCH  24  25
ATOM     25  C   UNL     1      35.709 -22.088 -19.464  0.00  0.00    +0.237 C 
BRANCH  25  26
ATOM     26  C   UNL     1      35.768 -20.782 -20.200  0.00  0.00    +0.021 C 
ATOM     27  C   UNL     1      34.596 -20.209 -20.680  0.00  0.00    -0.001 C 
ATOM     28  C   UNL     1      36.994 -20.156 -20.396  0.00  0.00    -0.001 C 
ATOM     29  C   UNL     1      34.650 -18.994 -21.364  0.00  0.00    -0.000 C 
ATOM     30  C   UNL     1      37.049 -18.942 -21.080  0.00  0.00    -0.000 C 
ATOM     31  C   UNL     1      35.877 -18.361 -21.565  0.00  0.00    -0.000 C 
ENDBRANCH  25  26
ENDBRANCH  24  25
ENDBRANCH  10  24
TORSDOF 6
ENDMDL
