MODEL 1
REMARK VINA RESULT:     -11.6      0.000      0.000
REMARK  Name = 42628060
REMARK  6 active torsions:
REMARK  status: ('A' for Active; 'I' for Inactive)
REMARK    1  A    between atoms: N_2  and  C_6
REMARK    2  A    between atoms: C_3  and  C_19
REMARK    3  A    between atoms: C_9  and  N_13
REMARK    4  A    between atoms: C_19  and  N_20
REMARK    5  A    between atoms: C_21  and  N_27
REMARK    6  A    between atoms: C_28  and  C_32
REMARK                            x       y       z     vdW  Elec       q    Type
REMARK                         _______ _______ _______ _____ _____    ______ ____
ROOT
ATOM      1  O   UNL     1      32.512 -14.033 -23.059  0.00  0.00    -0.277 OA
ATOM      2  N   UNL     1      34.553 -14.893 -23.839  0.00  0.00    -0.284 N 
ATOM      3  C   UNL     1      33.500 -13.981 -23.783  0.00  0.00    +0.205 C 
ATOM      4  H   UNL     1      35.266 -14.695 -24.488  0.00  0.00    +0.155 HD
ENDROOT
BRANCH   2   6
ATOM      5  F   UNL     1      34.891 -17.382 -25.044  0.00  0.00    -0.203 F 
ATOM      6  C   UNL     1      34.716 -16.070 -23.072  0.00  0.00    +0.078 C 
ATOM      7  C   UNL     1      34.882 -17.301 -23.706  0.00  0.00    +0.155 C 
ATOM      8  C   UNL     1      34.707 -15.999 -21.679  0.00  0.00    +0.018 C 
ATOM      9  C   UNL     1      35.033 -18.389 -21.554  0.00  0.00    +0.061 C 
ATOM     10  C   UNL     1      35.042 -18.461 -22.947  0.00  0.00    +0.046 C 
ATOM     11  C   UNL     1      34.866 -17.159 -20.920  0.00  0.00    +0.017 C 
BRANCH   9  13
ATOM     12  O   UNL     1      37.531 -19.328 -20.439  0.00  0.00    -0.269 OA
ATOM     13  N   UNL     1      35.198 -19.595 -20.765  0.00  0.00    -0.233 N 
ATOM     14  C   UNL     1      36.488 -19.969 -20.307  0.00  0.00    +0.257 C 
ATOM     15  C   UNL     1      34.092 -20.381 -20.433  0.00  0.00    +0.072 C 
ATOM     16  C   UNL     1      36.576 -21.250 -19.539  0.00  0.00    +0.059 C 
ATOM     17  C   UNL     1      34.194 -21.505 -19.716  0.00  0.00    +0.017 C 
ATOM     18  C   UNL     1      35.476 -21.953 -19.263  0.00  0.00    +0.006 C 
ENDBRANCH   9  13
ENDBRANCH   2   6
BRANCH   3  19
ATOM     19  C   UNL     1      33.725 -12.858 -24.782  0.00  0.00    +0.010 C 
BRANCH  19  20
ATOM     20  N   UNL     1      34.334 -11.723 -24.104  0.00  0.00    +0.394 N 
ATOM     21  C   UNL     1      34.153  -9.604 -23.151  0.00  0.00    +0.049 C 
ATOM     22  C   UNL     1      35.253  -9.571 -24.215  0.00  0.00    -0.005 C 
ATOM     23  C   UNL     1      33.342 -10.857 -23.464  0.00  0.00    -0.057 C 
ATOM     24  C   UNL     1      35.058 -10.847 -25.025  0.00  0.00    -0.075 C 
ATOM     25  H   UNL     1      34.959 -12.149 -23.420  0.00  0.00    -0.079 HD
BRANCH  21  27
ATOM     26  O   UNL     1      32.970  -8.342 -20.859  0.00  0.00    -0.270 OA
ATOM     27  N   UNL     1      33.343  -8.417 -23.148  0.00  0.00    -0.304 N 
ATOM     28  C   UNL     1      32.809  -7.875 -21.985  0.00  0.00    +0.252 C 
ATOM     29  H   UNL     1      33.157  -7.970 -24.005  0.00  0.00    +0.150 HD
BRANCH  28  32
ATOM     30 CL   UNL     1      30.632  -3.187 -23.955  0.00  0.00    -0.075 Cl
ATOM     31  S   UNL     1      32.243  -5.640 -23.501  0.00  0.00    -0.071 S 
ATOM     32  C   UNL     1      31.971  -6.660 -22.153  0.00  0.00    +0.084 C 
ATOM     33  C   UNL     1      30.949  -6.198 -21.353  0.00  0.00    +0.012 C 
ATOM     34  C   UNL     1      30.383  -4.990 -21.853  0.00  0.00    +0.019 C 
ATOM     35  C   UNL     1      30.993  -4.575 -23.016  0.00  0.00    +0.087 C 
ENDBRANCH  28  32
ENDBRANCH  21  27
ENDBRANCH  19  20
ENDBRANCH   3  19
TORSDOF 6
ENDMDL
MODEL 2
REMARK VINA RESULT:     -11.3      7.449     13.783
REMARK  Name = 42628060
REMARK  6 active torsions:
REMARK  status: ('A' for Active; 'I' for Inactive)
REMARK    1  A    between atoms: N_2  and  C_6
REMARK    2  A    between atoms: C_3  and  C_19
REMARK    3  A    between atoms: C_9  and  N_13
REMARK    4  A    between atoms: C_19  and  N_20
REMARK    5  A    between atoms: C_21  and  N_27
REMARK    6  A    between atoms: C_28  and  C_32
REMARK                            x       y       z     vdW  Elec       q    Type
REMARK                         _______ _______ _______ _____ _____    ______ ____
ROOT
ATOM      1  O   UNL     1      33.603 -20.382 -20.458  0.00  0.00    -0.277 OA
ATOM      2  N   UNL     1      35.631 -19.668 -21.401  0.00  0.00    -0.284 N 
ATOM      3  C   UNL     1      34.807 -20.509 -20.655  0.00  0.00    +0.205 C 
ATOM      4  H   UNL     1      36.581 -19.922 -21.450  0.00  0.00    +0.155 HD
ENDROOT
BRANCH   2   6
ATOM      5  F   UNL     1      35.037 -19.714 -24.123  0.00  0.00    -0.203 F 
ATOM      6  C   UNL     1      35.262 -18.494 -22.098  0.00  0.00    +0.078 C 
ATOM      7  C   UNL     1      34.971 -18.551 -23.461  0.00  0.00    +0.155 C 
ATOM      8  C   UNL     1      35.191 -17.277 -21.420  0.00  0.00    +0.018 C 
ATOM      9  C   UNL     1      34.537 -16.174 -23.467  0.00  0.00    +0.061 C 
ATOM     10  C   UNL     1      34.608 -17.390 -24.145  0.00  0.00    +0.046 C 
ATOM     11  C   UNL     1      34.828 -16.116 -22.104  0.00  0.00    +0.017 C 
BRANCH   9  13
ATOM     12  O   UNL     1      33.429 -16.085 -26.137  0.00  0.00    -0.269 OA
ATOM     13  N   UNL     1      34.161 -14.967 -24.178  0.00  0.00    -0.233 N 
ATOM     14  C   UNL     1      33.664 -15.055 -25.504  0.00  0.00    +0.257 C 
ATOM     15  C   UNL     1      34.263 -13.719 -23.560  0.00  0.00    +0.072 C 
ATOM     16  C   UNL     1      33.343 -13.760 -26.182  0.00  0.00    +0.059 C 
ATOM     17  C   UNL     1      33.938 -12.578 -24.177  0.00  0.00    +0.017 C 
ATOM     18  C   UNL     1      33.471 -12.602 -25.530  0.00  0.00    +0.006 C 
ENDBRANCH   9  13
ENDBRANCH   2   6
BRANCH   3  19
ATOM     19  C   UNL     1      35.614 -21.658 -20.076  0.00  0.00    +0.010 C 
BRANCH  19  20
ATOM     20  N   UNL     1      35.248 -21.851 -18.681  0.00  0.00    +0.394 N 
ATOM     21  C   UNL     1      35.774 -22.613 -16.541  0.00  0.00    +0.049 C 
ATOM     22  C   UNL     1      34.461 -23.264 -16.986  0.00  0.00    -0.005 C 
ATOM     23  C   UNL     1      36.412 -22.102 -17.828  0.00  0.00    -0.057 C 
ATOM     24  C   UNL     1      34.385 -23.016 -18.488  0.00  0.00    -0.075 C 
ATOM     25  H   UNL     1      34.775 -20.985 -18.426  0.00  0.00    -0.079 HD
BRANCH  21  27
ATOM     26  O   UNL     1      35.588 -23.328 -13.767  0.00  0.00    -0.270 OA
ATOM     27  N   UNL     1      36.633 -23.519 -15.829  0.00  0.00    -0.304 N 
ATOM     28  C   UNL     1      36.468 -23.806 -14.480  0.00  0.00    +0.252 C 
ATOM     29  H   UNL     1      37.370 -23.953 -16.317  0.00  0.00    +0.150 HD
BRANCH  28  32
ATOM     30 CL   UNL     1      40.967 -26.912 -13.641  0.00  0.00    -0.075 Cl
ATOM     31  S   UNL     1      38.910 -25.066 -14.726  0.00  0.00    -0.071 S 
ATOM     32  C   UNL     1      37.456 -24.742 -13.884  0.00  0.00    +0.084 C 
ATOM     33  C   UNL     1      37.384 -25.430 -12.692  0.00  0.00    +0.012 C 
ATOM     34  C   UNL     1      38.539 -26.233 -12.468  0.00  0.00    +0.019 C 
ATOM     35  C   UNL     1      39.449 -26.129 -13.497  0.00  0.00    +0.087 C 
ENDBRANCH  28  32
ENDBRANCH  21  27
ENDBRANCH  19  20
ENDBRANCH   3  19
TORSDOF 6
ENDMDL
MODEL 3
REMARK VINA RESULT:     -11.0      5.078      8.404
REMARK  Name = 42628060
REMARK  6 active torsions:
REMARK  status: ('A' for Active; 'I' for Inactive)
REMARK    1  A    between atoms: N_2  and  C_6
REMARK    2  A    between atoms: C_3  and  C_19
REMARK    3  A    between atoms: C_9  and  N_13
REMARK    4  A    between atoms: C_19  and  N_20
REMARK    5  A    between atoms: C_21  and  N_27
REMARK    6  A    between atoms: C_28  and  C_32
REMARK                            x       y       z     vdW  Elec       q    Type
REMARK                         _______ _______ _______ _____ _____    ______ ____
ROOT
ATOM      1  O   UNL     1      36.832 -20.701 -19.672  0.00  0.00    -0.277 OA
ATOM      2  N   UNL     1      35.011 -21.956 -18.883  0.00  0.00    -0.284 N 
ATOM      3  C   UNL     1      35.689 -21.133 -19.780  0.00  0.00    +0.205 C 
ATOM      4  H   UNL     1      34.091 -22.203 -19.130  0.00  0.00    +0.155 HD
ENDROOT
BRANCH   2   6
ATOM      5  F   UNL     1      33.339 -23.331 -17.130  0.00  0.00    -0.203 F 
ATOM      6  C   UNL     1      35.491 -22.477 -17.659  0.00  0.00    +0.078 C 
ATOM      7  C   UNL     1      34.627 -23.161 -16.803  0.00  0.00    +0.155 C 
ATOM      8  C   UNL     1      36.830 -22.305 -17.307  0.00  0.00    +0.018 C 
ATOM      9  C   UNL     1      36.442 -23.501 -15.244  0.00  0.00    +0.061 C 
ATOM     10  C   UNL     1      35.103 -23.673 -15.595  0.00  0.00    +0.046 C 
ATOM     11  C   UNL     1      37.306 -22.817 -16.099  0.00  0.00    +0.017 C 
BRANCH   9  13
ATOM     12  O   UNL     1      37.292 -26.230 -14.803  0.00  0.00    -0.269 OA
ATOM     13  N   UNL     1      36.937 -24.032 -13.989  0.00  0.00    -0.233 N 
ATOM     14  C   UNL     1      37.285 -25.404 -13.890  0.00  0.00    +0.257 C 
ATOM     15  C   UNL     1      37.094 -23.199 -12.879  0.00  0.00    +0.072 C 
ATOM     16  C   UNL     1      37.743 -25.880 -12.548  0.00  0.00    +0.059 C 
ATOM     17  C   UNL     1      37.536 -23.643 -11.698  0.00  0.00    +0.017 C 
ATOM     18  C   UNL     1      37.863 -25.026 -11.529  0.00  0.00    +0.006 C 
ENDBRANCH   9  13
ENDBRANCH   2   6
BRANCH   3  19
ATOM     19  C   UNL     1      34.801 -20.808 -20.969  0.00  0.00    +0.010 C 
BRANCH  19  20
ATOM     20  N   UNL     1      35.306 -19.619 -21.639  0.00  0.00    +0.394 N 
ATOM     21  C   UNL     1      35.264 -17.310 -21.964  0.00  0.00    +0.049 C 
ATOM     22  C   UNL     1      35.066 -18.001 -23.316  0.00  0.00    -0.005 C 
ATOM     23  C   UNL     1      34.959 -18.387 -20.927  0.00  0.00    -0.057 C 
ATOM     24  C   UNL     1      34.740 -19.450 -22.977  0.00  0.00    -0.075 C 
ATOM     25  H   UNL     1      36.315 -19.763 -21.673  0.00  0.00    -0.079 HD
BRANCH  21  27
ATOM     26  O   UNL     1      35.255 -14.967 -23.622  0.00  0.00    -0.270 OA
ATOM     27  N   UNL     1      34.434 -16.148 -21.803  0.00  0.00    -0.304 N 
ATOM     28  C   UNL     1      34.499 -15.055 -22.657  0.00  0.00    +0.252 C 
ATOM     29  H   UNL     1      33.794 -16.126 -21.055  0.00  0.00    +0.150 HD
BRANCH  28  32
ATOM     30 CL   UNL     1      30.730 -11.825 -20.217  0.00  0.00    -0.075 Cl
ATOM     31  S   UNL     1      32.579 -14.024 -20.964  0.00  0.00    -0.071 S 
ATOM     32  C   UNL     1      33.593 -13.921 -22.339  0.00  0.00    +0.084 C 
ATOM     33  C   UNL     1      33.431 -12.730 -23.013  0.00  0.00    +0.012 C 
ATOM     34  C   UNL     1      32.462 -11.892 -22.391  0.00  0.00    +0.019 C 
ATOM     35  C   UNL     1      31.919 -12.473 -21.267  0.00  0.00    +0.087 C 
ENDBRANCH  28  32
ENDBRANCH  21  27
ENDBRANCH  19  20
ENDBRANCH   3  19
TORSDOF 6
ENDMDL
MODEL 4
REMARK VINA RESULT:     -10.7      5.302      8.840
REMARK  Name = 42628060
REMARK  6 active torsions:
REMARK  status: ('A' for Active; 'I' for Inactive)
REMARK    1  A    between atoms: N_2  and  C_6
REMARK    2  A    between atoms: C_3  and  C_19
REMARK    3  A    between atoms: C_9  and  N_13
REMARK    4  A    between atoms: C_19  and  N_20
REMARK    5  A    between atoms: C_21  and  N_27
REMARK    6  A    between atoms: C_28  and  C_32
REMARK                            x       y       z     vdW  Elec       q    Type
REMARK                         _______ _______ _______ _____ _____    ______ ____
ROOT
ATOM      1  O   UNL     1      32.721 -21.980 -18.484  0.00  0.00    -0.277 OA
ATOM      2  N   UNL     1      35.060 -21.892 -18.672  0.00  0.00    -0.284 N 
ATOM      3  C   UNL     1      33.747 -21.694 -19.093  0.00  0.00    +0.205 C 
ATOM      4  H   UNL     1      35.765 -21.604 -19.296  0.00  0.00    +0.155 HD
ENDROOT
BRANCH   2   6
ATOM      5  F   UNL     1      37.594 -21.356 -17.645  0.00  0.00    -0.203 F 
ATOM      6  C   UNL     1      35.499 -22.458 -17.452  0.00  0.00    +0.078 C 
ATOM      7  C   UNL     1      36.774 -22.170 -16.965  0.00  0.00    +0.155 C 
ATOM      8  C   UNL     1      34.654 -23.306 -16.736  0.00  0.00    +0.018 C 
ATOM      9  C   UNL     1      36.359 -23.578 -15.046  0.00  0.00    +0.061 C 
ATOM     10  C   UNL     1      37.204 -22.730 -15.762  0.00  0.00    +0.046 C 
ATOM     11  C   UNL     1      35.084 -23.867 -15.533  0.00  0.00    +0.017 C 
BRANCH   9  13
ATOM     12  O   UNL     1      37.592 -26.179 -14.762  0.00  0.00    -0.269 OA
ATOM     13  N   UNL     1      36.806 -24.162 -13.796  0.00  0.00    -0.233 N 
ATOM     14  C   UNL     1      37.361 -25.467 -13.784  0.00  0.00    +0.257 C 
ATOM     15  C   UNL     1      36.714 -23.439 -12.604  0.00  0.00    +0.072 C 
ATOM     16  C   UNL     1      37.754 -26.012 -12.447  0.00  0.00    +0.059 C 
ATOM     17  C   UNL     1      37.104 -23.936 -11.426  0.00  0.00    +0.017 C 
ATOM     18  C   UNL     1      37.633 -25.265 -11.347  0.00  0.00    +0.006 C 
ENDBRANCH   9  13
ENDBRANCH   2   6
BRANCH   3  19
ATOM     19  C   UNL     1      33.728 -21.055 -20.472  0.00  0.00    +0.010 C 
BRANCH  19  20
ATOM     20  N   UNL     1      34.704 -19.977 -20.519  0.00  0.00    +0.394 N 
ATOM     21  C   UNL     1      35.308 -17.825 -21.183  0.00  0.00    +0.049 C 
ATOM     22  C   UNL     1      36.358 -18.812 -21.700  0.00  0.00    -0.005 C 
ATOM     23  C   UNL     1      34.095 -18.686 -20.846  0.00  0.00    -0.057 C 
ATOM     24  C   UNL     1      35.717 -20.186 -21.554  0.00  0.00    -0.075 C 
ATOM     25  H   UNL     1      35.115 -19.974 -19.586  0.00  0.00    -0.079 HD
BRANCH  21  27
ATOM     26  O   UNL     1      34.224 -15.232 -20.598  0.00  0.00    -0.270 OA
ATOM     27  N   UNL     1      34.996 -16.792 -22.131  0.00  0.00    -0.304 N 
ATOM     28  C   UNL     1      34.472 -15.561 -21.756  0.00  0.00    +0.252 C 
ATOM     29  H   UNL     1      35.161 -16.963 -23.087  0.00  0.00    +0.150 HD
BRANCH  28  32
ATOM     30 CL   UNL     1      33.204 -13.431 -26.701  0.00  0.00    -0.075 Cl
ATOM     31  S   UNL     1      33.812 -15.225 -24.415  0.00  0.00    -0.071 S 
ATOM     32  C   UNL     1      34.180 -14.610 -22.860  0.00  0.00    +0.084 C 
ATOM     33  C   UNL     1      34.155 -13.233 -22.829  0.00  0.00    +0.012 C 
ATOM     34  C   UNL     1      33.829 -12.676 -24.099  0.00  0.00    +0.019 C 
ATOM     35  C   UNL     1      33.618 -13.647 -25.052  0.00  0.00    +0.087 C 
ENDBRANCH  28  32
ENDBRANCH  21  27
ENDBRANCH  19  20
ENDBRANCH   3  19
TORSDOF 6
ENDMDL
MODEL 5
REMARK VINA RESULT:     -10.1      5.425      9.034
REMARK  Name = 42628060
REMARK  6 active torsions:
REMARK  status: ('A' for Active; 'I' for Inactive)
REMARK    1  A    between atoms: N_2  and  C_6
REMARK    2  A    between atoms: C_3  and  C_19
REMARK    3  A    between atoms: C_9  and  N_13
REMARK    4  A    between atoms: C_19  and  N_20
REMARK    5  A    between atoms: C_21  and  N_27
REMARK    6  A    between atoms: C_28  and  C_32
REMARK                            x       y       z     vdW  Elec       q    Type
REMARK                         _______ _______ _______ _____ _____    ______ ____
ROOT
ATOM      1  O   UNL     1      33.824 -23.419 -19.552  0.00  0.00    -0.277 OA
ATOM      2  N   UNL     1      34.802 -21.694 -18.294  0.00  0.00    -0.284 N 
ATOM      3  C   UNL     1      34.057 -22.233 -19.341  0.00  0.00    +0.205 C 
ATOM      4  H   UNL     1      34.891 -20.714 -18.283  0.00  0.00    +0.155 HD
ENDROOT
BRANCH   2   6
ATOM      5  F   UNL     1      33.379 -23.329 -16.543  0.00  0.00    -0.203 F 
ATOM      6  C   UNL     1      35.446 -22.392 -17.245  0.00  0.00    +0.078 C 
ATOM      7  C   UNL     1      34.704 -23.202 -16.386  0.00  0.00    +0.155 C 
ATOM      8  C   UNL     1      36.824 -22.267 -17.070  0.00  0.00    +0.018 C 
ATOM      9  C   UNL     1      36.719 -23.764 -15.177  0.00  0.00    +0.061 C 
ATOM     10  C   UNL     1      35.341 -23.889 -15.351  0.00  0.00    +0.046 C 
ATOM     11  C   UNL     1      37.461 -22.954 -16.036  0.00  0.00    +0.017 C 
BRANCH   9  13
ATOM     12  O   UNL     1      36.714 -22.972 -12.395  0.00  0.00    -0.269 OA
ATOM     13  N   UNL     1      37.382 -24.476 -14.101  0.00  0.00    -0.233 N 
ATOM     14  C   UNL     1      37.338 -23.961 -12.780  0.00  0.00    +0.257 C 
ATOM     15  C   UNL     1      38.046 -25.679 -14.352  0.00  0.00    +0.072 C 
ATOM     16  C   UNL     1      38.086 -24.733 -11.739  0.00  0.00    +0.059 C 
ATOM     17  C   UNL     1      38.679 -26.368 -13.397  0.00  0.00    +0.017 C 
ATOM     18  C   UNL     1      38.704 -25.874 -12.053  0.00  0.00    +0.006 C 
ENDBRANCH   9  13
ENDBRANCH   2   6
BRANCH   3  19
ATOM     19  C   UNL     1      33.544 -21.125 -20.245  0.00  0.00    +0.010 C 
BRANCH  19  20
ATOM     20  N   UNL     1      34.578 -20.114 -20.405  0.00  0.00    +0.394 N 
ATOM     21  C   UNL     1      35.253 -18.016 -21.168  0.00  0.00    +0.049 C 
ATOM     22  C   UNL     1      36.185 -19.077 -21.758  0.00  0.00    -0.005 C 
ATOM     23  C   UNL     1      34.024 -18.791 -20.703  0.00  0.00    -0.057 C 
ATOM     24  C   UNL     1      35.475 -20.405 -21.524  0.00  0.00    -0.075 C 
ATOM     25  H   UNL     1      35.073 -20.122 -19.514  0.00  0.00    -0.079 HD
BRANCH  21  27
ATOM     26  O   UNL     1      34.532 -15.308 -20.547  0.00  0.00    -0.270 OA
ATOM     27  N   UNL     1      34.920 -16.980 -22.107  0.00  0.00    -0.304 N 
ATOM     28  C   UNL     1      34.582 -15.691 -21.713  0.00  0.00    +0.252 C 
ATOM     29  H   UNL     1      34.933 -17.193 -23.068  0.00  0.00    +0.150 HD
BRANCH  28  32
ATOM     30 CL   UNL     1      33.249 -13.562 -26.642  0.00  0.00    -0.075 Cl
ATOM     31  S   UNL     1      33.949 -15.352 -24.378  0.00  0.00    -0.071 S 
ATOM     32  C   UNL     1      34.239 -14.743 -22.804  0.00  0.00    +0.084 C 
ATOM     33  C   UNL     1      34.108 -13.372 -22.748  0.00  0.00    +0.012 C 
ATOM     34  C   UNL     1      33.765 -12.816 -24.014  0.00  0.00    +0.019 C 
ATOM     35  C   UNL     1      33.647 -13.781 -24.989  0.00  0.00    +0.087 C 
ENDBRANCH  28  32
ENDBRANCH  21  27
ENDBRANCH  19  20
ENDBRANCH   3  19
TORSDOF 6
ENDMDL
MODEL 6
REMARK VINA RESULT:      -9.9      5.245     11.546
REMARK  Name = 42628060
REMARK  6 active torsions:
REMARK  status: ('A' for Active; 'I' for Inactive)
REMARK    1  A    between atoms: N_2  and  C_6
REMARK    2  A    between atoms: C_3  and  C_19
REMARK    3  A    between atoms: C_9  and  N_13
REMARK    4  A    between atoms: C_19  and  N_20
REMARK    5  A    between atoms: C_21  and  N_27
REMARK    6  A    between atoms: C_28  and  C_32
REMARK                            x       y       z     vdW  Elec       q    Type
REMARK                         _______ _______ _______ _____ _____    ______ ____
ROOT
ATOM      1  O   UNL     1      32.614 -14.548 -24.934  0.00  0.00    -0.277 OA
ATOM      2  N   UNL     1      34.309 -13.532 -23.665  0.00  0.00    -0.284 N 
ATOM      3  C   UNL     1      33.728 -14.549 -24.420  0.00  0.00    +0.205 C 
ATOM      4  H   UNL     1      35.215 -13.707 -23.325  0.00  0.00    +0.155 HD
ENDROOT
BRANCH   2   6
ATOM      5  F   UNL     1      32.154 -13.320 -21.912  0.00  0.00    -0.203 F 
ATOM      6  C   UNL     1      33.747 -12.277 -23.332  0.00  0.00    +0.078 C 
ATOM      7  C   UNL     1      32.668 -12.206 -22.451  0.00  0.00    +0.155 C 
ATOM      8  C   UNL     1      34.273 -11.111 -23.887  0.00  0.00    +0.018 C 
ATOM      9  C   UNL     1      32.642  -9.800 -22.680  0.00  0.00    +0.061 C 
ATOM     10  C   UNL     1      32.116 -10.966 -22.124  0.00  0.00    +0.046 C 
ATOM     11  C   UNL     1      33.720  -9.872 -23.560  0.00  0.00    +0.017 C 
BRANCH   9  13
ATOM     12  O   UNL     1      32.997  -8.421 -20.162  0.00  0.00    -0.269 OA
ATOM     13  N   UNL     1      32.067  -8.513 -22.341  0.00  0.00    -0.233 N 
ATOM     14  C   UNL     1      32.284  -7.959 -21.053  0.00  0.00    +0.257 C 
ATOM     15  C   UNL     1      31.318  -7.802 -23.282  0.00  0.00    +0.072 C 
ATOM     16  C   UNL     1      31.617  -6.649 -20.771  0.00  0.00    +0.059 C 
ATOM     17  C   UNL     1      30.760  -6.616 -23.015  0.00  0.00    +0.017 C 
ATOM     18  C   UNL     1      30.910  -6.028 -21.718  0.00  0.00    +0.006 C 
ENDBRANCH   9  13
ENDBRANCH   2   6
BRANCH   3  19
ATOM     19  C   UNL     1      34.680 -15.727 -24.535  0.00  0.00    +0.010 C 
BRANCH  19  20
ATOM     20  N   UNL     1      35.200 -16.059 -23.217  0.00  0.00    +0.394 N 
ATOM     21  C   UNL     1      35.384 -17.550 -21.434  0.00  0.00    +0.049 C 
ATOM     22  C   UNL     1      34.866 -16.211 -20.903  0.00  0.00    -0.005 C 
ATOM     23  C   UNL     1      35.139 -17.496 -22.939  0.00  0.00    -0.057 C 
ATOM     24  C   UNL     1      34.430 -15.436 -22.141  0.00  0.00    -0.075 C 
ATOM     25  H   UNL     1      36.161 -15.720 -23.237  0.00  0.00    -0.079 HD
BRANCH  21  27
ATOM     26  O   UNL     1      36.656 -19.973 -20.564  0.00  0.00    -0.270 OA
ATOM     27  N   UNL     1      34.746 -18.681 -20.819  0.00  0.00    -0.304 N 
ATOM     28  C   UNL     1      35.444 -19.817 -20.428  0.00  0.00    +0.252 C 
ATOM     29  H   UNL     1      33.773 -18.649 -20.668  0.00  0.00    +0.150 HD
BRANCH  28  32
ATOM     30 CL   UNL     1      33.902 -24.308 -17.591  0.00  0.00    -0.075 Cl
ATOM     31  S   UNL     1      35.408 -22.080 -18.849  0.00  0.00    -0.071 S 
ATOM     32  C   UNL     1      34.634 -20.910 -19.830  0.00  0.00    +0.084 C 
ATOM     33  C   UNL     1      33.281 -21.144 -19.945  0.00  0.00    +0.012 C 
ATOM     34  C   UNL     1      32.876 -22.300 -19.217  0.00  0.00    +0.019 C 
ATOM     35  C   UNL     1      33.933 -22.905 -18.574  0.00  0.00    +0.087 C 
ENDBRANCH  28  32
ENDBRANCH  21  27
ENDBRANCH  19  20
ENDBRANCH   3  19
TORSDOF 6
ENDMDL
MODEL 7
REMARK VINA RESULT:      -9.9      7.400     13.888
REMARK  Name = 42628060
REMARK  6 active torsions:
REMARK  status: ('A' for Active; 'I' for Inactive)
REMARK    1  A    between atoms: N_2  and  C_6
REMARK    2  A    between atoms: C_3  and  C_19
REMARK    3  A    between atoms: C_9  and  N_13
REMARK    4  A    between atoms: C_19  and  N_20
REMARK    5  A    between atoms: C_21  and  N_27
REMARK    6  A    between atoms: C_28  and  C_32
REMARK                            x       y       z     vdW  Elec       q    Type
REMARK                         _______ _______ _______ _____ _____    ______ ____
ROOT
ATOM      1  O   UNL     1      33.407 -20.075 -20.567  0.00  0.00    -0.277 OA
ATOM      2  N   UNL     1      35.450 -19.434 -21.530  0.00  0.00    -0.284 N 
ATOM      3  C   UNL     1      34.610 -20.228 -20.753  0.00  0.00    +0.205 C 
ATOM      4  H   UNL     1      36.396 -19.703 -21.563  0.00  0.00    +0.155 HD
ENDROOT
BRANCH   2   6
ATOM      5  F   UNL     1      35.034 -16.967 -20.304  0.00  0.00    -0.203 F 
ATOM      6  C   UNL     1      35.102 -18.285 -22.279  0.00  0.00    +0.078 C 
ATOM      7  C   UNL     1      34.900 -17.064 -21.634  0.00  0.00    +0.155 C 
ATOM      8  C   UNL     1      34.958 -18.374 -23.663  0.00  0.00    +0.018 C 
ATOM      9  C   UNL     1      34.412 -16.023 -23.759  0.00  0.00    +0.061 C 
ATOM     10  C   UNL     1      34.555 -15.933 -22.374  0.00  0.00    +0.046 C 
ATOM     11  C   UNL     1      34.614 -17.242 -24.404  0.00  0.00    +0.017 C 
BRANCH   9  13
ATOM     12  O   UNL     1      34.506 -13.299 -22.791  0.00  0.00    -0.269 OA
ATOM     13  N   UNL     1      34.053 -14.847 -24.528  0.00  0.00    -0.233 N 
ATOM     14  C   UNL     1      34.104 -13.565 -23.924  0.00  0.00    +0.257 C 
ATOM     15  C   UNL     1      33.677 -14.965 -25.869  0.00  0.00    +0.072 C 
ATOM     16  C   UNL     1      33.674 -12.411 -24.774  0.00  0.00    +0.059 C 
ATOM     17  C   UNL     1      33.329 -13.913 -26.617  0.00  0.00    +0.017 C 
ATOM     18  C   UNL     1      33.321 -12.599 -26.048  0.00  0.00    +0.006 C 
ENDBRANCH   9  13
ENDBRANCH   2   6
BRANCH   3  19
ATOM     19  C   UNL     1      35.397 -21.363 -20.121  0.00  0.00    +0.010 C 
BRANCH  19  20
ATOM     20  N   UNL     1      34.682 -21.856 -18.953  0.00  0.00    +0.394 N 
ATOM     21  C   UNL     1      34.682 -22.972 -16.906  0.00  0.00    +0.049 C 
ATOM     22  C   UNL     1      33.655 -23.636 -17.828  0.00  0.00    -0.005 C 
ATOM     23  C   UNL     1      35.580 -22.166 -17.838  0.00  0.00    -0.057 C 
ATOM     24  C   UNL     1      33.973 -23.107 -19.221  0.00  0.00    -0.075 C 
ATOM     25  H   UNL     1      34.039 -21.101 -18.719  0.00  0.00    -0.079 HD
BRANCH  21  27
ATOM     26  O   UNL     1      33.798 -24.271 -14.503  0.00  0.00    -0.270 OA
ATOM     27  N   UNL     1      35.423 -23.920 -16.121  0.00  0.00    -0.304 N 
ATOM     28  C   UNL     1      34.913 -24.501 -14.966  0.00  0.00    +0.252 C 
ATOM     29  H   UNL     1      36.330 -24.169 -16.413  0.00  0.00    +0.150 HD
BRANCH  28  32
ATOM     30 CL   UNL     1      37.902 -27.012 -11.047  0.00  0.00    -0.075 Cl
ATOM     31  S   UNL     1      36.125 -25.198 -12.587  0.00  0.00    -0.071 S 
ATOM     32  C   UNL     1      35.815 -25.442 -14.253  0.00  0.00    +0.084 C 
ATOM     33  C   UNL     1      36.477 -26.544 -14.747  0.00  0.00    +0.012 C 
ATOM     34  C   UNL     1      37.251 -27.197 -13.744  0.00  0.00    +0.019 C 
ATOM     35  C   UNL     1      37.149 -26.569 -12.522  0.00  0.00    +0.087 C 
ENDBRANCH  28  32
ENDBRANCH  21  27
ENDBRANCH  19  20
ENDBRANCH   3  19
TORSDOF 6
ENDMDL
MODEL 8
REMARK VINA RESULT:      -9.9      5.636     11.926
REMARK  Name = 42628060
REMARK  6 active torsions:
REMARK  status: ('A' for Active; 'I' for Inactive)
REMARK    1  A    between atoms: N_2  and  C_6
REMARK    2  A    between atoms: C_3  and  C_19
REMARK    3  A    between atoms: C_9  and  N_13
REMARK    4  A    between atoms: C_19  and  N_20
REMARK    5  A    between atoms: C_21  and  N_27
REMARK    6  A    between atoms: C_28  and  C_32
REMARK                            x       y       z     vdW  Elec       q    Type
REMARK                         _______ _______ _______ _____ _____    ______ ____
ROOT
ATOM      1  O   UNL     1      35.930 -15.705 -23.687  0.00  0.00    -0.277 OA
ATOM      2  N   UNL     1      33.596 -15.515 -23.508  0.00  0.00    -0.284 N 
ATOM      3  C   UNL     1      34.805 -16.193 -23.659  0.00  0.00    +0.205 C 
ATOM      4  H   UNL     1      32.783 -16.069 -23.514  0.00  0.00    +0.155 HD
ENDROOT
BRANCH   2   6
ATOM      5  F   UNL     1      32.221 -14.478 -21.318  0.00  0.00    -0.203 F 
ATOM      6  C   UNL     1      33.402 -14.123 -23.348  0.00  0.00    +0.078 C 
ATOM      7  C   UNL     1      32.709 -13.636 -22.240  0.00  0.00    +0.155 C 
ATOM      8  C   UNL     1      33.904 -13.236 -24.301  0.00  0.00    +0.018 C 
ATOM      9  C   UNL     1      33.020 -11.377 -23.038  0.00  0.00    +0.061 C 
ATOM     10  C   UNL     1      32.518 -12.262 -22.085  0.00  0.00    +0.046 C 
ATOM     11  C   UNL     1      33.713 -11.863 -24.146  0.00  0.00    +0.017 C 
BRANCH   9  13
ATOM     12  O   UNL     1      35.032  -9.348 -23.489  0.00  0.00    -0.269 OA
ATOM     13  N   UNL     1      32.821  -9.949 -22.878  0.00  0.00    -0.233 N 
ATOM     14  C   UNL     1      33.903  -9.057 -23.091  0.00  0.00    +0.257 C 
ATOM     15  C   UNL     1      31.566  -9.443 -22.535  0.00  0.00    +0.072 C 
ATOM     16  C   UNL     1      33.625  -7.605 -22.860  0.00  0.00    +0.059 C 
ATOM     17  C   UNL     1      31.335  -8.137 -22.366  0.00  0.00    +0.017 C 
ATOM     18  C   UNL     1      32.399  -7.193 -22.528  0.00  0.00    +0.006 C 
ENDBRANCH   9  13
ENDBRANCH   2   6
BRANCH   3  19
ATOM     19  C   UNL     1      34.556 -17.685 -23.801  0.00  0.00    +0.010 C 
BRANCH  19  20
ATOM     20  N   UNL     1      35.417 -18.409 -22.878  0.00  0.00    +0.394 N 
ATOM     21  C   UNL     1      35.693 -20.008 -21.204  0.00  0.00    +0.049 C 
ATOM     22  C   UNL     1      36.268 -18.677 -20.712  0.00  0.00    -0.005 C 
ATOM     23  C   UNL     1      34.792 -19.635 -22.377  0.00  0.00    -0.057 C 
ATOM     24  C   UNL     1      35.729 -17.630 -21.679  0.00  0.00    -0.075 C 
ATOM     25  H   UNL     1      36.253 -18.609 -23.425  0.00  0.00    -0.079 HD
BRANCH  21  27
ATOM     26  O   UNL     1      36.794 -21.943 -19.392  0.00  0.00    -0.270 OA
ATOM     27  N   UNL     1      34.985 -20.724 -20.179  0.00  0.00    -0.304 N 
ATOM     28  C   UNL     1      35.602 -21.647 -19.345  0.00  0.00    +0.252 C 
ATOM     29  H   UNL     1      34.021 -20.554 -20.064  0.00  0.00    +0.150 HD
BRANCH  28  32
ATOM     30 CL   UNL     1      33.748 -24.190 -14.796  0.00  0.00    -0.075 Cl
ATOM     31  S   UNL     1      35.394 -22.835 -16.863  0.00  0.00    -0.071 S 
ATOM     32  C   UNL     1      34.726 -22.322 -18.353  0.00  0.00    +0.084 C 
ATOM     33  C   UNL     1      33.383 -22.617 -18.447  0.00  0.00    +0.012 C 
ATOM     34  C   UNL     1      32.898 -23.273 -17.279  0.00  0.00    +0.019 C 
ATOM     35  C   UNL     1      33.886 -23.455 -16.338  0.00  0.00    +0.087 C 
ENDBRANCH  28  32
ENDBRANCH  21  27
ENDBRANCH  19  20
ENDBRANCH   3  19
TORSDOF 6
ENDMDL
MODEL 9
REMARK VINA RESULT:      -9.8      3.738      6.124
REMARK  Name = 42628060
REMARK  6 active torsions:
REMARK  status: ('A' for Active; 'I' for Inactive)
REMARK    1  A    between atoms: N_2  and  C_6
REMARK    2  A    between atoms: C_3  and  C_19
REMARK    3  A    between atoms: C_9  and  N_13
REMARK    4  A    between atoms: C_19  and  N_20
REMARK    5  A    between atoms: C_21  and  N_27
REMARK    6  A    between atoms: C_28  and  C_32
REMARK                            x       y       z     vdW  Elec       q    Type
REMARK                         _______ _______ _______ _____ _____    ______ ____
ROOT
ATOM      1  O   UNL     1      35.762 -18.359 -20.956  0.00  0.00    -0.277 OA
ATOM      2  N   UNL     1      34.973 -20.532 -21.369  0.00  0.00    -0.284 N 
ATOM      3  C   UNL     1      35.292 -19.216 -21.698  0.00  0.00    +0.205 C 
ATOM      4  H   UNL     1      34.597 -21.082 -22.093  0.00  0.00    +0.155 HD
ENDROOT
BRANCH   2   6
ATOM      5  F   UNL     1      32.783 -21.528 -19.964  0.00  0.00    -0.203 F 
ATOM      6  C   UNL     1      35.126 -21.168 -20.115  0.00  0.00    +0.078 C 
ATOM      7  C   UNL     1      34.008 -21.656 -19.437  0.00  0.00    +0.155 C 
ATOM      8  C   UNL     1      36.396 -21.306 -19.555  0.00  0.00    +0.018 C 
ATOM      9  C   UNL     1      35.432 -22.420 -17.641  0.00  0.00    +0.061 C 
ATOM     10  C   UNL     1      34.162 -22.283 -18.199  0.00  0.00    +0.046 C 
ATOM     11  C   UNL     1      36.549 -21.933 -18.318  0.00  0.00    +0.017 C 
BRANCH   9  13
ATOM     12  O   UNL     1      37.878 -22.496 -16.098  0.00  0.00    -0.269 OA
ATOM     13  N   UNL     1      35.592 -23.071 -16.354  0.00  0.00    -0.233 N 
ATOM     14  C   UNL     1      36.859 -23.071 -15.715  0.00  0.00    +0.257 C 
ATOM     15  C   UNL     1      34.502 -23.679 -15.727  0.00  0.00    +0.072 C 
ATOM     16  C   UNL     1      36.947 -23.804 -14.413  0.00  0.00    +0.059 C 
ATOM     17  C   UNL     1      34.601 -24.300 -14.547  0.00  0.00    +0.017 C 
ATOM     18  C   UNL     1      35.864 -24.368 -13.876  0.00  0.00    +0.006 C 
ENDBRANCH   9  13
ENDBRANCH   2   6
BRANCH   3  19
ATOM     19  C   UNL     1      34.967 -18.946 -23.157  0.00  0.00    +0.010 C 
BRANCH  19  20
ATOM     20  N   UNL     1      35.241 -17.550 -23.464  0.00  0.00    +0.394 N 
ATOM     21  C   UNL     1      34.911 -15.283 -23.031  0.00  0.00    +0.049 C 
ATOM     22  C   UNL     1      34.591 -15.554 -24.503  0.00  0.00    -0.005 C 
ATOM     23  C   UNL     1      34.875 -16.655 -22.364  0.00  0.00    -0.057 C 
ATOM     24  C   UNL     1      34.471 -17.070 -24.611  0.00  0.00    -0.075 C 
ATOM     25  H   UNL     1      36.244 -17.529 -23.648  0.00  0.00    -0.079 HD
BRANCH  21  27
ATOM     26  O   UNL     1      34.281 -12.638 -23.952  0.00  0.00    -0.270 OA
ATOM     27  N   UNL     1      33.996 -14.358 -22.421  0.00  0.00    -0.304 N 
ATOM     28  C   UNL     1      33.753 -13.092 -22.939  0.00  0.00    +0.252 C 
ATOM     29  H   UNL     1      33.523 -14.632 -21.602  0.00  0.00    +0.150 HD
BRANCH  28  32
ATOM     30 CL   UNL     1      30.233 -11.244 -19.092  0.00  0.00    -0.075 Cl
ATOM     31  S   UNL     1      32.142 -12.840 -20.712  0.00  0.00    -0.071 S 
ATOM     32  C   UNL     1      32.800 -12.244 -22.176  0.00  0.00    +0.084 C 
ATOM     33  C   UNL     1      32.335 -10.982 -22.476  0.00  0.00    +0.012 C 
ATOM     34  C   UNL     1      31.428 -10.499 -21.490  0.00  0.00    +0.019 C 
ATOM     35  C   UNL     1      31.233 -11.409 -20.475  0.00  0.00    +0.087 C 
ENDBRANCH  28  32
ENDBRANCH  21  27
ENDBRANCH  19  20
ENDBRANCH   3  19
TORSDOF 6
ENDMDL
