MODEL 1
REMARK VINA RESULT:     -11.3      0.000      0.000
REMARK  Name = 100472
REMARK  3 active torsions:
REMARK  status: ('A' for Active; 'I' for Inactive)
REMARK    1  A    between atoms: C_1  and  C_13
REMARK    2  A    between atoms: C_2  and  C_7
REMARK    3  A    between atoms: C_13  and  C_16
REMARK                            x       y       z     vdW  Elec       q    Type
REMARK                         _______ _______ _______ _____ _____    ______ ____
ROOT
ATOM      1  C   UNL     1      34.115 -22.536 -18.287  0.00  0.00    -0.013 C 
ATOM      2  C   UNL     1      34.545 -20.635 -20.284  0.00  0.00    -0.000 C 
ATOM      3  C   UNL     1      33.033 -21.863 -18.854  0.00  0.00    -0.004 C 
ATOM      4  C   UNL     1      35.413 -22.258 -18.719  0.00  0.00    -0.004 C 
ATOM      5  C   UNL     1      33.248 -20.913 -19.852  0.00  0.00    -0.000 C 
ATOM      6  C   UNL     1      35.627 -21.308 -19.717  0.00  0.00    -0.000 C 
ENDROOT
BRANCH   2   7
ATOM      7  C   UNL     1      34.768 -19.649 -21.319  0.00  0.00    -0.000 C 
ATOM      8  C   UNL     1      34.679 -20.014 -22.661  0.00  0.00    -0.000 C 
ATOM      9  C   UNL     1      35.072 -18.333 -20.973  0.00  0.00    -0.000 C 
ATOM     10  C   UNL     1      34.893 -19.063 -23.659  0.00  0.00    +0.000 C 
ATOM     11  C   UNL     1      35.287 -17.381 -21.970  0.00  0.00    +0.000 C 
ATOM     12  C   UNL     1      35.197 -17.747 -23.314  0.00  0.00    +0.000 C 
ENDBRANCH   2   7
BRANCH   1  13
ATOM     13  C   UNL     1      33.886 -23.552 -17.220  0.00  0.00    +0.112 C 
BRANCH  13  16
ATOM     14  O   UNL     1      35.325 -22.465 -15.620  0.00  0.00    -0.274 OA
ATOM     15  N   UNL     1      35.307 -24.810 -15.742  0.00  0.00    -0.269 N 
ATOM     16  C   UNL     1      34.923 -23.521 -16.101  0.00  0.00    +0.232 C 
ATOM     17  H   UNL     1      34.878 -25.546 -16.237  0.00  0.00    +0.156 HD
ATOM     18  N   UNL     1      36.467 -26.500 -14.562  0.00  0.00    -0.229 NA
ATOM     19  C   UNL     1      36.242 -25.187 -14.748  0.00  0.00    +0.134 C 
ATOM     20  C   UNL     1      36.848 -24.169 -14.045  0.00  0.00    +0.034 C 
ATOM     21  C   UNL     1      37.768 -24.528 -13.067  0.00  0.00    +0.004 C 
ATOM     22  C   UNL     1      38.037 -25.873 -12.834  0.00  0.00    +0.021 C 
ATOM     23  C   UNL     1      37.366 -26.811 -13.601  0.00  0.00    +0.100 C 
ENDBRANCH  13  16
ENDBRANCH   1  13
TORSDOF 3
ENDMDL
MODEL 2
REMARK VINA RESULT:     -11.2      4.486      9.854
REMARK  Name = 100472
REMARK  3 active torsions:
REMARK  status: ('A' for Active; 'I' for Inactive)
REMARK    1  A    between atoms: C_1  and  C_13
REMARK    2  A    between atoms: C_2  and  C_7
REMARK    3  A    between atoms: C_13  and  C_16
REMARK                            x       y       z     vdW  Elec       q    Type
REMARK                         _______ _______ _______ _____ _____    ______ ____
ROOT
ATOM      1  C   UNL     1      35.791 -19.929 -21.196  0.00  0.00    -0.013 C 
ATOM      2  C   UNL     1      34.928 -21.549 -19.094  0.00  0.00    -0.000 C 
ATOM      3  C   UNL     1      36.721 -20.495 -20.323  0.00  0.00    -0.004 C 
ATOM      4  C   UNL     1      34.429 -20.174 -21.017  0.00  0.00    -0.004 C 
ATOM      5  C   UNL     1      36.290 -21.305 -19.273  0.00  0.00    -0.000 C 
ATOM      6  C   UNL     1      33.998 -20.984 -19.967  0.00  0.00    -0.000 C 
ENDROOT
BRANCH   2   7
ATOM      7  C   UNL     1      34.480 -22.389 -18.004  0.00  0.00    -0.000 C 
ATOM      8  C   UNL     1      35.379 -22.786 -17.015  0.00  0.00    -0.000 C 
ATOM      9  C   UNL     1      33.149 -22.801 -17.944  0.00  0.00    -0.000 C 
ATOM     10  C   UNL     1      34.947 -23.595 -15.964  0.00  0.00    +0.000 C 
ATOM     11  C   UNL     1      32.716 -23.609 -16.892  0.00  0.00    +0.000 C 
ATOM     12  C   UNL     1      33.616 -24.006 -15.903  0.00  0.00    +0.000 C 
ENDBRANCH   2   7
BRANCH   1  13
ATOM     13  C   UNL     1      36.253 -19.064 -22.319  0.00  0.00    +0.112 C 
BRANCH  13  16
ATOM     14  O   UNL     1      35.269 -17.044 -21.445  0.00  0.00    -0.274 OA
ATOM     15  N   UNL     1      35.156 -17.472 -23.751  0.00  0.00    -0.269 N 
ATOM     16  C   UNL     1      35.503 -17.739 -22.429  0.00  0.00    +0.232 C 
ATOM     17  H   UNL     1      35.426 -18.146 -24.417  0.00  0.00    +0.156 HD
ATOM     18  N   UNL     1      34.224 -16.285 -25.572  0.00  0.00    -0.229 NA
ATOM     19  C   UNL     1      34.458 -16.346 -24.249  0.00  0.00    +0.134 C 
ATOM     20  C   UNL     1      34.074 -15.393 -23.330  0.00  0.00    +0.034 C 
ATOM     21  C   UNL     1      33.390 -14.283 -23.809  0.00  0.00    +0.004 C 
ATOM     22  C   UNL     1      33.123 -14.171 -25.169  0.00  0.00    +0.021 C 
ATOM     23  C   UNL     1      33.558 -15.190 -26.001  0.00  0.00    +0.100 C 
ENDBRANCH  13  16
ENDBRANCH   1  13
TORSDOF 3
ENDMDL
MODEL 3
REMARK VINA RESULT:     -11.1      4.519      7.447
REMARK  Name = 100472
REMARK  3 active torsions:
REMARK  status: ('A' for Active; 'I' for Inactive)
REMARK    1  A    between atoms: C_1  and  C_13
REMARK    2  A    between atoms: C_2  and  C_7
REMARK    3  A    between atoms: C_13  and  C_16
REMARK                            x       y       z     vdW  Elec       q    Type
REMARK                         _______ _______ _______ _____ _____    ______ ____
ROOT
ATOM      1  C   UNL     1      34.881 -16.569 -22.409  0.00  0.00    -0.013 C 
ATOM      2  C   UNL     1      33.338 -14.441 -21.471  0.00  0.00    -0.000 C 
ATOM      3  C   UNL     1      34.626 -16.439 -21.043  0.00  0.00    -0.004 C 
ATOM      4  C   UNL     1      34.363 -15.634 -23.306  0.00  0.00    -0.004 C 
ATOM      5  C   UNL     1      33.855 -15.376 -20.575  0.00  0.00    -0.000 C 
ATOM      6  C   UNL     1      33.592 -14.570 -22.837  0.00  0.00    -0.000 C 
ENDROOT
BRANCH   2   7
ATOM      7  C   UNL     1      32.538 -13.337 -20.986  0.00  0.00    -0.000 C 
ATOM      8  C   UNL     1      31.972 -12.436 -21.887  0.00  0.00    -0.000 C 
ATOM      9  C   UNL     1      32.333 -13.176 -19.616  0.00  0.00    -0.000 C 
ATOM     10  C   UNL     1      31.201 -11.372 -21.418  0.00  0.00    +0.000 C 
ATOM     11  C   UNL     1      31.561 -12.112 -19.146  0.00  0.00    +0.000 C 
ATOM     12  C   UNL     1      30.995 -11.211 -20.049  0.00  0.00    +0.000 C 
ENDBRANCH   2   7
BRANCH   1  13
ATOM     13  C   UNL     1      35.705 -17.706 -22.910  0.00  0.00    +0.112 C 
BRANCH  13  16
ATOM     14  O   UNL     1      37.164 -18.956 -21.454  0.00  0.00    -0.274 OA
ATOM     15  N   UNL     1      34.859 -19.408 -21.435  0.00  0.00    -0.269 N 
ATOM     16  C   UNL     1      36.019 -18.758 -21.850  0.00  0.00    +0.232 C 
ATOM     17  H   UNL     1      34.021 -19.118 -21.863  0.00  0.00    +0.156 HD
ATOM     18  N   UNL     1      33.519 -20.931 -20.219  0.00  0.00    -0.229 NA
ATOM     19  C   UNL     1      34.745 -20.438 -20.471  0.00  0.00    +0.134 C 
ATOM     20  C   UNL     1      35.910 -20.853 -19.861  0.00  0.00    +0.034 C 
ATOM     21  C   UNL     1      35.808 -21.863 -18.912  0.00  0.00    +0.004 C 
ATOM     22  C   UNL     1      34.563 -22.407 -18.614  0.00  0.00    +0.021 C 
ATOM     23  C   UNL     1      33.460 -21.910 -19.289  0.00  0.00    +0.100 C 
ENDBRANCH  13  16
ENDBRANCH   1  13
TORSDOF 3
ENDMDL
MODEL 4
REMARK VINA RESULT:     -11.0      3.008      3.817
REMARK  Name = 100472
REMARK  3 active torsions:
REMARK  status: ('A' for Active; 'I' for Inactive)
REMARK    1  A    between atoms: C_1  and  C_13
REMARK    2  A    between atoms: C_2  and  C_7
REMARK    3  A    between atoms: C_13  and  C_16
REMARK                            x       y       z     vdW  Elec       q    Type
REMARK                         _______ _______ _______ _____ _____    ______ ____
ROOT
ATOM      1  C   UNL     1      34.674 -22.010 -18.919  0.00  0.00    -0.013 C 
ATOM      2  C   UNL     1      34.789 -20.094 -20.944  0.00  0.00    -0.000 C 
ATOM      3  C   UNL     1      35.910 -21.582 -19.405  0.00  0.00    -0.004 C 
ATOM      4  C   UNL     1      33.496 -21.480 -19.446  0.00  0.00    -0.004 C 
ATOM      5  C   UNL     1      35.967 -20.624 -20.417  0.00  0.00    -0.000 C 
ATOM      6  C   UNL     1      33.554 -20.523 -20.458  0.00  0.00    -0.000 C 
ENDROOT
BRANCH   2   7
ATOM      7  C   UNL     1      34.849 -19.101 -21.995  0.00  0.00    -0.000 C 
ATOM      8  C   UNL     1      35.168 -17.779 -21.688  0.00  0.00    -0.000 C 
ATOM      9  C   UNL     1      34.586 -19.467 -23.314  0.00  0.00    -0.000 C 
ATOM     10  C   UNL     1      35.225 -16.822 -22.701  0.00  0.00    +0.000 C 
ATOM     11  C   UNL     1      34.644 -18.510 -24.328  0.00  0.00    +0.000 C 
ATOM     12  C   UNL     1      34.964 -17.188 -24.020  0.00  0.00    +0.000 C 
ENDBRANCH   2   7
BRANCH   1  13
ATOM     13  C   UNL     1      34.613 -23.034 -17.836  0.00  0.00    +0.112 C 
BRANCH  13  16
ATOM     14  O   UNL     1      32.212 -22.816 -17.799  0.00  0.00    -0.274 OA
ATOM     15  N   UNL     1      33.301 -23.848 -15.992  0.00  0.00    -0.269 N 
ATOM     16  C   UNL     1      33.225 -23.208 -17.226  0.00  0.00    +0.232 C 
ATOM     17  H   UNL     1      34.203 -24.094 -15.683  0.00  0.00    +0.156 HD
ATOM     18  N   UNL     1      32.528 -24.807 -13.972  0.00  0.00    -0.229 NA
ATOM     19  C   UNL     1      32.232 -24.186 -15.127  0.00  0.00    +0.134 C 
ATOM     20  C   UNL     1      30.962 -23.850 -15.546  0.00  0.00    +0.034 C 
ATOM     21  C   UNL     1      29.905 -24.178 -14.705  0.00  0.00    +0.004 C 
ATOM     22  C   UNL     1      30.158 -24.821 -13.498  0.00  0.00    +0.021 C 
ATOM     23  C   UNL     1      31.475 -25.111 -13.181  0.00  0.00    +0.100 C 
ENDBRANCH  13  16
ENDBRANCH   1  13
TORSDOF 3
ENDMDL
MODEL 5
REMARK VINA RESULT:     -10.8      3.030      4.347
REMARK  Name = 100472
REMARK  3 active torsions:
REMARK  status: ('A' for Active; 'I' for Inactive)
REMARK    1  A    between atoms: C_1  and  C_13
REMARK    2  A    between atoms: C_2  and  C_7
REMARK    3  A    between atoms: C_13  and  C_16
REMARK                            x       y       z     vdW  Elec       q    Type
REMARK                         _______ _______ _______ _____ _____    ______ ____
ROOT
ATOM      1  C   UNL     1      34.505 -22.548 -18.744  0.00  0.00    -0.013 C 
ATOM      2  C   UNL     1      34.732 -20.406 -20.518  0.00  0.00    -0.000 C 
ATOM      3  C   UNL     1      33.358 -21.909 -19.217  0.00  0.00    -0.004 C 
ATOM      4  C   UNL     1      35.765 -22.115 -19.158  0.00  0.00    -0.004 C 
ATOM      5  C   UNL     1      33.472 -20.839 -20.104  0.00  0.00    -0.000 C 
ATOM      6  C   UNL     1      35.878 -21.045 -20.045  0.00  0.00    -0.000 C 
ENDROOT
BRANCH   2   7
ATOM      7  C   UNL     1      34.850 -19.295 -21.437  0.00  0.00    -0.000 C 
ATOM      8  C   UNL     1      34.771 -19.516 -22.812  0.00  0.00    -0.000 C 
ATOM      9  C   UNL     1      35.042 -18.003 -20.948  0.00  0.00    -0.000 C 
ATOM     10  C   UNL     1      34.884 -18.444 -23.698  0.00  0.00    +0.000 C 
ATOM     11  C   UNL     1      35.155 -16.931 -21.834  0.00  0.00    +0.000 C 
ATOM     12  C   UNL     1      35.075 -17.153 -23.209  0.00  0.00    +0.000 C 
ENDBRANCH   2   7
BRANCH   1  13
ATOM     13  C   UNL     1      34.384 -23.693 -17.796  0.00  0.00    +0.112 C 
BRANCH  13  16
ATOM     14  O   UNL     1      33.831 -23.293 -15.484  0.00  0.00    -0.274 OA
ATOM     15  N   UNL     1      32.108 -23.395 -17.076  0.00  0.00    -0.269 N 
ATOM     16  C   UNL     1      33.428 -23.437 -16.634  0.00  0.00    +0.232 C 
ATOM     17  H   UNL     1      31.967 -23.532 -18.041  0.00  0.00    +0.156 HD
ATOM     18  N   UNL     1      29.757 -23.178 -16.931  0.00  0.00    -0.229 NA
ATOM     19  C   UNL     1      30.944 -23.179 -16.299  0.00  0.00    +0.134 C 
ATOM     20  C   UNL     1      31.126 -22.984 -14.947  0.00  0.00    +0.034 C 
ATOM     21  C   UNL     1      29.989 -22.770 -14.175  0.00  0.00    +0.004 C 
ATOM     22  C   UNL     1      28.737 -22.759 -14.780  0.00  0.00    +0.021 C 
ATOM     23  C   UNL     1      28.676 -22.966 -16.148  0.00  0.00    +0.100 C 
ENDBRANCH  13  16
ENDBRANCH   1  13
TORSDOF 3
ENDMDL
MODEL 6
REMARK VINA RESULT:     -10.8      5.595      9.994
REMARK  Name = 100472
REMARK  3 active torsions:
REMARK  status: ('A' for Active; 'I' for Inactive)
REMARK    1  A    between atoms: C_1  and  C_13
REMARK    2  A    between atoms: C_2  and  C_7
REMARK    3  A    between atoms: C_13  and  C_16
REMARK                            x       y       z     vdW  Elec       q    Type
REMARK                         _______ _______ _______ _____ _____    ______ ____
ROOT
ATOM      1  C   UNL     1      34.953 -17.442 -23.310  0.00  0.00    -0.013 C 
ATOM      2  C   UNL     1      34.918 -19.480 -21.405  0.00  0.00    -0.000 C 
ATOM      3  C   UNL     1      35.281 -17.162 -21.983  0.00  0.00    -0.004 C 
ATOM      4  C   UNL     1      34.607 -18.741 -23.684  0.00  0.00    -0.004 C 
ATOM      5  C   UNL     1      35.264 -18.181 -21.031  0.00  0.00    -0.000 C 
ATOM      6  C   UNL     1      34.590 -19.759 -22.732  0.00  0.00    -0.000 C 
ENDROOT
BRANCH   2   7
ATOM      7  C   UNL     1      34.900 -20.536 -20.417  0.00  0.00    -0.000 C 
ATOM      8  C   UNL     1      36.097 -21.037 -19.908  0.00  0.00    -0.000 C 
ATOM      9  C   UNL     1      33.683 -21.054 -19.973  0.00  0.00    -0.000 C 
ATOM     10  C   UNL     1      36.079 -22.055 -18.955  0.00  0.00    +0.000 C 
ATOM     11  C   UNL     1      33.664 -22.073 -19.020  0.00  0.00    +0.000 C 
ATOM     12  C   UNL     1      34.863 -22.573 -18.511  0.00  0.00    +0.000 C 
ENDBRANCH   2   7
BRANCH   1  13
ATOM     13  C   UNL     1      34.972 -16.352 -24.329  0.00  0.00    +0.112 C 
BRANCH  13  16
ATOM     14  O   UNL     1      33.928 -14.216 -24.727  0.00  0.00    -0.274 OA
ATOM     15  N   UNL     1      33.788 -15.183 -22.591  0.00  0.00    -0.269 N 
ATOM     16  C   UNL     1      34.171 -15.116 -23.928  0.00  0.00    +0.232 C 
ATOM     17  H   UNL     1      34.073 -15.985 -22.096  0.00  0.00    +0.156 HD
ATOM     18  N   UNL     1      32.776 -14.494 -20.567  0.00  0.00    -0.229 NA
ATOM     19  C   UNL     1      33.038 -14.231 -21.860  0.00  0.00    +0.134 C 
ATOM     20  C   UNL     1      32.630 -13.103 -22.540  0.00  0.00    +0.034 C 
ATOM     21  C   UNL     1      31.892 -12.163 -21.831  0.00  0.00    +0.004 C 
ATOM     22  C   UNL     1      31.594 -12.387 -20.491  0.00  0.00    +0.021 C 
ATOM     23  C   UNL     1      32.055 -13.558 -19.912  0.00  0.00    +0.100 C 
ENDBRANCH  13  16
ENDBRANCH   1  13
TORSDOF 3
ENDMDL
MODEL 7
REMARK VINA RESULT:     -10.7      3.695      6.357
REMARK  Name = 100472
REMARK  3 active torsions:
REMARK  status: ('A' for Active; 'I' for Inactive)
REMARK    1  A    between atoms: C_1  and  C_13
REMARK    2  A    between atoms: C_2  and  C_7
REMARK    3  A    between atoms: C_13  and  C_16
REMARK                            x       y       z     vdW  Elec       q    Type
REMARK                         _______ _______ _______ _____ _____    ______ ____
ROOT
ATOM      1  C   UNL     1      35.251 -17.712 -22.124  0.00  0.00    -0.013 C 
ATOM      2  C   UNL     1      34.209 -15.134 -22.357  0.00  0.00    -0.000 C 
ATOM      3  C   UNL     1      34.916 -16.989 -20.979  0.00  0.00    -0.004 C 
ATOM      4  C   UNL     1      35.065 -17.146 -23.386  0.00  0.00    -0.004 C 
ATOM      5  C   UNL     1      34.395 -15.700 -21.095  0.00  0.00    -0.000 C 
ATOM      6  C   UNL     1      34.544 -15.857 -23.502  0.00  0.00    -0.000 C 
ENDROOT
BRANCH   2   7
ATOM      7  C   UNL     1      33.670 -13.797 -22.478  0.00  0.00    -0.000 C 
ATOM      8  C   UNL     1      32.655 -13.374 -21.620  0.00  0.00    -0.000 C 
ATOM      9  C   UNL     1      34.165 -12.931 -23.452  0.00  0.00    -0.000 C 
ATOM     10  C   UNL     1      32.135 -12.084 -21.736  0.00  0.00    +0.000 C 
ATOM     11  C   UNL     1      33.646 -11.641 -23.569  0.00  0.00    +0.000 C 
ATOM     12  C   UNL     1      32.631 -11.219 -22.710  0.00  0.00    +0.000 C 
ENDBRANCH   2   7
BRANCH   1  13
ATOM     13  C   UNL     1      35.807 -19.090 -22.000  0.00  0.00    +0.112 C 
BRANCH  13  16
ATOM     14  O   UNL     1      33.772 -20.232 -21.398  0.00  0.00    -0.274 OA
ATOM     15  N   UNL     1      35.706 -20.575 -20.110  0.00  0.00    -0.269 N 
ATOM     16  C   UNL     1      34.956 -20.028 -21.148  0.00  0.00    +0.232 C 
ATOM     17  H   UNL     1      36.649 -20.297 -20.061  0.00  0.00    +0.156 HD
ATOM     18  N   UNL     1      36.165 -21.891 -18.199  0.00  0.00    -0.229 NA
ATOM     19  C   UNL     1      35.270 -21.485 -19.117  0.00  0.00    +0.134 C 
ATOM     20  C   UNL     1      33.952 -21.885 -19.175  0.00  0.00    +0.034 C 
ATOM     21  C   UNL     1      33.514 -22.778 -18.204  0.00  0.00    +0.004 C 
ATOM     22  C   UNL     1      34.400 -23.230 -17.232  0.00  0.00    +0.021 C 
ATOM     23  C   UNL     1      35.703 -22.761 -17.274  0.00  0.00    +0.100 C 
ENDBRANCH  13  16
ENDBRANCH   1  13
TORSDOF 3
ENDMDL
MODEL 8
REMARK VINA RESULT:     -10.6      6.399     11.371
REMARK  Name = 100472
REMARK  3 active torsions:
REMARK  status: ('A' for Active; 'I' for Inactive)
REMARK    1  A    between atoms: C_1  and  C_13
REMARK    2  A    between atoms: C_2  and  C_7
REMARK    3  A    between atoms: C_13  and  C_16
REMARK                            x       y       z     vdW  Elec       q    Type
REMARK                         _______ _______ _______ _____ _____    ______ ____
ROOT
ATOM      1  C   UNL     1      34.856 -16.479 -23.022  0.00  0.00    -0.013 C 
ATOM      2  C   UNL     1      34.950 -18.793 -21.465  0.00  0.00    -0.000 C 
ATOM      3  C   UNL     1      34.869 -16.384 -21.630  0.00  0.00    -0.004 C 
ATOM      4  C   UNL     1      34.890 -17.731 -23.635  0.00  0.00    -0.004 C 
ATOM      5  C   UNL     1      34.916 -17.540 -20.852  0.00  0.00    -0.000 C 
ATOM      6  C   UNL     1      34.937 -18.888 -22.857  0.00  0.00    -0.000 C 
ENDROOT
BRANCH   2   7
ATOM      7  C   UNL     1      34.998 -19.993 -20.659  0.00  0.00    -0.000 C 
ATOM      8  C   UNL     1      33.815 -20.615 -20.262  0.00  0.00    -0.000 C 
ATOM      9  C   UNL     1      36.229 -20.527 -20.277  0.00  0.00    -0.000 C 
ATOM     10  C   UNL     1      33.862 -21.773 -19.485  0.00  0.00    +0.000 C 
ATOM     11  C   UNL     1      36.276 -21.685 -19.500  0.00  0.00    +0.000 C 
ATOM     12  C   UNL     1      35.092 -22.307 -19.105  0.00  0.00    +0.000 C 
ENDBRANCH   2   7
BRANCH   1  13
ATOM     13  C   UNL     1      34.806 -15.242 -23.854  0.00  0.00    +0.112 C 
BRANCH  13  16
ATOM     14  O   UNL     1      32.888 -14.427 -22.642  0.00  0.00    -0.274 OA
ATOM     15  N   UNL     1      34.365 -12.888 -23.625  0.00  0.00    -0.269 N 
ATOM     16  C   UNL     1      33.892 -14.155 -23.293  0.00  0.00    +0.232 C 
ATOM     17  H   UNL     1      35.193 -12.858 -24.158  0.00  0.00    +0.156 HD
ATOM     18  N   UNL     1      34.418 -10.525 -23.712  0.00  0.00    -0.229 NA
ATOM     19  C   UNL     1      33.794 -11.638 -23.287  0.00  0.00    +0.134 C 
ATOM     20  C   UNL     1      32.636 -11.664 -22.539  0.00  0.00    +0.034 C 
ATOM     21  C   UNL     1      32.068 -10.442 -22.201  0.00  0.00    +0.004 C 
ATOM     22  C   UNL     1      32.673  -9.261 -22.616  0.00  0.00    +0.021 C 
ATOM     23  C   UNL     1      33.837  -9.356 -23.362  0.00  0.00    +0.100 C 
ENDBRANCH  13  16
ENDBRANCH   1  13
TORSDOF 3
ENDMDL
MODEL 9
REMARK VINA RESULT:     -10.6      2.700      5.162
REMARK  Name = 100472
REMARK  3 active torsions:
REMARK  status: ('A' for Active; 'I' for Inactive)
REMARK    1  A    between atoms: C_1  and  C_13
REMARK    2  A    between atoms: C_2  and  C_7
REMARK    3  A    between atoms: C_13  and  C_16
REMARK                            x       y       z     vdW  Elec       q    Type
REMARK                         _______ _______ _______ _____ _____    ______ ____
ROOT
ATOM      1  C   UNL     1      35.612 -18.999 -21.669  0.00  0.00    -0.013 C 
ATOM      2  C   UNL     1      34.735 -16.790 -23.131  0.00  0.00    -0.000 C 
ATOM      3  C   UNL     1      35.394 -19.113 -23.042  0.00  0.00    -0.004 C 
ATOM      4  C   UNL     1      35.391 -17.780 -21.027  0.00  0.00    -0.004 C 
ATOM      5  C   UNL     1      34.956 -18.009 -23.773  0.00  0.00    -0.000 C 
ATOM      6  C   UNL     1      34.953 -16.676 -21.758  0.00  0.00    -0.000 C 
ENDROOT
BRANCH   2   7
ATOM      7  C   UNL     1      34.279 -15.645 -23.889  0.00  0.00    -0.000 C 
ATOM      8  C   UNL     1      33.835 -15.808 -25.201  0.00  0.00    -0.000 C 
ATOM      9  C   UNL     1      34.286 -14.378 -23.308  0.00  0.00    -0.000 C 
ATOM     10  C   UNL     1      33.395 -14.704 -25.931  0.00  0.00    +0.000 C 
ATOM     11  C   UNL     1      33.846 -13.273 -24.038  0.00  0.00    +0.000 C 
ATOM     12  C   UNL     1      33.400 -13.437 -25.349  0.00  0.00    +0.000 C 
ENDBRANCH   2   7
BRANCH   1  13
ATOM     13  C   UNL     1      36.081 -20.179 -20.887  0.00  0.00    +0.112 C 
BRANCH  13  16
ATOM     14  O   UNL     1      33.802 -20.852 -20.480  0.00  0.00    -0.274 OA
ATOM     15  N   UNL     1      35.487 -21.548 -19.000  0.00  0.00    -0.269 N 
ATOM     16  C   UNL     1      34.973 -20.891 -20.115  0.00  0.00    +0.232 C 
ATOM     17  H   UNL     1      36.459 -21.471 -18.859  0.00  0.00    +0.156 HD
ATOM     18  N   UNL     1      35.473 -22.867 -17.037  0.00  0.00    -0.229 NA
ATOM     19  C   UNL     1      34.776 -22.313 -18.045  0.00  0.00    +0.134 C 
ATOM     20  C   UNL     1      33.415 -22.432 -18.230  0.00  0.00    +0.034 C 
ATOM     21  C   UNL     1      32.708 -23.182 -17.299  0.00  0.00    +0.004 C 
ATOM     22  C   UNL     1      33.381 -23.776 -16.236  0.00  0.00    +0.021 C 
ATOM     23  C   UNL     1      34.751 -23.590 -16.152  0.00  0.00    +0.100 C 
ENDBRANCH  13  16
ENDBRANCH   1  13
TORSDOF 3
ENDMDL
