MODEL 1
REMARK VINA RESULT:     -10.9      0.000      0.000
REMARK  Name = 16040294
REMARK  4 active torsions:
REMARK  status: ('A' for Active; 'I' for Inactive)
REMARK    1  A    between atoms: N_6  and  C_21
REMARK    2  A    between atoms: C_7  and  C_30
REMARK    3  A    between atoms: C_24  and  C_27
REMARK    4  A    between atoms: C_27  and  C_29
REMARK                            x       y       z     vdW  Elec       q    Type
REMARK                         _______ _______ _______ _____ _____    ______ ____
ROOT
ATOM      1  N   UNL     1      35.104 -22.707 -19.246  0.00  0.00    -0.239 N 
ATOM      2  N   UNL     1      34.420 -23.212 -18.206  0.00  0.00    -0.166 NA
ATOM      3  N   UNL     1      32.344 -22.517 -17.225  0.00  0.00    -0.271 N 
ATOM      4  N   UNL     1      33.189 -23.938 -15.550  0.00  0.00    -0.312 NA
ATOM      5  N   UNL     1      31.696 -25.155 -14.101  0.00  0.00    -0.332 NA
ATOM      6  N   UNL     1      34.023 -25.354 -13.881  0.00  0.00    -0.238 N 
ATOM      7  C   UNL     1      34.508 -21.624 -19.824  0.00  0.00    +0.045 C 
ATOM      8  C   UNL     1      33.354 -21.407 -19.112  0.00  0.00    +0.048 C 
ATOM      9  C   UNL     1      33.386 -22.411 -18.160  0.00  0.00    +0.152 C 
ATOM     10  C   UNL     1      32.105 -23.418 -16.157  0.00  0.00    +0.201 C 
ATOM     11  C   UNL     1      30.795 -23.716 -15.796  0.00  0.00    +0.072 C 
ATOM     12  C   UNL     1      30.636 -24.617 -14.730  0.00  0.00    +0.131 C 
ATOM     13  C   UNL     1      32.915 -24.786 -14.545  0.00  0.00    +0.204 C 
ATOM     14  C   UNL     1      29.679 -23.160 -16.445  0.00  0.00    +0.006 C 
ATOM     15  C   UNL     1      29.338 -24.939 -14.339  0.00  0.00    +0.086 C 
ATOM     16  C   UNL     1      28.394 -23.500 -16.034  0.00  0.00    -0.004 C 
ATOM     17  C   UNL     1      28.223 -24.390 -14.980  0.00  0.00    -0.019 C 
ATOM     18  H   UNL     1      35.957 -23.083 -19.563  0.00  0.00    +0.174 HD
ATOM     19  H   UNL     1      31.644 -21.833 -17.331  0.00  0.00    +0.156 HD
ATOM     20  H   UNL     1      33.775 -25.970 -13.154  0.00  0.00    +0.166 HD
ENDROOT
BRANCH   6  21
ATOM     21  C   UNL     1      35.412 -25.214 -14.055  0.00  0.00    +0.058 C 
ATOM     22  C   UNL     1      36.054 -24.040 -13.654  0.00  0.00    +0.015 C 
ATOM     23  C   UNL     1      36.154 -26.248 -14.629  0.00  0.00    +0.015 C 
ATOM     24  C   UNL     1      38.170 -24.937 -14.400  0.00  0.00    -0.007 C 
ATOM     25  C   UNL     1      37.431 -23.902 -13.827  0.00  0.00    -0.002 C 
ATOM     26  C   UNL     1      37.531 -26.110 -14.802  0.00  0.00    -0.002 C 
BRANCH  24  27
ATOM     27  C   UNL     1      39.642 -24.789 -14.586  0.00  0.00    +0.132 C 
BRANCH  27  29
ATOM     28  N   UNL     1      40.976 -26.953 -13.899  0.00  0.00    -0.196 NA
ATOM     29  C   UNL     1      40.387 -26.003 -14.206  0.00  0.00    +0.078 C 
ENDBRANCH  27  29
ENDBRANCH  24  27
ENDBRANCH   6  21
BRANCH   7  30
ATOM     30  C   UNL     1      35.025 -20.827 -21.015  0.00  0.00    +0.037 C 
ATOM     31  C   UNL     1      36.120 -19.813 -20.801  0.00  0.00    +0.006 C 
ATOM     32  C   UNL     1      34.723 -19.353 -21.100  0.00  0.00    +0.006 C 
ENDBRANCH   7  30
TORSDOF 4
ENDMDL
MODEL 2
REMARK VINA RESULT:     -10.7      1.819      6.068
REMARK  Name = 16040294
REMARK  4 active torsions:
REMARK  status: ('A' for Active; 'I' for Inactive)
REMARK    1  A    between atoms: N_6  and  C_21
REMARK    2  A    between atoms: C_7  and  C_30
REMARK    3  A    between atoms: C_24  and  C_27
REMARK    4  A    between atoms: C_27  and  C_29
REMARK                            x       y       z     vdW  Elec       q    Type
REMARK                         _______ _______ _______ _____ _____    ______ ____
ROOT
ATOM      1  N   UNL     1      31.875 -23.394 -14.536  0.00  0.00    -0.239 N 
ATOM      2  N   UNL     1      32.879 -23.008 -15.341  0.00  0.00    -0.166 NA
ATOM      3  N   UNL     1      32.971 -22.818 -17.731  0.00  0.00    -0.271 N 
ATOM      4  N   UNL     1      35.257 -22.731 -17.176  0.00  0.00    -0.312 NA
ATOM      5  N   UNL     1      36.812 -21.513 -18.556  0.00  0.00    -0.332 NA
ATOM      6  N   UNL     1      37.533 -22.640 -16.629  0.00  0.00    -0.238 N 
ATOM      7  C   UNL     1      30.732 -23.729 -15.203  0.00  0.00    +0.045 C 
ATOM      8  C   UNL     1      31.009 -23.549 -16.536  0.00  0.00    +0.048 C 
ATOM      9  C   UNL     1      32.323 -23.114 -16.521  0.00  0.00    +0.152 C 
ATOM     10  C   UNL     1      34.281 -22.363 -18.028  0.00  0.00    +0.201 C 
ATOM     11  C   UNL     1      34.491 -21.578 -19.157  0.00  0.00    +0.072 C 
ATOM     12  C   UNL     1      35.814 -21.165 -19.386  0.00  0.00    +0.131 C 
ATOM     13  C   UNL     1      36.480 -22.278 -17.496  0.00  0.00    +0.204 C 
ATOM     14  C   UNL     1      33.455 -21.207 -20.032  0.00  0.00    +0.006 C 
ATOM     15  C   UNL     1      36.063 -20.377 -20.508  0.00  0.00    +0.086 C 
ATOM     16  C   UNL     1      33.733 -20.420 -21.145  0.00  0.00    -0.004 C 
ATOM     17  C   UNL     1      35.038 -20.004 -21.383  0.00  0.00    -0.019 C 
ATOM     18  H   UNL     1      31.955 -23.432 -13.555  0.00  0.00    +0.174 HD
ATOM     19  H   UNL     1      32.408 -22.952 -18.526  0.00  0.00    +0.156 HD
ATOM     20  H   UNL     1      38.409 -22.285 -16.901  0.00  0.00    +0.166 HD
ENDROOT
BRANCH   6  21
ATOM     21  C   UNL     1      37.574 -23.409 -15.450  0.00  0.00    +0.058 C 
ATOM     22  C   UNL     1      38.510 -24.437 -15.316  0.00  0.00    +0.015 C 
ATOM     23  C   UNL     1      36.680 -23.145 -14.411  0.00  0.00    +0.015 C 
ATOM     24  C   UNL     1      37.657 -24.932 -13.111  0.00  0.00    -0.007 C 
ATOM     25  C   UNL     1      38.551 -25.198 -14.149  0.00  0.00    -0.002 C 
ATOM     26  C   UNL     1      36.722 -23.906 -13.243  0.00  0.00    -0.002 C 
BRANCH  24  27
ATOM     27  C   UNL     1      37.701 -25.746 -11.863  0.00  0.00    +0.132 C 
BRANCH  27  29
ATOM     28  N   UNL     1      35.505 -25.526 -10.425  0.00  0.00    -0.196 NA
ATOM     29  C   UNL     1      36.472 -25.618 -11.059  0.00  0.00    +0.078 C 
ENDBRANCH  27  29
ENDBRANCH  24  27
ENDBRANCH   6  21
BRANCH   7  30
ATOM     30  C   UNL     1      29.423 -24.203 -14.585  0.00  0.00    +0.037 C 
ATOM     31  C   UNL     1      29.230 -25.673 -14.309  0.00  0.00    +0.006 C 
ATOM     32  C   UNL     1      28.467 -25.016 -15.421  0.00  0.00    +0.006 C 
ENDBRANCH   7  30
TORSDOF 4
ENDMDL
