MODEL 1
REMARK VINA RESULT:     -11.7      0.000      0.000
REMARK  Name = 24755471
REMARK  13 active torsions:
REMARK  status: ('A' for Active; 'I' for Inactive)
REMARK    1  A    between atoms: C_1  and  S_11
REMARK    2  A    between atoms: C_9  and  O_27
REMARK    3  A    between atoms: S_11  and  N_14
REMARK    4  A    between atoms: N_14  and  C_16
REMARK    5  A    between atoms: C_16  and  C_18
REMARK    6  A    between atoms: C_16  and  C_21
REMARK    7  A    between atoms: C_18  and  O_19
REMARK    8  A    between atoms: C_21  and  C_22
REMARK    9  A    between atoms: C_22  and  C_24
REMARK   10  A    between atoms: C_24  and  O_25
REMARK   11  A    between atoms: O_27  and  C_28
REMARK   12  A    between atoms: C_28  and  C_29
REMARK   13  A    between atoms: C_34  and  C_36
REMARK                            x       y       z     vdW  Elec       q    Type
REMARK                         _______ _______ _______ _____ _____    ______ ____
ROOT
ATOM      1  C   UNL     1      36.104 -23.307 -16.132  0.00  0.00    +0.122 C 
ATOM      2  C   UNL     1      34.747 -22.414 -17.944  0.00  0.00    +0.002 C 
ATOM      3  C   UNL     1      34.869 -23.175 -16.770  0.00  0.00    +0.020 C 
ATOM      4  C   UNL     1      35.892 -21.777 -18.479  0.00  0.00    +0.003 C 
ATOM      5  C   UNL     1      37.229 -22.681 -16.658  0.00  0.00    +0.020 C 
ATOM      6  C   UNL     1      37.126 -21.920 -17.824  0.00  0.00    +0.001 C 
ATOM      7  C   UNL     1      35.769 -21.016 -19.652  0.00  0.00    +0.037 C 
ATOM      8  C   UNL     1      33.512 -22.271 -18.600  0.00  0.00    +0.003 C 
ATOM      9  C   UNL     1      34.535 -20.885 -20.290  0.00  0.00    +0.139 C 
ATOM     10  C   UNL     1      33.409 -21.511 -19.765  0.00  0.00    +0.037 C 
ENDROOT
BRANCH   1  11
ATOM     11  S   UNL     1      36.236 -24.270 -14.656  0.00  0.00    +0.061 S 
ATOM     12  O   UNL     1      35.656 -23.504 -13.570  0.00  0.00    -0.153 OA
ATOM     13  O   UNL     1      35.730 -25.593 -14.968  0.00  0.00    -0.153 OA
BRANCH  11  14
ATOM     14  N   UNL     1      37.921 -24.359 -14.447  0.00  0.00    -0.170 NA
ATOM     15  H   UNL     1      38.154 -23.745 -13.667  0.00  0.00    +0.149 HD
BRANCH  14  16
ATOM     16  C   UNL     1      38.562 -25.664 -14.171  0.00  0.00    +0.174 C 
BRANCH  16  18
ATOM     17  O   UNL     1      40.906 -25.052 -13.956  0.00  0.00    -0.249 OA
ATOM     18  C   UNL     1      40.007 -25.575 -14.602  0.00  0.00    +0.330 C 
BRANCH  18  19
ATOM     19  O   UNL     1      40.220 -26.169 -15.805  0.00  0.00    -0.479 OA
ATOM     20  H   UNL     1      39.732 -26.932 -16.043  0.00  0.00    +0.295 HD
ENDBRANCH  18  19
ENDBRANCH  16  18
BRANCH  16  21
ATOM     21  C   UNL     1      38.357 -26.062 -12.705  0.00  0.00    +0.040 C 
BRANCH  21  22
ATOM     22  C   UNL     1      38.162 -24.915 -11.709  0.00  0.00    +0.111 C 
BRANCH  22  24
ATOM     23  O   UNL     1      36.626 -24.340  -9.936  0.00  0.00    -0.250 OA
ATOM     24  C   UNL     1      36.856 -24.974 -10.957  0.00  0.00    +0.314 C 
BRANCH  24  25
ATOM     25  O   UNL     1      35.962 -25.822 -11.524  0.00  0.00    -0.480 OA
ATOM     26  H   UNL     1      36.259 -26.500 -12.099  0.00  0.00    +0.295 HD
ENDBRANCH  24  25
ENDBRANCH  22  24
ENDBRANCH  21  22
ENDBRANCH  16  21
ENDBRANCH  14  16
ENDBRANCH  11  14
ENDBRANCH   1  11
BRANCH   9  27
ATOM     27  O   UNL     1      34.432 -20.142 -21.426  0.00  0.00    -0.471 OA
BRANCH  27  28
ATOM     28  C   UNL     1      35.598 -19.434 -21.847  0.00  0.00    +0.232 C 
BRANCH  28  29
ATOM     29  C   UNL     1      35.229 -18.008 -22.132  0.00  0.00    +0.021 C 
ATOM     30  C   UNL     1      34.927 -17.143 -21.081  0.00  0.00    -0.000 C 
ATOM     31  C   UNL     1      35.187 -17.549 -23.448  0.00  0.00    -0.000 C 
ATOM     32  C   UNL     1      34.584 -15.818 -21.346  0.00  0.00    +0.010 C 
ATOM     33  C   UNL     1      34.844 -16.224 -23.713  0.00  0.00    +0.010 C 
ATOM     34  C   UNL     1      34.542 -15.358 -22.662  0.00  0.00    +0.068 C 
BRANCH  34  36
ATOM     35  N   UNL     1      33.906 -12.895 -23.153  0.00  0.00    -0.191 NA
ATOM     36  C   UNL     1      34.191 -13.999 -22.933  0.00  0.00    +0.100 C 
ENDBRANCH  34  36
ENDBRANCH  28  29
ENDBRANCH  27  28
ENDBRANCH   9  27
TORSDOF 13
ENDMDL
MODEL 2
REMARK VINA RESULT:     -11.6      1.929      3.427
REMARK  Name = 24755471
REMARK  13 active torsions:
REMARK  status: ('A' for Active; 'I' for Inactive)
REMARK    1  A    between atoms: C_1  and  S_11
REMARK    2  A    between atoms: C_9  and  O_27
REMARK    3  A    between atoms: S_11  and  N_14
REMARK    4  A    between atoms: N_14  and  C_16
REMARK    5  A    between atoms: C_16  and  C_18
REMARK    6  A    between atoms: C_16  and  C_21
REMARK    7  A    between atoms: C_18  and  O_19
REMARK    8  A    between atoms: C_21  and  C_22
REMARK    9  A    between atoms: C_22  and  C_24
REMARK   10  A    between atoms: C_24  and  O_25
REMARK   11  A    between atoms: O_27  and  C_28
REMARK   12  A    between atoms: C_28  and  C_29
REMARK   13  A    between atoms: C_34  and  C_36
REMARK                            x       y       z     vdW  Elec       q    Type
REMARK                         _______ _______ _______ _____ _____    ______ ____
ROOT
ATOM      1  C   UNL     1      33.340 -23.936 -15.215  0.00  0.00    +0.122 C 
ATOM      2  C   UNL     1      34.664 -22.910 -16.980  0.00  0.00    +0.002 C 
ATOM      3  C   UNL     1      34.577 -23.547 -15.732  0.00  0.00    +0.020 C 
ATOM      4  C   UNL     1      33.480 -22.664 -17.716  0.00  0.00    +0.003 C 
ATOM      5  C   UNL     1      32.176 -23.694 -15.938  0.00  0.00    +0.020 C 
ATOM      6  C   UNL     1      32.244 -23.062 -17.180  0.00  0.00    +0.001 C 
ATOM      7  C   UNL     1      33.567 -22.027 -18.964  0.00  0.00    +0.037 C 
ATOM      8  C   UNL     1      35.900 -22.511 -17.515  0.00  0.00    +0.003 C 
ATOM      9  C   UNL     1      34.804 -21.639 -19.480  0.00  0.00    +0.139 C 
ATOM     10  C   UNL     1      35.968 -21.880 -18.757  0.00  0.00    +0.037 C 
ENDROOT
BRANCH   1  11
ATOM     11  S   UNL     1      33.253 -24.737 -13.641  0.00  0.00    +0.061 S 
ATOM     12  O   UNL     1      33.033 -23.718 -12.634  0.00  0.00    -0.153 OA
ATOM     13  O   UNL     1      32.323 -25.840 -13.780  0.00  0.00    -0.153 OA
BRANCH  11  14
ATOM     14  N   UNL     1      34.827 -25.360 -13.479  0.00  0.00    -0.170 NA
ATOM     15  H   UNL     1      35.214 -25.429 -14.419  0.00  0.00    +0.149 HD
BRANCH  14  16
ATOM     16  C   UNL     1      35.824 -24.641 -12.656  0.00  0.00    +0.174 C 
BRANCH  16  18
ATOM     17  O   UNL     1      36.626 -26.250 -11.018  0.00  0.00    -0.249 OA
ATOM     18  C   UNL     1      35.889 -25.314 -11.306  0.00  0.00    +0.330 C 
BRANCH  18  19
ATOM     19  O   UNL     1      35.039 -24.750 -10.411  0.00  0.00    -0.479 OA
ATOM     20  H   UNL     1      35.377 -24.297  -9.664  0.00  0.00    +0.295 HD
ENDBRANCH  18  19
ENDBRANCH  16  18
BRANCH  16  21
ATOM     21  C   UNL     1      37.166 -24.558 -13.394  0.00  0.00    +0.040 C 
BRANCH  21  22
ATOM     22  C   UNL     1      37.362 -25.529 -14.562  0.00  0.00    +0.111 C 
BRANCH  22  24
ATOM     23  O   UNL     1      39.184 -27.107 -14.406  0.00  0.00    -0.250 OA
ATOM     24  C   UNL     1      38.015 -26.830 -14.170  0.00  0.00    +0.314 C 
BRANCH  24  25
ATOM     25  O   UNL     1      37.162 -27.677 -13.539  0.00  0.00    -0.480 OA
ATOM     26  H   UNL     1      36.321 -27.855 -13.911  0.00  0.00    +0.295 HD
ENDBRANCH  24  25
ENDBRANCH  22  24
ENDBRANCH  21  22
ENDBRANCH  16  21
ENDBRANCH  14  16
ENDBRANCH  11  14
ENDBRANCH   1  11
BRANCH   9  27
ATOM     27  O   UNL     1      34.871 -21.024 -20.693  0.00  0.00    -0.471 OA
BRANCH  27  28
ATOM     28  C   UNL     1      35.854 -20.002 -20.849  0.00  0.00    +0.232 C 
BRANCH  28  29
ATOM     29  C   UNL     1      35.444 -19.094 -21.971  0.00  0.00    +0.021 C 
ATOM     30  C   UNL     1      35.590 -17.713 -21.840  0.00  0.00    -0.000 C 
ATOM     31  C   UNL     1      34.914 -19.631 -23.144  0.00  0.00    -0.000 C 
ATOM     32  C   UNL     1      35.209 -16.870 -22.883  0.00  0.00    +0.010 C 
ATOM     33  C   UNL     1      34.533 -18.788 -24.187  0.00  0.00    +0.010 C 
ATOM     34  C   UNL     1      34.679 -17.407 -24.056  0.00  0.00    +0.068 C 
BRANCH  34  36
ATOM     35  N   UNL     1      33.972 -15.840 -25.993  0.00  0.00    -0.191 NA
ATOM     36  C   UNL     1      34.289 -16.542 -25.125  0.00  0.00    +0.100 C 
ENDBRANCH  34  36
ENDBRANCH  28  29
ENDBRANCH  27  28
ENDBRANCH   9  27
TORSDOF 13
ENDMDL
MODEL 3
REMARK VINA RESULT:     -11.6      1.583      2.732
REMARK  Name = 24755471
REMARK  13 active torsions:
REMARK  status: ('A' for Active; 'I' for Inactive)
REMARK    1  A    between atoms: C_1  and  S_11
REMARK    2  A    between atoms: C_9  and  O_27
REMARK    3  A    between atoms: S_11  and  N_14
REMARK    4  A    between atoms: N_14  and  C_16
REMARK    5  A    between atoms: C_16  and  C_18
REMARK    6  A    between atoms: C_16  and  C_21
REMARK    7  A    between atoms: C_18  and  O_19
REMARK    8  A    between atoms: C_21  and  C_22
REMARK    9  A    between atoms: C_22  and  C_24
REMARK   10  A    between atoms: C_24  and  O_25
REMARK   11  A    between atoms: O_27  and  C_28
REMARK   12  A    between atoms: C_28  and  C_29
REMARK   13  A    between atoms: C_34  and  C_36
REMARK                            x       y       z     vdW  Elec       q    Type
REMARK                         _______ _______ _______ _____ _____    ______ ____
ROOT
ATOM      1  C   UNL     1      34.386 -23.378 -16.378  0.00  0.00    +0.122 C 
ATOM      2  C   UNL     1      35.181 -22.110 -18.296  0.00  0.00    +0.002 C 
ATOM      3  C   UNL     1      35.434 -22.819 -17.111  0.00  0.00    +0.020 C 
ATOM      4  C   UNL     1      33.847 -21.966 -18.746  0.00  0.00    +0.003 C 
ATOM      5  C   UNL     1      33.074 -23.236 -16.820  0.00  0.00    +0.020 C 
ATOM      6  C   UNL     1      32.805 -22.535 -17.996  0.00  0.00    +0.001 C 
ATOM      7  C   UNL     1      33.595 -21.257 -19.931  0.00  0.00    +0.037 C 
ATOM      8  C   UNL     1      36.224 -21.540 -19.046  0.00  0.00    +0.003 C 
ATOM      9  C   UNL     1      34.643 -20.698 -20.663  0.00  0.00    +0.139 C 
ATOM     10  C   UNL     1      35.955 -20.839 -20.222  0.00  0.00    +0.037 C 
ENDROOT
BRANCH   1  11
ATOM     11  S   UNL     1      34.726 -24.267 -14.888  0.00  0.00    +0.061 S 
ATOM     12  O   UNL     1      35.324 -23.343 -13.944  0.00  0.00    -0.153 OA
ATOM     13  O   UNL     1      33.516 -24.985 -14.540  0.00  0.00    -0.153 OA
BRANCH  11  14
ATOM     14  N   UNL     1      35.899 -25.383 -15.407  0.00  0.00    -0.170 NA
ATOM     15  H   UNL     1      36.410 -24.939 -16.169  0.00  0.00    +0.149 HD
BRANCH  14  16
ATOM     16  C   UNL     1      36.909 -25.889 -14.452  0.00  0.00    +0.174 C 
BRANCH  16  18
ATOM     17  O   UNL     1      37.495 -28.181 -13.887  0.00  0.00    -0.249 OA
ATOM     18  C   UNL     1      37.096 -27.366 -14.709  0.00  0.00    +0.330 C 
BRANCH  18  19
ATOM     19  O   UNL     1      36.750 -27.713 -15.975  0.00  0.00    -0.479 OA
ATOM     20  H   UNL     1      36.046 -27.271 -16.406  0.00  0.00    +0.295 HD
ENDBRANCH  18  19
ENDBRANCH  16  18
BRANCH  16  21
ATOM     21  C   UNL     1      38.194 -25.058 -14.541  0.00  0.00    +0.040 C 
BRANCH  21  22
ATOM     22  C   UNL     1      39.344 -25.481 -13.622  0.00  0.00    +0.111 C 
BRANCH  22  24
ATOM     23  O   UNL     1      41.232 -26.984 -13.727  0.00  0.00    -0.250 OA
ATOM     24  C   UNL     1      40.413 -26.288 -14.314  0.00  0.00    +0.314 C 
BRANCH  24  25
ATOM     25  O   UNL     1      40.385 -26.150 -15.664  0.00  0.00    -0.480 OA
ATOM     26  H   UNL     1      40.972 -25.554 -16.085  0.00  0.00    +0.295 HD
ENDBRANCH  24  25
ENDBRANCH  22  24
ENDBRANCH  21  22
ENDBRANCH  16  21
ENDBRANCH  14  16
ENDBRANCH  11  14
ENDBRANCH   1  11
BRANCH   9  27
ATOM     27  O   UNL     1      34.381 -20.015 -21.812  0.00  0.00    -0.471 OA
BRANCH  27  28
ATOM     28  C   UNL     1      35.474 -19.332 -22.424  0.00  0.00    +0.232 C 
BRANCH  28  29
ATOM     29  C   UNL     1      35.116 -17.885 -22.590  0.00  0.00    +0.021 C 
ATOM     30  C   UNL     1      34.951 -17.074 -21.467  0.00  0.00    -0.000 C 
ATOM     31  C   UNL     1      34.946 -17.350 -23.867  0.00  0.00    -0.000 C 
ATOM     32  C   UNL     1      34.618 -15.729 -21.621  0.00  0.00    +0.010 C 
ATOM     33  C   UNL     1      34.613 -16.005 -24.021  0.00  0.00    +0.010 C 
ATOM     34  C   UNL     1      34.448 -15.194 -22.898  0.00  0.00    +0.068 C 
BRANCH  34  36
ATOM     35  N   UNL     1      33.830 -12.695 -23.184  0.00  0.00    -0.191 NA
ATOM     36  C   UNL     1      34.107 -13.815 -23.055  0.00  0.00    +0.100 C 
ENDBRANCH  34  36
ENDBRANCH  28  29
ENDBRANCH  27  28
ENDBRANCH   9  27
TORSDOF 13
ENDMDL
MODEL 4
REMARK VINA RESULT:     -11.4      1.276      2.852
REMARK  Name = 24755471
REMARK  13 active torsions:
REMARK  status: ('A' for Active; 'I' for Inactive)
REMARK    1  A    between atoms: C_1  and  S_11
REMARK    2  A    between atoms: C_9  and  O_27
REMARK    3  A    between atoms: S_11  and  N_14
REMARK    4  A    between atoms: N_14  and  C_16
REMARK    5  A    between atoms: C_16  and  C_18
REMARK    6  A    between atoms: C_16  and  C_21
REMARK    7  A    between atoms: C_18  and  O_19
REMARK    8  A    between atoms: C_21  and  C_22
REMARK    9  A    between atoms: C_22  and  C_24
REMARK   10  A    between atoms: C_24  and  O_25
REMARK   11  A    between atoms: O_27  and  C_28
REMARK   12  A    between atoms: C_28  and  C_29
REMARK   13  A    between atoms: C_34  and  C_36
REMARK                            x       y       z     vdW  Elec       q    Type
REMARK                         _______ _______ _______ _____ _____    ______ ____
ROOT
ATOM      1  C   UNL     1      35.978 -23.574 -15.337  0.00  0.00    +0.122 C 
ATOM      2  C   UNL     1      34.901 -22.758 -17.361  0.00  0.00    +0.002 C 
ATOM      3  C   UNL     1      34.842 -23.448 -16.139  0.00  0.00    +0.020 C 
ATOM      4  C   UNL     1      36.128 -22.187 -17.775  0.00  0.00    +0.003 C 
ATOM      5  C   UNL     1      37.184 -23.013 -15.745  0.00  0.00    +0.020 C 
ATOM      6  C   UNL     1      37.261 -22.324 -16.956  0.00  0.00    +0.001 C 
ATOM      7  C   UNL     1      36.186 -21.497 -18.997  0.00  0.00    +0.037 C 
ATOM      8  C   UNL     1      33.768 -22.621 -18.180  0.00  0.00    +0.003 C 
ATOM      9  C   UNL     1      35.051 -21.371 -19.798  0.00  0.00    +0.139 C 
ATOM     10  C   UNL     1      33.844 -21.932 -19.391  0.00  0.00    +0.037 C 
ENDROOT
BRANCH   1  11
ATOM     11  S   UNL     1      35.882 -24.447 -13.803  0.00  0.00    +0.061 S 
ATOM     12  O   UNL     1      34.630 -24.091 -13.164  0.00  0.00    -0.153 OA
ATOM     13  O   UNL     1      36.189 -25.835 -14.087  0.00  0.00    -0.153 OA
BRANCH  11  14
ATOM     14  N   UNL     1      37.174 -23.765 -12.932  0.00  0.00    -0.170 NA
ATOM     15  H   UNL     1      36.825 -22.901 -12.517  0.00  0.00    +0.149 HD
BRANCH  14  16
ATOM     16  C   UNL     1      37.818 -24.533 -11.845  0.00  0.00    +0.174 C 
BRANCH  16  18
ATOM     17  O   UNL     1      36.380 -24.335  -9.893  0.00  0.00    -0.249 OA
ATOM     18  C   UNL     1      36.742 -24.967 -10.878  0.00  0.00    +0.330 C 
BRANCH  18  19
ATOM     19  O   UNL     1      36.185 -26.154 -11.230  0.00  0.00    -0.479 OA
ATOM     20  H   UNL     1      36.730 -26.901 -11.382  0.00  0.00    +0.295 HD
ENDBRANCH  18  19
ENDBRANCH  16  18
BRANCH  16  21
ATOM     21  C   UNL     1      38.656 -25.679 -12.423  0.00  0.00    +0.040 C 
BRANCH  21  22
ATOM     22  C   UNL     1      39.613 -25.316 -13.562  0.00  0.00    +0.111 C 
BRANCH  22  24
ATOM     23  O   UNL     1      40.711 -26.473 -15.376  0.00  0.00    -0.250 OA
ATOM     24  C   UNL     1      39.767 -26.399 -14.600  0.00  0.00    +0.314 C 
BRANCH  24  25
ATOM     25  O   UNL     1      38.734 -27.280 -14.596  0.00  0.00    -0.480 OA
ATOM     26  H   UNL     1      37.956 -27.090 -15.083  0.00  0.00    +0.295 HD
ENDBRANCH  24  25
ENDBRANCH  22  24
ENDBRANCH  21  22
ENDBRANCH  16  21
ENDBRANCH  14  16
ENDBRANCH  11  14
ENDBRANCH   1  11
BRANCH   9  27
ATOM     27  O   UNL     1      35.123 -20.697 -20.979  0.00  0.00    -0.471 OA
BRANCH  27  28
ATOM     28  C   UNL     1      35.887 -19.493 -20.993  0.00  0.00    +0.232 C 
BRANCH  28  29
ATOM     29  C   UNL     1      35.428 -18.635 -22.135  0.00  0.00    +0.021 C 
ATOM     30  C   UNL     1      35.512 -17.245 -22.041  0.00  0.00    -0.000 C 
ATOM     31  C   UNL     1      34.915 -19.226 -23.290  0.00  0.00    -0.000 C 
ATOM     32  C   UNL     1      35.084 -16.448 -23.102  0.00  0.00    +0.010 C 
ATOM     33  C   UNL     1      34.488 -18.428 -24.351  0.00  0.00    +0.010 C 
ATOM     34  C   UNL     1      34.572 -17.039 -24.257  0.00  0.00    +0.068 C 
BRANCH  34  36
ATOM     35  N   UNL     1      33.780 -15.557 -26.228  0.00  0.00    -0.191 NA
ATOM     36  C   UNL     1      34.135 -16.221 -25.344  0.00  0.00    +0.100 C 
ENDBRANCH  34  36
ENDBRANCH  28  29
ENDBRANCH  27  28
ENDBRANCH   9  27
TORSDOF 13
ENDMDL
MODEL 5
REMARK VINA RESULT:     -11.1      1.418      1.888
REMARK  Name = 24755471
REMARK  13 active torsions:
REMARK  status: ('A' for Active; 'I' for Inactive)
REMARK    1  A    between atoms: C_1  and  S_11
REMARK    2  A    between atoms: C_9  and  O_27
REMARK    3  A    between atoms: S_11  and  N_14
REMARK    4  A    between atoms: N_14  and  C_16
REMARK    5  A    between atoms: C_16  and  C_18
REMARK    6  A    between atoms: C_16  and  C_21
REMARK    7  A    between atoms: C_18  and  O_19
REMARK    8  A    between atoms: C_21  and  C_22
REMARK    9  A    between atoms: C_22  and  C_24
REMARK   10  A    between atoms: C_24  and  O_25
REMARK   11  A    between atoms: O_27  and  C_28
REMARK   12  A    between atoms: C_28  and  C_29
REMARK   13  A    between atoms: C_34  and  C_36
REMARK                            x       y       z     vdW  Elec       q    Type
REMARK                         _______ _______ _______ _____ _____    ______ ____
ROOT
ATOM      1  C   UNL     1      35.405 -22.921 -16.866  0.00  0.00    +0.122 C 
ATOM      2  C   UNL     1      34.460 -21.792 -18.802  0.00  0.00    +0.002 C 
ATOM      3  C   UNL     1      34.301 -22.562 -17.640  0.00  0.00    +0.020 C 
ATOM      4  C   UNL     1      35.758 -21.378 -19.187  0.00  0.00    +0.003 C 
ATOM      5  C   UNL     1      36.682 -22.515 -17.244  0.00  0.00    +0.020 C 
ATOM      6  C   UNL     1      36.859 -21.749 -18.396  0.00  0.00    +0.001 C 
ATOM      7  C   UNL     1      35.918 -20.608 -20.350  0.00  0.00    +0.037 C 
ATOM      8  C   UNL     1      33.359 -21.422 -19.593  0.00  0.00    +0.003 C 
ATOM      9  C   UNL     1      34.813 -20.249 -21.123  0.00  0.00    +0.139 C 
ATOM     10  C   UNL     1      33.537 -20.655 -20.746  0.00  0.00    +0.037 C 
ENDROOT
BRANCH   1  11
ATOM     11  S   UNL     1      35.183 -23.892 -15.405  0.00  0.00    +0.061 S 
ATOM     12  O   UNL     1      35.158 -22.990 -14.270  0.00  0.00    -0.153 OA
ATOM     13  O   UNL     1      34.065 -24.781 -15.656  0.00  0.00    -0.153 OA
BRANCH  11  14
ATOM     14  N   UNL     1      36.616 -24.805 -15.370  0.00  0.00    -0.170 NA
ATOM     15  H   UNL     1      37.389 -24.141 -15.409  0.00  0.00    +0.149 HD
BRANCH  14  16
ATOM     16  C   UNL     1      36.887 -25.711 -14.233  0.00  0.00    +0.174 C 
BRANCH  16  18
ATOM     17  O   UNL     1      36.660 -27.686 -15.635  0.00  0.00    -0.249 OA
ATOM     18  C   UNL     1      37.286 -27.056 -14.791  0.00  0.00    +0.330 C 
BRANCH  18  19
ATOM     19  O   UNL     1      38.454 -27.503 -14.262  0.00  0.00    -0.479 OA
ATOM     20  H   UNL     1      38.998 -28.087 -14.753  0.00  0.00    +0.295 HD
ENDBRANCH  18  19
ENDBRANCH  16  18
BRANCH  16  21
ATOM     21  C   UNL     1      37.913 -25.084 -13.282  0.00  0.00    +0.040 C 
BRANCH  21  22
ATOM     22  C   UNL     1      37.544 -25.066 -11.796  0.00  0.00    +0.111 C 
BRANCH  22  24
ATOM     23  O   UNL     1      37.536 -22.889 -10.750  0.00  0.00    -0.250 OA
ATOM     24  C   UNL     1      36.923 -23.771 -11.337  0.00  0.00    +0.314 C 
BRANCH  24  25
ATOM     25  O   UNL     1      35.600 -23.690 -11.629  0.00  0.00    -0.480 OA
ATOM     26  H   UNL     1      35.008 -23.302 -11.015  0.00  0.00    +0.295 HD
ENDBRANCH  24  25
ENDBRANCH  22  24
ENDBRANCH  21  22
ENDBRANCH  16  21
ENDBRANCH  14  16
ENDBRANCH  11  14
ENDBRANCH   1  11
BRANCH   9  27
ATOM     27  O   UNL     1      34.984 -19.500 -22.247  0.00  0.00    -0.471 OA
BRANCH  27  28
ATOM     28  C   UNL     1      35.909 -18.417 -22.170  0.00  0.00    +0.232 C 
BRANCH  28  29
ATOM     29  C   UNL     1      35.149 -17.125 -22.120  0.00  0.00    +0.021 C 
ATOM     30  C   UNL     1      34.916 -16.407 -23.293  0.00  0.00    -0.000 C 
ATOM     31  C   UNL     1      34.675 -16.641 -20.900  0.00  0.00    -0.000 C 
ATOM     32  C   UNL     1      34.210 -15.206 -23.246  0.00  0.00    +0.010 C 
ATOM     33  C   UNL     1      33.969 -15.440 -20.853  0.00  0.00    +0.010 C 
ATOM     34  C   UNL     1      33.736 -14.722 -22.026  0.00  0.00    +0.068 C 
BRANCH  34  36
ATOM     35  N   UNL     1      32.423 -12.491 -21.940  0.00  0.00    -0.191 NA
ATOM     36  C   UNL     1      33.012 -13.491 -21.979  0.00  0.00    +0.100 C 
ENDBRANCH  34  36
ENDBRANCH  28  29
ENDBRANCH  27  28
ENDBRANCH   9  27
TORSDOF 13
ENDMDL
MODEL 6
REMARK VINA RESULT:     -11.0      2.765      4.655
REMARK  Name = 24755471
REMARK  13 active torsions:
REMARK  status: ('A' for Active; 'I' for Inactive)
REMARK    1  A    between atoms: C_1  and  S_11
REMARK    2  A    between atoms: C_9  and  O_27
REMARK    3  A    between atoms: S_11  and  N_14
REMARK    4  A    between atoms: N_14  and  C_16
REMARK    5  A    between atoms: C_16  and  C_18
REMARK    6  A    between atoms: C_16  and  C_21
REMARK    7  A    between atoms: C_18  and  O_19
REMARK    8  A    between atoms: C_21  and  C_22
REMARK    9  A    between atoms: C_22  and  C_24
REMARK   10  A    between atoms: C_24  and  O_25
REMARK   11  A    between atoms: O_27  and  C_28
REMARK   12  A    between atoms: C_28  and  C_29
REMARK   13  A    between atoms: C_34  and  C_36
REMARK                            x       y       z     vdW  Elec       q    Type
REMARK                         _______ _______ _______ _____ _____    ______ ____
ROOT
ATOM      1  C   UNL     1      35.488 -23.168 -16.233  0.00  0.00    +0.122 C 
ATOM      2  C   UNL     1      34.459 -22.185 -18.207  0.00  0.00    +0.002 C 
ATOM      3  C   UNL     1      34.355 -22.902 -17.004  0.00  0.00    +0.020 C 
ATOM      4  C   UNL     1      35.729 -21.729 -18.634  0.00  0.00    +0.003 C 
ATOM      5  C   UNL     1      36.737 -22.720 -16.654  0.00  0.00    +0.020 C 
ATOM      6  C   UNL     1      36.858 -22.006 -17.846  0.00  0.00    +0.001 C 
ATOM      7  C   UNL     1      35.832 -21.012 -19.837  0.00  0.00    +0.037 C 
ATOM      8  C   UNL     1      33.329 -21.909 -18.995  0.00  0.00    +0.003 C 
ATOM      9  C   UNL     1      34.699 -20.747 -20.607  0.00  0.00    +0.139 C 
ATOM     10  C   UNL     1      33.450 -21.195 -20.187  0.00  0.00    +0.037 C 
ENDROOT
BRANCH   1  11
ATOM     11  S   UNL     1      35.336 -24.072 -14.722  0.00  0.00    +0.061 S 
ATOM     12  O   UNL     1      35.162 -25.472 -15.056  0.00  0.00    -0.153 OA
ATOM     13  O   UNL     1      36.432 -23.656 -13.869  0.00  0.00    -0.153 OA
BRANCH  11  14
ATOM     14  N   UNL     1      33.882 -23.457 -14.091  0.00  0.00    -0.170 NA
ATOM     15  H   UNL     1      33.789 -22.504 -14.443  0.00  0.00    +0.149 HD
BRANCH  14  16
ATOM     16  C   UNL     1      32.604 -24.145 -14.376  0.00  0.00    +0.174 C 
BRANCH  16  18
ATOM     17  O   UNL     1      31.109 -25.232 -12.795  0.00  0.00    -0.249 OA
ATOM     18  C   UNL     1      32.248 -24.986 -13.174  0.00  0.00    +0.330 C 
BRANCH  18  19
ATOM     19  O   UNL     1      33.349 -25.475 -12.546  0.00  0.00    -0.479 OA
ATOM     20  H   UNL     1      33.808 -24.945 -11.926  0.00  0.00    +0.295 HD
ENDBRANCH  18  19
ENDBRANCH  16  18
BRANCH  16  21
ATOM     21  C   UNL     1      31.530 -23.131 -14.787  0.00  0.00    +0.040 C 
BRANCH  21  22
ATOM     22  C   UNL     1      30.829 -23.386 -16.125  0.00  0.00    +0.111 C 
BRANCH  22  24
ATOM     23  O   UNL     1      28.766 -24.602 -15.808  0.00  0.00    -0.250 OA
ATOM     24  C   UNL     1      29.333 -23.536 -16.011  0.00  0.00    +0.314 C 
BRANCH  24  25
ATOM     25  O   UNL     1      28.673 -22.361 -16.175  0.00  0.00    -0.480 OA
ATOM     26  H   UNL     1      28.903 -21.790 -16.881  0.00  0.00    +0.295 HD
ENDBRANCH  24  25
ENDBRANCH  22  24
ENDBRANCH  21  22
ENDBRANCH  16  21
ENDBRANCH  14  16
ENDBRANCH  11  14
ENDBRANCH   1  11
BRANCH   9  27
ATOM     27  O   UNL     1      34.816 -20.049 -21.770  0.00  0.00    -0.471 OA
BRANCH  27  28
ATOM     28  C   UNL     1      35.905 -19.133 -21.871  0.00  0.00    +0.232 C 
BRANCH  28  29
ATOM     29  C   UNL     1      35.365 -17.754 -22.109  0.00  0.00    +0.021 C 
ATOM     30  C   UNL     1      35.276 -17.255 -23.409  0.00  0.00    -0.000 C 
ATOM     31  C   UNL     1      34.954 -16.969 -21.031  0.00  0.00    -0.000 C 
ATOM     32  C   UNL     1      34.775 -15.973 -23.630  0.00  0.00    +0.010 C 
ATOM     33  C   UNL     1      34.454 -15.687 -21.253  0.00  0.00    +0.010 C 
ATOM     34  C   UNL     1      34.364 -15.188 -22.552  0.00  0.00    +0.068 C 
BRANCH  34  36
ATOM     35  N   UNL     1      33.433 -12.807 -22.964  0.00  0.00    -0.191 NA
ATOM     36  C   UNL     1      33.850 -13.874 -22.780  0.00  0.00    +0.100 C 
ENDBRANCH  34  36
ENDBRANCH  28  29
ENDBRANCH  27  28
ENDBRANCH   9  27
TORSDOF 13
ENDMDL
MODEL 7
REMARK VINA RESULT:     -11.0      1.061      2.939
REMARK  Name = 24755471
REMARK  13 active torsions:
REMARK  status: ('A' for Active; 'I' for Inactive)
REMARK    1  A    between atoms: C_1  and  S_11
REMARK    2  A    between atoms: C_9  and  O_27
REMARK    3  A    between atoms: S_11  and  N_14
REMARK    4  A    between atoms: N_14  and  C_16
REMARK    5  A    between atoms: C_16  and  C_18
REMARK    6  A    between atoms: C_16  and  C_21
REMARK    7  A    between atoms: C_18  and  O_19
REMARK    8  A    between atoms: C_21  and  C_22
REMARK    9  A    between atoms: C_22  and  C_24
REMARK   10  A    between atoms: C_24  and  O_25
REMARK   11  A    between atoms: O_27  and  C_28
REMARK   12  A    between atoms: C_28  and  C_29
REMARK   13  A    between atoms: C_34  and  C_36
REMARK                            x       y       z     vdW  Elec       q    Type
REMARK                         _______ _______ _______ _____ _____    ______ ____
ROOT
ATOM      1  C   UNL     1      34.440 -23.813 -16.050  0.00  0.00    +0.122 C 
ATOM      2  C   UNL     1      35.251 -22.430 -17.880  0.00  0.00    +0.002 C 
ATOM      3  C   UNL     1      35.493 -23.201 -16.732  0.00  0.00    +0.020 C 
ATOM      4  C   UNL     1      33.923 -22.278 -18.345  0.00  0.00    +0.003 C 
ATOM      5  C   UNL     1      33.134 -23.663 -16.507  0.00  0.00    +0.020 C 
ATOM      6  C   UNL     1      32.875 -22.901 -17.647  0.00  0.00    +0.001 C 
ATOM      7  C   UNL     1      33.681 -21.507 -19.494  0.00  0.00    +0.037 C 
ATOM      8  C   UNL     1      36.299 -21.806 -18.578  0.00  0.00    +0.003 C 
ATOM      9  C   UNL     1      34.734 -20.895 -20.175  0.00  0.00    +0.139 C 
ATOM     10  C   UNL     1      36.040 -21.044 -19.718  0.00  0.00    +0.037 C 
ENDROOT
BRANCH   1  11
ATOM     11  S   UNL     1      34.766 -24.779 -14.606  0.00  0.00    +0.061 S 
ATOM     12  O   UNL     1      33.521 -24.927 -13.878  0.00  0.00    -0.153 OA
ATOM     13  O   UNL     1      35.502 -25.950 -15.039  0.00  0.00    -0.153 OA
BRANCH  11  14
ATOM     14  N   UNL     1      35.812 -23.761 -13.734  0.00  0.00    -0.170 NA
ATOM     15  H   UNL     1      35.229 -23.061 -13.278  0.00  0.00    +0.149 HD
BRANCH  14  16
ATOM     16  C   UNL     1      36.695 -24.329 -12.692  0.00  0.00    +0.174 C 
BRANCH  16  18
ATOM     17  O   UNL     1      34.886 -24.156 -11.076  0.00  0.00    -0.249 OA
ATOM     18  C   UNL     1      35.828 -24.784 -11.542  0.00  0.00    +0.330 C 
BRANCH  18  19
ATOM     19  O   UNL     1      36.196 -26.005 -11.075  0.00  0.00    -0.479 OA
ATOM     20  H   UNL     1      36.094 -26.210 -10.167  0.00  0.00    +0.295 HD
ENDBRANCH  18  19
ENDBRANCH  16  18
BRANCH  16  21
ATOM     21  C   UNL     1      37.591 -25.422 -13.287  0.00  0.00    +0.040 C 
BRANCH  21  22
ATOM     22  C   UNL     1      39.075 -25.365 -12.911  0.00  0.00    +0.111 C 
BRANCH  22  24
ATOM     23  O   UNL     1      41.001 -25.277 -14.366  0.00  0.00    -0.250 OA
ATOM     24  C   UNL     1      39.997 -25.870 -13.992  0.00  0.00    +0.314 C 
BRANCH  24  25
ATOM     25  O   UNL     1      39.588 -27.050 -14.523  0.00  0.00    -0.480 OA
ATOM     26  H   UNL     1      40.173 -27.782 -14.543  0.00  0.00    +0.295 HD
ENDBRANCH  24  25
ENDBRANCH  22  24
ENDBRANCH  21  22
ENDBRANCH  16  21
ENDBRANCH  14  16
ENDBRANCH  11  14
ENDBRANCH   1  11
BRANCH   9  27
ATOM     27  O   UNL     1      34.484 -20.153 -21.288  0.00  0.00    -0.471 OA
BRANCH  27  28
ATOM     28  C   UNL     1      35.596 -19.497 -21.895  0.00  0.00    +0.232 C 
BRANCH  28  29
ATOM     29  C   UNL     1      35.230 -18.069 -22.175  0.00  0.00    +0.021 C 
ATOM     30  C   UNL     1      34.957 -17.200 -21.119  0.00  0.00    -0.000 C 
ATOM     31  C   UNL     1      35.160 -17.612 -23.491  0.00  0.00    -0.000 C 
ATOM     32  C   UNL     1      34.616 -15.873 -21.379  0.00  0.00    +0.010 C 
ATOM     33  C   UNL     1      34.819 -16.286 -23.751  0.00  0.00    +0.010 C 
ATOM     34  C   UNL     1      34.546 -15.416 -22.695  0.00  0.00    +0.068 C 
BRANCH  34  36
ATOM     35  N   UNL     1      33.914 -12.951 -23.177  0.00  0.00    -0.191 NA
ATOM     36  C   UNL     1      34.198 -14.055 -22.962  0.00  0.00    +0.100 C 
ENDBRANCH  34  36
ENDBRANCH  28  29
ENDBRANCH  27  28
ENDBRANCH   9  27
TORSDOF 13
ENDMDL
MODEL 8
REMARK VINA RESULT:     -10.7      3.335     10.993
REMARK  Name = 24755471
REMARK  13 active torsions:
REMARK  status: ('A' for Active; 'I' for Inactive)
REMARK    1  A    between atoms: C_1  and  S_11
REMARK    2  A    between atoms: C_9  and  O_27
REMARK    3  A    between atoms: S_11  and  N_14
REMARK    4  A    between atoms: N_14  and  C_16
REMARK    5  A    between atoms: C_16  and  C_18
REMARK    6  A    between atoms: C_16  and  C_21
REMARK    7  A    between atoms: C_18  and  O_19
REMARK    8  A    between atoms: C_21  and  C_22
REMARK    9  A    between atoms: C_22  and  C_24
REMARK   10  A    between atoms: C_24  and  O_25
REMARK   11  A    between atoms: O_27  and  C_28
REMARK   12  A    between atoms: C_28  and  C_29
REMARK   13  A    between atoms: C_34  and  C_36
REMARK                            x       y       z     vdW  Elec       q    Type
REMARK                         _______ _______ _______ _____ _____    ______ ____
ROOT
ATOM      1  C   UNL     1      35.292 -20.082 -20.828  0.00  0.00    +0.122 C 
ATOM      2  C   UNL     1      34.075 -21.493 -19.263  0.00  0.00    +0.002 C 
ATOM      3  C   UNL     1      34.086 -20.569 -20.320  0.00  0.00    +0.020 C 
ATOM      4  C   UNL     1      35.303 -21.931 -18.713  0.00  0.00    +0.003 C 
ATOM      5  C   UNL     1      36.499 -20.512 -20.286  0.00  0.00    +0.020 C 
ATOM      6  C   UNL     1      36.507 -21.430 -19.236  0.00  0.00    +0.001 C 
ATOM      7  C   UNL     1      35.291 -22.855 -17.656  0.00  0.00    +0.037 C 
ATOM      8  C   UNL     1      32.870 -21.993 -18.739  0.00  0.00    +0.003 C 
ATOM      9  C   UNL     1      34.086 -23.342 -17.149  0.00  0.00    +0.139 C 
ATOM     10  C   UNL     1      32.878 -22.911 -17.689  0.00  0.00    +0.037 C 
ENDROOT
BRANCH   1  11
ATOM     11  S   UNL     1      35.284 -18.918 -22.158  0.00  0.00    +0.061 S 
ATOM     12  O   UNL     1      36.655 -18.525 -22.416  0.00  0.00    -0.153 OA
ATOM     13  O   UNL     1      34.478 -19.494 -23.217  0.00  0.00    -0.153 OA
BRANCH  11  14
ATOM     14  N   UNL     1      34.440 -17.610 -21.474  0.00  0.00    -0.170 NA
ATOM     15  H   UNL     1      34.386 -17.788 -20.471  0.00  0.00    +0.149 HD
BRANCH  14  16
ATOM     16  C   UNL     1      34.956 -16.233 -21.638  0.00  0.00    +0.174 C 
BRANCH  16  18
ATOM     17  O   UNL     1      33.679 -15.340 -23.506  0.00  0.00    -0.249 OA
ATOM     18  C   UNL     1      34.722 -15.814 -23.069  0.00  0.00    +0.330 C 
BRANCH  18  19
ATOM     19  O   UNL     1      35.821 -16.001 -23.844  0.00  0.00    -0.479 OA
ATOM     20  H   UNL     1      35.957 -16.821 -24.275  0.00  0.00    +0.295 HD
ENDBRANCH  18  19
ENDBRANCH  16  18
BRANCH  16  21
ATOM     21  C   UNL     1      34.335 -15.302 -20.590  0.00  0.00    +0.040 C 
BRANCH  21  22
ATOM     22  C   UNL     1      32.805 -15.261 -20.535  0.00  0.00    +0.111 C 
BRANCH  22  24
ATOM     23  O   UNL     1      32.012 -13.113 -19.767  0.00  0.00    -0.250 OA
ATOM     24  C   UNL     1      32.225 -13.879 -20.698  0.00  0.00    +0.314 C 
BRANCH  24  25
ATOM     25  O   UNL     1      31.945 -13.575 -21.990  0.00  0.00    -0.480 OA
ATOM     26  H   UNL     1      31.693 -12.703 -22.222  0.00  0.00    +0.295 HD
ENDBRANCH  24  25
ENDBRANCH  22  24
ENDBRANCH  21  22
ENDBRANCH  16  21
ENDBRANCH  14  16
ENDBRANCH  11  14
ENDBRANCH   1  11
BRANCH   9  27
ATOM     27  O   UNL     1      34.092 -24.239 -16.125  0.00  0.00    -0.471 OA
BRANCH  27  28
ATOM     28  C   UNL     1      34.689 -23.821 -14.899  0.00  0.00    +0.232 C 
BRANCH  28  29
ATOM     29  C   UNL     1      36.027 -24.484 -14.754  0.00  0.00    +0.021 C 
ATOM     30  C   UNL     1      37.187 -23.711 -14.716  0.00  0.00    -0.000 C 
ATOM     31  C   UNL     1      36.111 -25.873 -14.661  0.00  0.00    -0.000 C 
ATOM     32  C   UNL     1      38.431 -24.327 -14.582  0.00  0.00    +0.010 C 
ATOM     33  C   UNL     1      37.355 -26.489 -14.527  0.00  0.00    +0.010 C 
ATOM     34  C   UNL     1      38.515 -25.716 -14.488  0.00  0.00    +0.068 C 
BRANCH  34  36
ATOM     35  N   UNL     1      40.826 -26.859 -14.238  0.00  0.00    -0.191 NA
ATOM     36  C   UNL     1      39.791 -26.347 -14.350  0.00  0.00    +0.100 C 
ENDBRANCH  34  36
ENDBRANCH  28  29
ENDBRANCH  27  28
ENDBRANCH   9  27
TORSDOF 13
ENDMDL
MODEL 9
REMARK VINA RESULT:     -10.6      6.806     13.732
REMARK  Name = 24755471
REMARK  13 active torsions:
REMARK  status: ('A' for Active; 'I' for Inactive)
REMARK    1  A    between atoms: C_1  and  S_11
REMARK    2  A    between atoms: C_9  and  O_27
REMARK    3  A    between atoms: S_11  and  N_14
REMARK    4  A    between atoms: N_14  and  C_16
REMARK    5  A    between atoms: C_16  and  C_18
REMARK    6  A    between atoms: C_16  and  C_21
REMARK    7  A    between atoms: C_18  and  O_19
REMARK    8  A    between atoms: C_21  and  C_22
REMARK    9  A    between atoms: C_22  and  C_24
REMARK   10  A    between atoms: C_24  and  O_25
REMARK   11  A    between atoms: O_27  and  C_28
REMARK   12  A    between atoms: C_28  and  C_29
REMARK   13  A    between atoms: C_34  and  C_36
REMARK                            x       y       z     vdW  Elec       q    Type
REMARK                         _______ _______ _______ _____ _____    ______ ____
ROOT
ATOM      1  C   UNL     1      31.996 -12.936 -20.906  0.00  0.00    +0.122 C 
ATOM      2  C   UNL     1      33.554 -14.477 -21.964  0.00  0.00    +0.002 C 
ATOM      3  C   UNL     1      32.778 -13.307 -22.001  0.00  0.00    +0.020 C 
ATOM      4  C   UNL     1      33.537 -15.283 -20.801  0.00  0.00    +0.003 C 
ATOM      5  C   UNL     1      31.979 -13.729 -19.763  0.00  0.00    +0.020 C 
ATOM      6  C   UNL     1      32.743 -14.895 -19.709  0.00  0.00    +0.001 C 
ATOM      7  C   UNL     1      34.312 -16.453 -20.765  0.00  0.00    +0.037 C 
ATOM      8  C   UNL     1      34.347 -14.865 -23.058  0.00  0.00    +0.003 C 
ATOM      9  C   UNL     1      35.094 -16.823 -21.860  0.00  0.00    +0.139 C 
ATOM     10  C   UNL     1      35.111 -16.031 -23.004  0.00  0.00    +0.037 C 
ENDROOT
BRANCH   1  11
ATOM     11  S   UNL     1      31.027 -11.459 -20.973  0.00  0.00    +0.061 S 
ATOM     12  O   UNL     1      30.152 -11.551 -22.125  0.00  0.00    -0.153 OA
ATOM     13  O   UNL     1      30.472 -11.259 -19.648  0.00  0.00    -0.153 OA
BRANCH  11  14
ATOM     14  N   UNL     1      32.214 -10.275 -21.257  0.00  0.00    -0.170 NA
ATOM     15  H   UNL     1      32.480 -10.356 -22.238  0.00  0.00    +0.149 HD
BRANCH  14  16
ATOM     16  C   UNL     1      31.907  -8.849 -21.012  0.00  0.00    +0.174 C 
BRANCH  16  18
ATOM     17  O   UNL     1      33.145  -7.302 -19.601  0.00  0.00    -0.249 OA
ATOM     18  C   UNL     1      32.662  -8.414 -19.779  0.00  0.00    +0.330 C 
BRANCH  18  19
ATOM     19  O   UNL     1      32.736  -9.401 -18.849  0.00  0.00    -0.479 OA
ATOM     20  H   UNL     1      32.039 -10.021 -18.767  0.00  0.00    +0.295 HD
ENDBRANCH  18  19
ENDBRANCH  16  18
BRANCH  16  21
ATOM     21  C   UNL     1      32.198  -8.016 -22.266  0.00  0.00    +0.040 C 
BRANCH  21  22
ATOM     22  C   UNL     1      31.114  -7.020 -22.689  0.00  0.00    +0.111 C 
BRANCH  22  24
ATOM     23  O   UNL     1      29.871  -5.550 -21.231  0.00  0.00    -0.250 OA
ATOM     24  C   UNL     1      30.941  -5.866 -21.734  0.00  0.00    +0.314 C 
BRANCH  24  25
ATOM     25  O   UNL     1      32.099  -5.197 -21.502  0.00  0.00    -0.480 OA
ATOM     26  H   UNL     1      32.274  -4.847 -20.651  0.00  0.00    +0.295 HD
ENDBRANCH  24  25
ENDBRANCH  22  24
ENDBRANCH  21  22
ENDBRANCH  16  21
ENDBRANCH  14  16
ENDBRANCH  11  14
ENDBRANCH   1  11
BRANCH   9  27
ATOM     27  O   UNL     1      35.842 -17.959 -21.808  0.00  0.00    -0.471 OA
BRANCH  27  28
ATOM     28  C   UNL     1      35.263 -19.143 -22.354  0.00  0.00    +0.232 C 
BRANCH  28  29
ATOM     29  C   UNL     1      34.889 -20.068 -21.234  0.00  0.00    +0.021 C 
ATOM     30  C   UNL     1      33.550 -20.220 -20.874  0.00  0.00    -0.000 C 
ATOM     31  C   UNL     1      35.879 -20.774 -20.552  0.00  0.00    -0.000 C 
ATOM     32  C   UNL     1      33.202 -21.079 -19.832  0.00  0.00    +0.010 C 
ATOM     33  C   UNL     1      35.531 -21.634 -19.511  0.00  0.00    +0.010 C 
ATOM     34  C   UNL     1      34.193 -21.786 -19.150  0.00  0.00    +0.068 C 
BRANCH  34  36
ATOM     35  N   UNL     1      33.546 -23.383 -17.217  0.00  0.00    -0.191 NA
ATOM     36  C   UNL     1      33.835 -22.667 -18.083  0.00  0.00    +0.100 C 
ENDBRANCH  34  36
ENDBRANCH  28  29
ENDBRANCH  27  28
ENDBRANCH   9  27
TORSDOF 13
ENDMDL
