MODEL 1
REMARK VINA RESULT:     -11.9      0.000      0.000
REMARK  Name = 9823454
REMARK  7 active torsions:
REMARK  status: ('A' for Active; 'I' for Inactive)
REMARK    1  A    between atoms: C_1  and  C_4
REMARK    2  A    between atoms: C_1  and  N_8
REMARK    3  A    between atoms: C_1  and  C_23
REMARK    4  A    between atoms: N_3  and  O_6
REMARK    5  A    between atoms: N_8  and  S_10
REMARK    6  A    between atoms: S_10  and  C_13
REMARK    7  A    between atoms: C_23  and  C_24
REMARK                            x       y       z     vdW  Elec       q    Type
REMARK                         _______ _______ _______ _____ _____    ______ ____
ROOT
ATOM      1  C   UNL     1      34.777 -24.522 -13.028  0.00  0.00    +0.158 C 
ENDROOT
BRANCH   1   4
ATOM      2  O   UNL     1      35.320 -24.850 -10.696  0.00  0.00    -0.272 OA
ATOM      3  N   UNL     1      36.424 -26.111 -12.284  0.00  0.00    -0.196 N 
ATOM      4  C   UNL     1      35.519 -25.165 -11.868  0.00  0.00    +0.260 C 
ATOM      5  H   UNL     1      36.550 -26.331 -13.236  0.00  0.00    +0.182 HD
BRANCH   3   6
ATOM      6  O   UNL     1      37.157 -26.744 -11.271  0.00  0.00    -0.295 OA
ATOM      7  H   UNL     1      36.573 -26.935 -10.521  0.00  0.00    +0.241 HD
ENDBRANCH   3   6
ENDBRANCH   1   4
BRANCH   1   8
ATOM      8  N   UNL     1      35.717 -23.529 -13.601  0.00  0.00    -0.172 NA
ATOM      9  H   UNL     1      35.163 -22.714 -13.862  0.00  0.00    +0.149 HD
BRANCH   8  10
ATOM     10  S   UNL     1      36.658 -23.939 -14.954  0.00  0.00    +0.061 S 
ATOM     11  O   UNL     1      36.687 -25.382 -15.103  0.00  0.00    -0.153 OA
ATOM     12  O   UNL     1      37.896 -23.184 -14.907  0.00  0.00    -0.153 OA
BRANCH  10  13
ATOM     13  C   UNL     1      35.699 -23.273 -16.280  0.00  0.00    +0.122 C 
ATOM     14  C   UNL     1      36.329 -22.532 -17.265  0.00  0.00    +0.020 C 
ATOM     15  C   UNL     1      35.581 -21.996 -18.326  0.00  0.00    +0.001 C 
ATOM     16  C   UNL     1      34.338 -23.505 -16.310  0.00  0.00    +0.020 C 
ATOM     17  C   UNL     1      34.185 -22.224 -18.372  0.00  0.00    +0.000 C 
ATOM     18  C   UNL     1      33.579 -22.980 -17.357  0.00  0.00    +0.001 C 
ATOM     19  C   UNL     1      36.187 -21.239 -19.341  0.00  0.00    +0.000 C 
ATOM     20  C   UNL     1      33.436 -21.686 -19.432  0.00  0.00    +0.000 C 
ATOM     21  C   UNL     1      35.428 -20.713 -20.387  0.00  0.00    +0.000 C 
ATOM     22  C   UNL     1      34.056 -20.937 -20.432  0.00  0.00    +0.000 C 
ENDBRANCH  10  13
ENDBRANCH   8  10
ENDBRANCH   1   8
BRANCH   1  23
ATOM     23  C   UNL     1      33.500 -23.813 -12.547  0.00  0.00    +0.053 C 
BRANCH  23  24
ATOM     24  C   UNL     1      32.290 -24.169 -13.343  0.00  0.00    -0.020 C 
ATOM     25  C   UNL     1      31.674 -23.208 -14.145  0.00  0.00    -0.004 C 
ATOM     26  C   UNL     1      30.534 -23.528 -14.900  0.00  0.00    -0.000 C 
ATOM     27  C   UNL     1      31.776 -25.461 -13.286  0.00  0.00    -0.004 C 
ATOM     28  C   UNL     1      30.012 -24.843 -14.842  0.00  0.00    -0.000 C 
ATOM     29  C   UNL     1      30.645 -25.797 -14.030  0.00  0.00    -0.000 C 
ATOM     30  C   UNL     1      29.901 -22.573 -15.712  0.00  0.00    -0.000 C 
ATOM     31  C   UNL     1      28.872 -25.163 -15.597  0.00  0.00    -0.000 C 
ATOM     32  C   UNL     1      28.769 -22.909 -16.456  0.00  0.00    -0.000 C 
ATOM     33  C   UNL     1      28.256 -24.200 -16.398  0.00  0.00    -0.000 C 
ENDBRANCH  23  24
ENDBRANCH   1  23
TORSDOF 7
ENDMDL
MODEL 2
REMARK VINA RESULT:     -11.8      1.561      6.008
REMARK  Name = 9823454
REMARK  7 active torsions:
REMARK  status: ('A' for Active; 'I' for Inactive)
REMARK    1  A    between atoms: C_1  and  C_4
REMARK    2  A    between atoms: C_1  and  N_8
REMARK    3  A    between atoms: C_1  and  C_23
REMARK    4  A    between atoms: N_3  and  O_6
REMARK    5  A    between atoms: N_8  and  S_10
REMARK    6  A    between atoms: S_10  and  C_13
REMARK    7  A    between atoms: C_23  and  C_24
REMARK                            x       y       z     vdW  Elec       q    Type
REMARK                         _______ _______ _______ _____ _____    ______ ____
ROOT
ATOM      1  C   UNL     1      36.010 -22.816 -15.184  0.00  0.00    +0.158 C 
ENDROOT
BRANCH   1   4
ATOM      2  O   UNL     1      37.653 -23.065 -13.429  0.00  0.00    -0.272 OA
ATOM      3  N   UNL     1      37.985 -24.167 -15.431  0.00  0.00    -0.196 N 
ATOM      4  C   UNL     1      37.293 -23.352 -14.570  0.00  0.00    +0.260 C 
ATOM      5  H   UNL     1      37.658 -24.370 -16.337  0.00  0.00    +0.182 HD
BRANCH   3   6
ATOM      6  O   UNL     1      39.188 -24.694 -14.940  0.00  0.00    -0.295 OA
ATOM      7  H   UNL     1      39.032 -25.587 -14.594  0.00  0.00    +0.241 HD
ENDBRANCH   3   6
ENDBRANCH   1   4
BRANCH   1   8
ATOM      8  N   UNL     1      34.976 -22.952 -14.129  0.00  0.00    -0.172 NA
ATOM      9  H   UNL     1      35.298 -22.408 -13.329  0.00  0.00    +0.149 HD
BRANCH   8  10
ATOM     10  S   UNL     1      34.563 -24.491 -13.543  0.00  0.00    +0.061 S 
ATOM     11  O   UNL     1      34.686 -24.507 -12.098  0.00  0.00    -0.153 OA
ATOM     12  O   UNL     1      35.241 -25.493 -14.344  0.00  0.00    -0.153 OA
BRANCH  10  13
ATOM     13  C   UNL     1      32.846 -24.585 -13.945  0.00  0.00    +0.122 C 
ATOM     14  C   UNL     1      32.320 -23.706 -14.876  0.00  0.00    +0.020 C 
ATOM     15  C   UNL     1      30.956 -23.767 -15.206  0.00  0.00    +0.001 C 
ATOM     16  C   UNL     1      32.059 -25.535 -13.323  0.00  0.00    +0.020 C 
ATOM     17  C   UNL     1      30.135 -24.734 -14.578  0.00  0.00    +0.000 C 
ATOM     18  C   UNL     1      30.701 -25.610 -13.639  0.00  0.00    +0.001 C 
ATOM     19  C   UNL     1      30.389 -22.891 -16.146  0.00  0.00    +0.000 C 
ATOM     20  C   UNL     1      28.771 -24.795 -14.907  0.00  0.00    +0.000 C 
ATOM     21  C   UNL     1      29.032 -22.966 -16.461  0.00  0.00    +0.000 C 
ATOM     22  C   UNL     1      28.225 -23.916 -15.844  0.00  0.00    +0.000 C 
ENDBRANCH  10  13
ENDBRANCH   8  10
ENDBRANCH   1   8
BRANCH   1  23
ATOM     23  C   UNL     1      35.601 -23.633 -16.421  0.00  0.00    +0.053 C 
BRANCH  23  24
ATOM     24  C   UNL     1      35.146 -22.789 -17.564  0.00  0.00    -0.020 C 
ATOM     25  C   UNL     1      36.071 -22.030 -18.283  0.00  0.00    -0.004 C 
ATOM     26  C   UNL     1      35.658 -21.231 -19.361  0.00  0.00    -0.000 C 
ATOM     27  C   UNL     1      33.800 -22.759 -17.912  0.00  0.00    -0.004 C 
ATOM     28  C   UNL     1      34.288 -21.200 -19.715  0.00  0.00    -0.000 C 
ATOM     29  C   UNL     1      33.372 -21.970 -18.981  0.00  0.00    -0.000 C 
ATOM     30  C   UNL     1      36.574 -20.461 -20.095  0.00  0.00    -0.000 C 
ATOM     31  C   UNL     1      33.875 -20.401 -20.793  0.00  0.00    -0.000 C 
ATOM     32  C   UNL     1      36.147 -19.672 -21.164  0.00  0.00    -0.000 C 
ATOM     33  C   UNL     1      34.800 -19.642 -21.511  0.00  0.00    -0.000 C 
ENDBRANCH  23  24
ENDBRANCH   1  23
TORSDOF 7
ENDMDL
MODEL 3
REMARK VINA RESULT:     -10.7      1.374      2.058
REMARK  Name = 9823454
REMARK  7 active torsions:
REMARK  status: ('A' for Active; 'I' for Inactive)
REMARK    1  A    between atoms: C_1  and  C_4
REMARK    2  A    between atoms: C_1  and  N_8
REMARK    3  A    between atoms: C_1  and  C_23
REMARK    4  A    between atoms: N_3  and  O_6
REMARK    5  A    between atoms: N_8  and  S_10
REMARK    6  A    between atoms: S_10  and  C_13
REMARK    7  A    between atoms: C_23  and  C_24
REMARK                            x       y       z     vdW  Elec       q    Type
REMARK                         _______ _______ _______ _____ _____    ______ ____
ROOT
ATOM      1  C   UNL     1      35.385 -25.648 -14.590  0.00  0.00    +0.158 C 
ENDROOT
BRANCH   1   4
ATOM      2  O   UNL     1      36.914 -25.984 -12.749  0.00  0.00    -0.272 OA
ATOM      3  N   UNL     1      37.519 -26.729 -14.849  0.00  0.00    -0.196 N 
ATOM      4  C   UNL     1      36.674 -26.131 -13.946  0.00  0.00    +0.260 C 
ATOM      5  H   UNL     1      37.285 -26.825 -15.801  0.00  0.00    +0.182 HD
BRANCH   3   6
ATOM      6  O   UNL     1      38.736 -27.193 -14.332  0.00  0.00    -0.295 OA
ATOM      7  H   UNL     1      38.689 -27.215 -13.364  0.00  0.00    +0.241 HD
ENDBRANCH   3   6
ENDBRANCH   1   4
BRANCH   1   8
ATOM      8  N   UNL     1      35.802 -24.869 -15.780  0.00  0.00    -0.172 NA
ATOM      9  H   UNL     1      36.415 -25.471 -16.328  0.00  0.00    +0.149 HD
BRANCH   8  10
ATOM     10  S   UNL     1      36.614 -23.391 -15.581  0.00  0.00    +0.061 S 
ATOM     11  O   UNL     1      38.047 -23.623 -15.587  0.00  0.00    -0.153 OA
ATOM     12  O   UNL     1      35.998 -22.663 -14.487  0.00  0.00    -0.153 OA
BRANCH  10  13
ATOM     13  C   UNL     1      36.193 -22.539 -17.070  0.00  0.00    +0.122 C 
ATOM     14  C   UNL     1      34.866 -22.467 -17.455  0.00  0.00    +0.020 C 
ATOM     15  C   UNL     1      34.514 -21.794 -18.637  0.00  0.00    +0.001 C 
ATOM     16  C   UNL     1      37.196 -21.960 -17.822  0.00  0.00    +0.020 C 
ATOM     17  C   UNL     1      35.530 -21.195 -19.420  0.00  0.00    +0.000 C 
ATOM     18  C   UNL     1      36.865 -21.286 -18.999  0.00  0.00    +0.001 C 
ATOM     19  C   UNL     1      33.178 -21.702 -19.058  0.00  0.00    +0.000 C 
ATOM     20  C   UNL     1      35.179 -20.522 -20.602  0.00  0.00    +0.000 C 
ATOM     21  C   UNL     1      32.847 -21.030 -20.235  0.00  0.00    +0.000 C 
ATOM     22  C   UNL     1      33.845 -20.441 -21.005  0.00  0.00    +0.000 C 
ENDBRANCH  10  13
ENDBRANCH   8  10
ENDBRANCH   1   8
BRANCH   1  23
ATOM     23  C   UNL     1      34.587 -24.749 -13.632  0.00  0.00    +0.053 C 
BRANCH  23  24
ATOM     24  C   UNL     1      33.122 -24.738 -13.912  0.00  0.00    -0.020 C 
ATOM     25  C   UNL     1      32.604 -23.887 -14.889  0.00  0.00    -0.004 C 
ATOM     26  C   UNL     1      31.227 -23.865 -15.165  0.00  0.00    -0.000 C 
ATOM     27  C   UNL     1      32.272 -25.577 -13.198  0.00  0.00    -0.004 C 
ATOM     28  C   UNL     1      30.363 -24.719 -14.438  0.00  0.00    -0.000 C 
ATOM     29  C   UNL     1      30.901 -25.569 -13.459  0.00  0.00    -0.000 C 
ATOM     30  C   UNL     1      30.690 -23.015 -16.144  0.00  0.00    -0.000 C 
ATOM     31  C   UNL     1      28.986 -24.698 -14.714  0.00  0.00    -0.000 C 
ATOM     32  C   UNL     1      29.319 -23.007 -16.405  0.00  0.00    -0.000 C 
ATOM     33  C   UNL     1      28.469 -23.846 -15.691  0.00  0.00    -0.000 C 
ENDBRANCH  23  24
ENDBRANCH   1  23
TORSDOF 7
ENDMDL
MODEL 4
REMARK VINA RESULT:     -10.6      8.726     11.958
REMARK  Name = 9823454
REMARK  7 active torsions:
REMARK  status: ('A' for Active; 'I' for Inactive)
REMARK    1  A    between atoms: C_1  and  C_4
REMARK    2  A    between atoms: C_1  and  N_8
REMARK    3  A    between atoms: C_1  and  C_23
REMARK    4  A    between atoms: N_3  and  O_6
REMARK    5  A    between atoms: N_8  and  S_10
REMARK    6  A    between atoms: S_10  and  C_13
REMARK    7  A    between atoms: C_23  and  C_24
REMARK                            x       y       z     vdW  Elec       q    Type
REMARK                         _______ _______ _______ _____ _____    ______ ____
ROOT
ATOM      1  C   UNL     1      34.273 -16.579 -23.150  0.00  0.00    +0.158 C 
ENDROOT
BRANCH   1   4
ATOM      2  O   UNL     1      34.569 -17.487 -25.370  0.00  0.00    -0.272 OA
ATOM      3  N   UNL     1      33.830 -15.311 -25.147  0.00  0.00    -0.196 N 
ATOM      4  C   UNL     1      34.244 -16.530 -24.669  0.00  0.00    +0.260 C 
ATOM      5  H   UNL     1      33.579 -14.572 -24.547  0.00  0.00    +0.182 HD
BRANCH   3   6
ATOM      6  O   UNL     1      33.787 -15.184 -26.542  0.00  0.00    -0.295 OA
ATOM      7  H   UNL     1      34.212 -14.352 -26.804  0.00  0.00    +0.241 HD
ENDBRANCH   3   6
ENDBRANCH   1   4
BRANCH   1   8
ATOM      8  N   UNL     1      33.877 -15.222 -22.701  0.00  0.00    -0.172 NA
ATOM      9  H   UNL     1      34.667 -14.606 -22.892  0.00  0.00    +0.149 HD
BRANCH   8  10
ATOM     10  S   UNL     1      33.433 -14.964 -21.082  0.00  0.00    +0.061 S 
ATOM     11  O   UNL     1      34.621 -14.959 -20.250  0.00  0.00    -0.153 OA
ATOM     12  O   UNL     1      32.319 -15.836 -20.759  0.00  0.00    -0.153 OA
BRANCH  10  13
ATOM     13  C   UNL     1      32.799 -13.316 -21.137  0.00  0.00    +0.122 C 
ATOM     14  C   UNL     1      33.188 -12.475 -22.165  0.00  0.00    +0.020 C 
ATOM     15  C   UNL     1      32.694 -11.162 -22.222  0.00  0.00    +0.001 C 
ATOM     16  C   UNL     1      31.926 -12.897 -20.152  0.00  0.00    +0.020 C 
ATOM     17  C   UNL     1      31.798 -10.716 -21.221  0.00  0.00    +0.000 C 
ATOM     18  C   UNL     1      31.424 -11.595 -20.194  0.00  0.00    +0.001 C 
ATOM     19  C   UNL     1      33.069 -10.282 -23.251  0.00  0.00    +0.000 C 
ATOM     20  C   UNL     1      31.304  -9.402 -21.278  0.00  0.00    +0.000 C 
ATOM     21  C   UNL     1      32.567  -8.980 -23.291  0.00  0.00    +0.000 C 
ATOM     22  C   UNL     1      31.687  -8.542 -22.308  0.00  0.00    +0.000 C 
ENDBRANCH  10  13
ENDBRANCH   8  10
ENDBRANCH   1   8
BRANCH   1  23
ATOM     23  C   UNL     1      35.681 -16.910 -22.630  0.00  0.00    +0.053 C 
BRANCH  23  24
ATOM     24  C   UNL     1      35.731 -18.151 -21.805  0.00  0.00    -0.020 C 
ATOM     25  C   UNL     1      34.547 -18.783 -21.422  0.00  0.00    -0.004 C 
ATOM     26  C   UNL     1      34.577 -19.952 -20.645  0.00  0.00    -0.000 C 
ATOM     27  C   UNL     1      36.958 -18.680 -21.417  0.00  0.00    -0.004 C 
ATOM     28  C   UNL     1      35.826 -20.489 -20.251  0.00  0.00    -0.000 C 
ATOM     29  C   UNL     1      37.007 -19.841 -20.646  0.00  0.00    -0.000 C 
ATOM     30  C   UNL     1      33.395 -20.600 -20.250  0.00  0.00    -0.000 C 
ATOM     31  C   UNL     1      35.856 -21.659 -19.474  0.00  0.00    -0.000 C 
ATOM     32  C   UNL     1      33.444 -21.762 -19.478  0.00  0.00    -0.000 C 
ATOM     33  C   UNL     1      34.672 -22.289 -19.091  0.00  0.00    -0.000 C 
ENDBRANCH  23  24
ENDBRANCH   1  23
TORSDOF 7
ENDMDL
MODEL 5
REMARK VINA RESULT:     -10.4      1.716      5.674
REMARK  Name = 9823454
REMARK  7 active torsions:
REMARK  status: ('A' for Active; 'I' for Inactive)
REMARK    1  A    between atoms: C_1  and  C_4
REMARK    2  A    between atoms: C_1  and  N_8
REMARK    3  A    between atoms: C_1  and  C_23
REMARK    4  A    between atoms: N_3  and  O_6
REMARK    5  A    between atoms: N_8  and  S_10
REMARK    6  A    between atoms: S_10  and  C_13
REMARK    7  A    between atoms: C_23  and  C_24
REMARK                            x       y       z     vdW  Elec       q    Type
REMARK                         _______ _______ _______ _____ _____    ______ ____
ROOT
ATOM      1  C   UNL     1      36.787 -25.373 -13.725  0.00  0.00    +0.158 C 
ENDROOT
BRANCH   1   4
ATOM      2  O   UNL     1      38.475 -26.616 -14.929  0.00  0.00    -0.272 OA
ATOM      3  N   UNL     1      36.253 -26.962 -15.452  0.00  0.00    -0.196 N 
ATOM      4  C   UNL     1      37.281 -26.377 -14.754  0.00  0.00    +0.260 C 
ATOM      5  H   UNL     1      35.309 -26.740 -15.278  0.00  0.00    +0.182 HD
BRANCH   3   6
ATOM      6  O   UNL     1      36.629 -27.894 -16.429  0.00  0.00    -0.295 OA
ATOM      7  H   UNL     1      36.655 -27.461 -17.296  0.00  0.00    +0.241 HD
ENDBRANCH   3   6
ENDBRANCH   1   4
BRANCH   1   8
ATOM      8  N   UNL     1      35.314 -25.322 -13.893  0.00  0.00    -0.172 NA
ATOM      9  H   UNL     1      35.133 -24.795 -14.747  0.00  0.00    +0.149 HD
BRANCH   8  10
ATOM     10  S   UNL     1      34.348 -24.637 -12.677  0.00  0.00    +0.061 S 
ATOM     11  O   UNL     1      34.696 -23.237 -12.515  0.00  0.00    -0.153 OA
ATOM     12  O   UNL     1      34.342 -25.524 -11.530  0.00  0.00    -0.153 OA
BRANCH  10  13
ATOM     13  C   UNL     1      32.738 -24.718 -13.401  0.00  0.00    +0.122 C 
ATOM     14  C   UNL     1      32.377 -23.778 -14.351  0.00  0.00    +0.020 C 
ATOM     15  C   UNL     1      31.100 -23.828 -14.936  0.00  0.00    +0.001 C 
ATOM     16  C   UNL     1      31.871 -25.717 -13.005  0.00  0.00    +0.020 C 
ATOM     17  C   UNL     1      30.199 -24.846 -14.542  0.00  0.00    +0.000 C 
ATOM     18  C   UNL     1      30.599 -25.782 -13.576  0.00  0.00    +0.001 C 
ATOM     19  C   UNL     1      30.700 -22.891 -15.902  0.00  0.00    +0.000 C 
ATOM     20  C   UNL     1      28.922 -24.895 -15.126  0.00  0.00    +0.000 C 
ATOM     21  C   UNL     1      29.428 -22.956 -16.472  0.00  0.00    +0.000 C 
ATOM     22  C   UNL     1      28.542 -23.956 -16.085  0.00  0.00    +0.000 C 
ENDBRANCH  10  13
ENDBRANCH   8  10
ENDBRANCH   1   8
BRANCH   1  23
ATOM     23  C   UNL     1      37.388 -23.980 -13.974  0.00  0.00    +0.053 C 
BRANCH  23  24
ATOM     24  C   UNL     1      36.981 -23.385 -15.281  0.00  0.00    -0.020 C 
ATOM     25  C   UNL     1      35.664 -23.505 -15.723  0.00  0.00    -0.004 C 
ATOM     26  C   UNL     1      35.266 -22.950 -16.950  0.00  0.00    -0.000 C 
ATOM     27  C   UNL     1      37.918 -22.709 -16.057  0.00  0.00    -0.004 C 
ATOM     28  C   UNL     1      36.219 -22.263 -17.740  0.00  0.00    -0.000 C 
ATOM     29  C   UNL     1      37.540 -22.152 -17.279  0.00  0.00    -0.000 C 
ATOM     30  C   UNL     1      33.944 -23.063 -17.410  0.00  0.00    -0.000 C 
ATOM     31  C   UNL     1      35.821 -21.708 -18.967  0.00  0.00    -0.000 C 
ATOM     32  C   UNL     1      33.566 -22.504 -18.633  0.00  0.00    -0.000 C 
ATOM     33  C   UNL     1      34.503 -21.830 -19.409  0.00  0.00    -0.000 C 
ENDBRANCH  23  24
ENDBRANCH   1  23
TORSDOF 7
ENDMDL
MODEL 6
REMARK VINA RESULT:     -10.3      2.147      3.303
REMARK  Name = 9823454
REMARK  7 active torsions:
REMARK  status: ('A' for Active; 'I' for Inactive)
REMARK    1  A    between atoms: C_1  and  C_4
REMARK    2  A    between atoms: C_1  and  N_8
REMARK    3  A    between atoms: C_1  and  C_23
REMARK    4  A    between atoms: N_3  and  O_6
REMARK    5  A    between atoms: N_8  and  S_10
REMARK    6  A    between atoms: S_10  and  C_13
REMARK    7  A    between atoms: C_23  and  C_24
REMARK                            x       y       z     vdW  Elec       q    Type
REMARK                         _______ _______ _______ _____ _____    ______ ____
ROOT
ATOM      1  C   UNL     1      34.621 -24.419 -15.613  0.00  0.00    +0.158 C 
ENDROOT
BRANCH   1   4
ATOM      2  O   UNL     1      36.612 -23.156 -15.082  0.00  0.00    -0.272 OA
ATOM      3  N   UNL     1      36.745 -25.460 -15.170  0.00  0.00    -0.196 N 
ATOM      4  C   UNL     1      36.090 -24.256 -15.257  0.00  0.00    +0.260 C 
ATOM      5  H   UNL     1      36.285 -26.318 -15.319  0.00  0.00    +0.182 HD
BRANCH   3   6
ATOM      6  O   UNL     1      38.109 -25.392 -14.854  0.00  0.00    -0.295 OA
ATOM      7  H   UNL     1      38.530 -24.700 -15.387  0.00  0.00    +0.241 HD
ENDBRANCH   3   6
ENDBRANCH   1   4
BRANCH   1   8
ATOM      8  N   UNL     1      34.233 -23.158 -16.289  0.00  0.00    -0.172 NA
ATOM      9  H   UNL     1      33.555 -22.695 -15.683  0.00  0.00    +0.149 HD
BRANCH   8  10
ATOM     10  S   UNL     1      33.550 -23.207 -17.843  0.00  0.00    +0.061 S 
ATOM     11  O   UNL     1      32.233 -22.598 -17.811  0.00  0.00    -0.153 OA
ATOM     12  O   UNL     1      33.723 -24.541 -18.387  0.00  0.00    -0.153 OA
BRANCH  10  13
ATOM     13  C   UNL     1      34.624 -22.136 -18.748  0.00  0.00    +0.122 C 
ATOM     14  C   UNL     1      34.096 -21.333 -19.744  0.00  0.00    +0.020 C 
ATOM     15  C   UNL     1      34.937 -20.476 -20.473  0.00  0.00    +0.001 C 
ATOM     16  C   UNL     1      35.972 -22.120 -18.445  0.00  0.00    +0.020 C 
ATOM     17  C   UNL     1      36.321 -20.447 -20.176  0.00  0.00    +0.000 C 
ATOM     18  C   UNL     1      36.822 -21.275 -19.159  0.00  0.00    +0.001 C 
ATOM     19  C   UNL     1      34.436 -19.648 -21.491  0.00  0.00    +0.000 C 
ATOM     20  C   UNL     1      37.162 -19.592 -20.906  0.00  0.00    +0.000 C 
ATOM     21  C   UNL     1      35.286 -18.804 -22.205  0.00  0.00    +0.000 C 
ATOM     22  C   UNL     1      36.646 -18.775 -21.913  0.00  0.00    +0.000 C 
ENDBRANCH  10  13
ENDBRANCH   8  10
ENDBRANCH   1   8
BRANCH   1  23
ATOM     23  C   UNL     1      33.763 -24.622 -14.354  0.00  0.00    +0.053 C 
BRANCH  23  24
ATOM     24  C   UNL     1      32.378 -24.082 -14.489  0.00  0.00    -0.020 C 
ATOM     25  C   UNL     1      31.467 -24.703 -15.344  0.00  0.00    -0.004 C 
ATOM     26  C   UNL     1      30.160 -24.207 -15.481  0.00  0.00    -0.000 C 
ATOM     27  C   UNL     1      31.996 -22.960 -13.760  0.00  0.00    -0.004 C 
ATOM     28  C   UNL     1      29.772 -23.065 -14.740  0.00  0.00    -0.000 C 
ATOM     29  C   UNL     1      30.702 -22.454 -13.884  0.00  0.00    -0.000 C 
ATOM     30  C   UNL     1      29.232 -24.819 -16.338  0.00  0.00    -0.000 C 
ATOM     31  C   UNL     1      28.466 -22.569 -14.877  0.00  0.00    -0.000 C 
ATOM     32  C   UNL     1      27.937 -24.313 -16.462  0.00  0.00    -0.000 C 
ATOM     33  C   UNL     1      27.556 -23.190 -15.734  0.00  0.00    -0.000 C 
ENDBRANCH  23  24
ENDBRANCH   1  23
TORSDOF 7
ENDMDL
MODEL 7
REMARK VINA RESULT:     -10.2     13.602     17.047
REMARK  Name = 9823454
REMARK  7 active torsions:
REMARK  status: ('A' for Active; 'I' for Inactive)
REMARK    1  A    between atoms: C_1  and  C_4
REMARK    2  A    between atoms: C_1  and  N_8
REMARK    3  A    between atoms: C_1  and  C_23
REMARK    4  A    between atoms: N_3  and  O_6
REMARK    5  A    between atoms: N_8  and  S_10
REMARK    6  A    between atoms: S_10  and  C_13
REMARK    7  A    between atoms: C_23  and  C_24
REMARK                            x       y       z     vdW  Elec       q    Type
REMARK                         _______ _______ _______ _____ _____    ______ ____
ROOT
ATOM      1  C   UNL     1      31.604  -9.020 -21.693  0.00  0.00    +0.158 C 
ENDROOT
BRANCH   1   4
ATOM      2  O   UNL     1      33.838  -8.101 -21.761  0.00  0.00    -0.272 OA
ATOM      3  N   UNL     1      32.622  -7.929 -19.806  0.00  0.00    -0.196 N 
ATOM      4  C   UNL     1      32.812  -8.303 -21.113  0.00  0.00    +0.260 C 
ATOM      5  H   UNL     1      31.782  -8.112 -19.326  0.00  0.00    +0.182 HD
BRANCH   3   6
ATOM      6  O   UNL     1      33.698  -7.269 -19.196  0.00  0.00    -0.295 OA
ATOM      7  H   UNL     1      33.408  -6.398 -18.884  0.00  0.00    +0.241 HD
ENDBRANCH   3   6
ENDBRANCH   1   4
BRANCH   1   8
ATOM      8  N   UNL     1      31.975 -10.454 -21.738  0.00  0.00    -0.172 NA
ATOM      9  H   UNL     1      31.650 -10.816 -22.634  0.00  0.00    +0.149 HD
BRANCH   8  10
ATOM     10  S   UNL     1      31.400 -11.515 -20.543  0.00  0.00    +0.061 S 
ATOM     11  O   UNL     1      30.001 -11.809 -20.791  0.00  0.00    -0.153 OA
ATOM     12  O   UNL     1      31.824 -11.028 -19.244  0.00  0.00    -0.153 OA
BRANCH  10  13
ATOM     13  C   UNL     1      32.332 -12.978 -20.874  0.00  0.00    +0.122 C 
ATOM     14  C   UNL     1      32.839 -13.184 -22.146  0.00  0.00    +0.020 C 
ATOM     15  C   UNL     1      33.581 -14.343 -22.426  0.00  0.00    +0.001 C 
ATOM     16  C   UNL     1      32.539 -13.890 -19.858  0.00  0.00    +0.020 C 
ATOM     17  C   UNL     1      33.803 -15.288 -21.397  0.00  0.00    +0.000 C 
ATOM     18  C   UNL     1      33.275 -15.047 -20.118  0.00  0.00    +0.001 C 
ATOM     19  C   UNL     1      34.109 -14.584 -23.705  0.00  0.00    +0.000 C 
ATOM     20  C   UNL     1      34.545 -16.447 -21.677  0.00  0.00    +0.000 C 
ATOM     21  C   UNL     1      34.844 -15.741 -23.966  0.00  0.00    +0.000 C 
ATOM     22  C   UNL     1      35.062 -16.670 -22.954  0.00  0.00    +0.000 C 
ENDBRANCH  10  13
ENDBRANCH   8  10
ENDBRANCH   1   8
BRANCH   1  23
ATOM     23  C   UNL     1      31.287  -8.519 -23.112  0.00  0.00    +0.053 C 
BRANCH  23  24
ATOM     24  C   UNL     1      31.301  -7.032 -23.231  0.00  0.00    -0.020 C 
ATOM     25  C   UNL     1      32.044  -6.419 -24.240  0.00  0.00    -0.004 C 
ATOM     26  C   UNL     1      32.067  -5.020 -24.366  0.00  0.00    -0.000 C 
ATOM     27  C   UNL     1      30.571  -6.256 -22.336  0.00  0.00    -0.004 C 
ATOM     28  C   UNL     1      31.324  -4.232 -23.454  0.00  0.00    -0.000 C 
ATOM     29  C   UNL     1      30.581  -4.866 -22.445  0.00  0.00    -0.000 C 
ATOM     30  C   UNL     1      32.810  -4.388 -25.375  0.00  0.00    -0.000 C 
ATOM     31  C   UNL     1      31.347  -2.834 -23.580  0.00  0.00    -0.000 C 
ATOM     32  C   UNL     1      32.821  -2.996 -25.485  0.00  0.00    -0.000 C 
ATOM     33  C   UNL     1      32.092  -2.222 -24.588  0.00  0.00    -0.000 C 
ENDBRANCH  23  24
ENDBRANCH   1  23
TORSDOF 7
ENDMDL
MODEL 8
REMARK VINA RESULT:     -10.1     13.689     17.114
REMARK  Name = 9823454
REMARK  7 active torsions:
REMARK  status: ('A' for Active; 'I' for Inactive)
REMARK    1  A    between atoms: C_1  and  C_4
REMARK    2  A    between atoms: C_1  and  N_8
REMARK    3  A    between atoms: C_1  and  C_23
REMARK    4  A    between atoms: N_3  and  O_6
REMARK    5  A    between atoms: N_8  and  S_10
REMARK    6  A    between atoms: S_10  and  C_13
REMARK    7  A    between atoms: C_23  and  C_24
REMARK                            x       y       z     vdW  Elec       q    Type
REMARK                         _______ _______ _______ _____ _____    ______ ____
ROOT
ATOM      1  C   UNL     1      31.702  -8.942 -21.735  0.00  0.00    +0.158 C 
ENDROOT
BRANCH   1   4
ATOM      2  O   UNL     1      33.852  -7.838 -21.736  0.00  0.00    -0.272 OA
ATOM      3  N   UNL     1      32.596  -7.826 -19.799  0.00  0.00    -0.196 N 
ATOM      4  C   UNL     1      32.837  -8.144 -21.113  0.00  0.00    +0.260 C 
ATOM      5  H   UNL     1      31.767  -8.092 -19.340  0.00  0.00    +0.182 HD
BRANCH   3   6
ATOM      6  O   UNL     1      33.604  -7.097 -19.152  0.00  0.00    -0.295 OA
ATOM      7  H   UNL     1      34.170  -7.705 -18.651  0.00  0.00    +0.241 HD
ENDBRANCH   3   6
ENDBRANCH   1   4
BRANCH   1   8
ATOM      8  N   UNL     1      32.252 -10.298 -21.972  0.00  0.00    -0.172 NA
ATOM      9  H   UNL     1      32.030 -10.542 -22.937  0.00  0.00    +0.149 HD
BRANCH   8  10
ATOM     10  S   UNL     1      31.741 -11.598 -21.007  0.00  0.00    +0.061 S 
ATOM     11  O   UNL     1      30.343 -11.880 -21.277  0.00  0.00    -0.153 OA
ATOM     12  O   UNL     1      32.191 -11.375 -19.646  0.00  0.00    -0.153 OA
BRANCH  10  13
ATOM     13  C   UNL     1      32.700 -12.933 -21.655  0.00  0.00    +0.122 C 
ATOM     14  C   UNL     1      33.040 -13.987 -20.824  0.00  0.00    +0.020 C 
ATOM     15  C   UNL     1      33.803 -15.055 -21.323  0.00  0.00    +0.001 C 
ATOM     16  C   UNL     1      33.094 -12.900 -22.978  0.00  0.00    +0.020 C 
ATOM     17  C   UNL     1      34.215 -15.038 -22.677  0.00  0.00    +0.000 C 
ATOM     18  C   UNL     1      33.852 -13.954 -23.491  0.00  0.00    +0.001 C 
ATOM     19  C   UNL     1      34.166 -16.140 -20.508  0.00  0.00    +0.000 C 
ATOM     20  C   UNL     1      34.979 -16.105 -23.176  0.00  0.00    +0.000 C 
ATOM     21  C   UNL     1      34.925 -17.193 -21.021  0.00  0.00    +0.000 C 
ATOM     22  C   UNL     1      35.330 -17.175 -22.352  0.00  0.00    +0.000 C 
ENDBRANCH  10  13
ENDBRANCH   8  10
ENDBRANCH   1   8
BRANCH   1  23
ATOM     23  C   UNL     1      31.250  -8.322 -23.067  0.00  0.00    +0.053 C 
BRANCH  23  24
ATOM     24  C   UNL     1      31.179  -6.832 -23.033  0.00  0.00    -0.020 C 
ATOM     25  C   UNL     1      31.851  -6.079 -23.997  0.00  0.00    -0.004 C 
ATOM     26  C   UNL     1      31.793  -4.675 -23.978  0.00  0.00    -0.000 C 
ATOM     27  C   UNL     1      30.443  -6.194 -22.039  0.00  0.00    -0.004 C 
ATOM     28  C   UNL     1      31.044  -4.027 -22.967  0.00  0.00    -0.000 C 
ATOM     29  C   UNL     1      30.375  -4.802 -22.006  0.00  0.00    -0.000 C 
ATOM     30  C   UNL     1      32.463  -3.902 -24.939  0.00  0.00    -0.000 C 
ATOM     31  C   UNL     1      30.986  -2.624 -22.948  0.00  0.00    -0.000 C 
ATOM     32  C   UNL     1      32.395  -2.509 -24.906  0.00  0.00    -0.000 C 
ATOM     33  C   UNL     1      31.659  -1.872 -23.911  0.00  0.00    -0.000 C 
ENDBRANCH  23  24
ENDBRANCH   1  23
TORSDOF 7
ENDMDL
MODEL 9
REMARK VINA RESULT:     -10.0      3.162      5.693
REMARK  Name = 9823454
REMARK  7 active torsions:
REMARK  status: ('A' for Active; 'I' for Inactive)
REMARK    1  A    between atoms: C_1  and  C_4
REMARK    2  A    between atoms: C_1  and  N_8
REMARK    3  A    between atoms: C_1  and  C_23
REMARK    4  A    between atoms: N_3  and  O_6
REMARK    5  A    between atoms: N_8  and  S_10
REMARK    6  A    between atoms: S_10  and  C_13
REMARK    7  A    between atoms: C_23  and  C_24
REMARK                            x       y       z     vdW  Elec       q    Type
REMARK                         _______ _______ _______ _____ _____    ______ ____
ROOT
ATOM      1  C   UNL     1      32.315 -23.235 -15.616  0.00  0.00    +0.158 C 
ENDROOT
BRANCH   1   4
ATOM      2  O   UNL     1      30.325 -23.138 -14.247  0.00  0.00    -0.272 OA
ATOM      3  N   UNL     1      30.137 -22.744 -16.514  0.00  0.00    -0.196 N 
ATOM      4  C   UNL     1      30.829 -23.036 -15.364  0.00  0.00    +0.260 C 
ATOM      5  H   UNL     1      30.583 -22.672 -17.389  0.00  0.00    +0.182 HD
BRANCH   3   6
ATOM      6  O   UNL     1      28.756 -22.556 -16.366  0.00  0.00    -0.295 OA
ATOM      7  H   UNL     1      28.312 -22.747 -17.207  0.00  0.00    +0.241 HD
ENDBRANCH   3   6
ENDBRANCH   1   4
BRANCH   1   8
ATOM      8  N   UNL     1      32.523 -22.917 -17.049  0.00  0.00    -0.172 NA
ATOM      9  H   UNL     1      31.784 -23.391 -17.567  0.00  0.00    +0.149 HD
BRANCH   8  10
ATOM     10  S   UNL     1      33.990 -23.324 -17.801  0.00  0.00    +0.061 S 
ATOM     11  O   UNL     1      33.827 -24.563 -18.538  0.00  0.00    -0.153 OA
ATOM     12  O   UNL     1      35.064 -23.185 -16.836  0.00  0.00    -0.153 OA
BRANCH  10  13
ATOM     13  C   UNL     1      34.175 -22.014 -18.972  0.00  0.00    +0.122 C 
ATOM     14  C   UNL     1      35.447 -21.576 -19.300  0.00  0.00    +0.020 C 
ATOM     15  C   UNL     1      35.612 -20.535 -20.229  0.00  0.00    +0.001 C 
ATOM     16  C   UNL     1      33.049 -21.451 -19.538  0.00  0.00    +0.020 C 
ATOM     17  C   UNL     1      34.468 -19.947 -20.819  0.00  0.00    +0.000 C 
ATOM     18  C   UNL     1      33.194 -20.417 -20.463  0.00  0.00    +0.001 C 
ATOM     19  C   UNL     1      36.887 -20.066 -20.584  0.00  0.00    +0.000 C 
ATOM     20  C   UNL     1      34.633 -18.906 -21.746  0.00  0.00    +0.000 C 
ATOM     21  C   UNL     1      37.032 -19.030 -21.508  0.00  0.00    +0.000 C 
ATOM     22  C   UNL     1      35.907 -18.452 -22.088  0.00  0.00    +0.000 C 
ENDBRANCH  10  13
ENDBRANCH   8  10
ENDBRANCH   1   8
BRANCH   1  23
ATOM     23  C   UNL     1      32.736 -24.688 -15.339  0.00  0.00    +0.053 C 
BRANCH  23  24
ATOM     24  C   UNL     1      33.857 -24.803 -14.362  0.00  0.00    -0.020 C 
ATOM     25  C   UNL     1      35.056 -25.408 -14.742  0.00  0.00    -0.004 C 
ATOM     26  C   UNL     1      36.120 -25.524 -13.834  0.00  0.00    -0.000 C 
ATOM     27  C   UNL     1      33.707 -24.307 -13.070  0.00  0.00    -0.004 C 
ATOM     28  C   UNL     1      35.967 -25.018 -12.521  0.00  0.00    -0.000 C 
ATOM     29  C   UNL     1      34.755 -24.413 -12.155  0.00  0.00    -0.000 C 
ATOM     30  C   UNL     1      37.333 -26.130 -14.201  0.00  0.00    -0.000 C 
ATOM     31  C   UNL     1      37.032 -25.134 -11.612  0.00  0.00    -0.000 C 
ATOM     32  C   UNL     1      38.381 -26.236 -13.285  0.00  0.00    -0.000 C 
ATOM     33  C   UNL     1      38.230 -25.740 -11.994  0.00  0.00    -0.000 C 
ENDBRANCH  23  24
ENDBRANCH   1  23
TORSDOF 7
ENDMDL
