MODEL 1
REMARK VINA RESULT:     -11.4      0.000      0.000
REMARK  Name = 54713659
REMARK  4 active torsions:
REMARK  status: ('A' for Active; 'I' for Inactive)
REMARK    1  A    between atoms: C_14  and  O_30
REMARK    2  A    between atoms: C_15  and  C_19
REMARK    3  A    between atoms: N_18  and  C_21
REMARK    4  A    between atoms: C_21  and  C_24
REMARK                            x       y       z     vdW  Elec       q    Type
REMARK                         _______ _______ _______ _____ _____    ______ ____
ROOT
ATOM      1  O   UNL     1      31.711 -12.565 -19.503  0.00  0.00    -0.334 OA
ATOM      2  O   UNL     1      33.303 -11.758 -23.732  0.00  0.00    -0.268 OA
ATOM      3  O   UNL     1      34.840 -16.395 -25.272  0.00  0.00    -0.283 OA
ATOM      4  N   UNL     1      32.419 -12.300 -21.679  0.00  0.00    -0.251 N 
ATOM      5  N   UNL     1      33.680 -14.762 -21.744  0.00  0.00    -0.275 N 
ATOM      6  C   UNL     1      32.089 -13.286 -20.683  0.00  0.00    +0.215 C 
ATOM      7  C   UNL     1      31.988 -10.994 -21.246  0.00  0.00    +0.107 C 
ATOM      8  C   UNL     1      33.283 -14.188 -20.453  0.00  0.00    +0.147 C 
ATOM      9  C   UNL     1      32.004 -11.172 -19.738  0.00  0.00    +0.164 C 
ATOM     10  C   UNL     1      33.090 -12.586 -22.849  0.00  0.00    +0.268 C 
ATOM     11  C   UNL     1      33.601 -14.009 -22.931  0.00  0.00    +0.143 C 
ATOM     12  C   UNL     1      30.599 -10.666 -21.782  0.00  0.00    +0.024 C 
ATOM     13  C   UNL     1      34.198 -16.047 -21.806  0.00  0.00    +0.074 C 
ATOM     14  C   UNL     1      33.975 -14.498 -24.133  0.00  0.00    +0.191 C 
ATOM     15  C   UNL     1      34.606 -16.655 -22.927  0.00  0.00    +0.110 C 
ATOM     16  C   UNL     1      34.503 -15.898 -24.202  0.00  0.00    +0.236 C 
ENDROOT
BRANCH  15  19
ATOM     17  O   UNL     1      35.049 -18.796 -23.786  0.00  0.00    -0.270 OA
ATOM     18  N   UNL     1      35.679 -18.305 -21.596  0.00  0.00    -0.297 N 
ATOM     19  C   UNL     1      35.125 -18.020 -22.833  0.00  0.00    +0.251 C 
ATOM     20  H   UNL     1      35.681 -17.597 -20.911  0.00  0.00    +0.150 HD
BRANCH  18  21
ATOM     21  C   UNL     1      36.256 -19.586 -21.257  0.00  0.00    +0.119 C 
BRANCH  21  24
ATOM     22  F   UNL     1      37.132 -21.639 -19.518  0.00  0.00    -0.204 F 
ATOM     23  F   UNL     1      32.716 -22.753 -18.232  0.00  0.00    -0.204 F 
ATOM     24  C   UNL     1      35.313 -20.431 -20.450  0.00  0.00    +0.025 C 
ATOM     25  C   UNL     1      35.811 -21.428 -19.611  0.00  0.00    +0.140 C 
ATOM     26  C   UNL     1      33.937 -20.219 -20.540  0.00  0.00    +0.002 C 
ATOM     27  C   UNL     1      34.935 -22.212 -18.862  0.00  0.00    +0.059 C 
ATOM     28  C   UNL     1      33.060 -21.004 -19.791  0.00  0.00    +0.030 C 
ATOM     29  C   UNL     1      33.558 -22.000 -18.951  0.00  0.00    +0.142 C 
ENDBRANCH  21  24
ENDBRANCH  18  21
ENDBRANCH  15  19
BRANCH  14  30
ATOM     30  O   UNL     1      33.893 -13.791 -25.311  0.00  0.00    -0.502 OA
ATOM     31  H   UNL     1      33.406 -14.137 -26.033  0.00  0.00    +0.292 HD
ENDBRANCH  14  30
TORSDOF 4
ENDMDL
MODEL 2
REMARK VINA RESULT:     -11.3      1.709      3.057
REMARK  Name = 54713659
REMARK  4 active torsions:
REMARK  status: ('A' for Active; 'I' for Inactive)
REMARK    1  A    between atoms: C_14  and  O_30
REMARK    2  A    between atoms: C_15  and  C_19
REMARK    3  A    between atoms: N_18  and  C_21
REMARK    4  A    between atoms: C_21  and  C_24
REMARK                            x       y       z     vdW  Elec       q    Type
REMARK                         _______ _______ _______ _____ _____    ______ ____
ROOT
ATOM      1  O   UNL     1      33.298  -8.999 -23.549  0.00  0.00    -0.334 OA
ATOM      2  O   UNL     1      30.863 -11.430 -20.509  0.00  0.00    -0.268 OA
ATOM      3  O   UNL     1      33.242 -15.966 -20.515  0.00  0.00    -0.283 OA
ATOM      4  N   UNL     1      32.228 -10.269 -21.953  0.00  0.00    -0.251 N 
ATOM      5  N   UNL     1      33.379 -12.631 -22.821  0.00  0.00    -0.275 N 
ATOM      6  C   UNL     1      33.394 -10.215 -22.796  0.00  0.00    +0.215 C 
ATOM      7  C   UNL     1      31.556  -8.994 -21.952  0.00  0.00    +0.107 C 
ATOM      8  C   UNL     1      33.431 -11.442 -23.681  0.00  0.00    +0.147 C 
ATOM      9  C   UNL     1      31.993  -8.439 -23.297  0.00  0.00    +0.164 C 
ATOM     10  C   UNL     1      31.813 -11.404 -21.289  0.00  0.00    +0.268 C 
ATOM     11  C   UNL     1      32.599 -12.648 -21.649  0.00  0.00    +0.143 C 
ATOM     12  C   UNL     1      32.019  -8.128 -20.784  0.00  0.00    +0.024 C 
ATOM     13  C   UNL     1      34.059 -13.785 -23.184  0.00  0.00    +0.074 C 
ATOM     14  C   UNL     1      32.513 -13.729 -20.845  0.00  0.00    +0.191 C 
ATOM     15  C   UNL     1      34.060 -14.924 -22.482  0.00  0.00    +0.110 C 
ATOM     16  C   UNL     1      33.274 -14.962 -21.221  0.00  0.00    +0.236 C 
ENDROOT
BRANCH  15  19
ATOM     17  O   UNL     1      35.207 -16.096 -24.164  0.00  0.00    -0.270 OA
ATOM     18  N   UNL     1      35.070 -17.028 -22.032  0.00  0.00    -0.297 N 
ATOM     19  C   UNL     1      34.832 -16.058 -22.992  0.00  0.00    +0.251 C 
ATOM     20  H   UNL     1      34.717 -16.882 -21.124  0.00  0.00    +0.150 HD
BRANCH  18  21
ATOM     21  C   UNL     1      35.808 -18.243 -22.292  0.00  0.00    +0.119 C 
BRANCH  21  24
ATOM     22  F   UNL     1      37.722 -19.703 -20.806  0.00  0.00    -0.204 F 
ATOM     23  F   UNL     1      34.412 -22.361 -18.715  0.00  0.00    -0.204 F 
ATOM     24  C   UNL     1      35.437 -19.341 -21.338  0.00  0.00    +0.025 C 
ATOM     25  C   UNL     1      36.431 -20.023 -20.636  0.00  0.00    +0.140 C 
ATOM     26  C   UNL     1      34.096 -19.681 -21.154  0.00  0.00    +0.002 C 
ATOM     27  C   UNL     1      36.085 -21.043 -19.750  0.00  0.00    +0.059 C 
ATOM     28  C   UNL     1      33.751 -20.701 -20.268  0.00  0.00    +0.030 C 
ATOM     29  C   UNL     1      34.744 -21.382 -19.565  0.00  0.00    +0.142 C 
ENDBRANCH  21  24
ENDBRANCH  18  21
ENDBRANCH  15  19
BRANCH  14  30
ATOM     30  O   UNL     1      31.773 -13.768 -19.685  0.00  0.00    -0.502 OA
ATOM     31  H   UNL     1      31.577 -12.975 -19.226  0.00  0.00    +0.292 HD
ENDBRANCH  14  30
TORSDOF 4
ENDMDL
MODEL 3
REMARK VINA RESULT:     -11.2      7.014     11.900
REMARK  Name = 54713659
REMARK  4 active torsions:
REMARK  status: ('A' for Active; 'I' for Inactive)
REMARK    1  A    between atoms: C_14  and  O_30
REMARK    2  A    between atoms: C_15  and  C_19
REMARK    3  A    between atoms: N_18  and  C_21
REMARK    4  A    between atoms: C_21  and  C_24
REMARK                            x       y       z     vdW  Elec       q    Type
REMARK                         _______ _______ _______ _____ _____    ______ ____
ROOT
ATOM      1  O   UNL     1      38.627 -24.547 -13.507  0.00  0.00    -0.334 OA
ATOM      2  O   UNL     1      34.637 -25.281 -11.359  0.00  0.00    -0.268 OA
ATOM      3  O   UNL     1      31.185 -24.415 -15.043  0.00  0.00    -0.283 OA
ATOM      4  N   UNL     1      36.576 -25.012 -12.567  0.00  0.00    -0.251 N 
ATOM      5  N   UNL     1      35.173 -23.797 -14.618  0.00  0.00    -0.275 N 
ATOM      6  C   UNL     1      37.242 -24.752 -13.816  0.00  0.00    +0.215 C 
ATOM      7  C   UNL     1      37.546 -25.254 -11.528  0.00  0.00    +0.107 C 
ATOM      8  C   UNL     1      36.612 -23.546 -14.480  0.00  0.00    +0.147 C 
ATOM      9  C   UNL     1      38.743 -24.492 -12.070  0.00  0.00    +0.164 C 
ATOM     10  C   UNL     1      35.207 -24.984 -12.406  0.00  0.00    +0.268 C 
ATOM     11  C   UNL     1      34.456 -24.493 -13.626  0.00  0.00    +0.143 C 
ATOM     12  C   UNL     1      37.825 -26.745 -11.371  0.00  0.00    +0.024 C 
ATOM     13  C   UNL     1      34.480 -23.299 -15.712  0.00  0.00    +0.074 C 
ATOM     14  C   UNL     1      33.129 -24.726 -13.712  0.00  0.00    +0.191 C 
ATOM     15  C   UNL     1      33.167 -23.456 -15.923  0.00  0.00    +0.110 C 
ATOM     16  C   UNL     1      32.389 -24.216 -14.910  0.00  0.00    +0.236 C 
ENDROOT
BRANCH  15  19
ATOM     17  O   UNL     1      31.372 -22.641 -17.200  0.00  0.00    -0.270 OA
ATOM     18  N   UNL     1      33.510 -22.640 -18.128  0.00  0.00    -0.297 N 
ATOM     19  C   UNL     1      32.579 -22.875 -17.130  0.00  0.00    +0.251 C 
ATOM     20  H   UNL     1      34.451 -22.872 -17.952  0.00  0.00    +0.150 HD
BRANCH  18  21
ATOM     21  C   UNL     1      33.175 -22.074 -19.415  0.00  0.00    +0.119 C 
BRANCH  21  24
ATOM     22  F   UNL     1      35.922 -22.531 -18.915  0.00  0.00    -0.204 F 
ATOM     23  F   UNL     1      37.242 -18.704 -21.366  0.00  0.00    -0.204 F 
ATOM     24  C   UNL     1      34.260 -21.177 -19.935  0.00  0.00    +0.025 C 
ATOM     25  C   UNL     1      35.597 -21.458 -19.651  0.00  0.00    +0.140 C 
ATOM     26  C   UNL     1      33.932 -20.058 -20.703  0.00  0.00    +0.002 C 
ATOM     27  C   UNL     1      36.604 -20.624 -20.134  0.00  0.00    +0.059 C 
ATOM     28  C   UNL     1      34.939 -19.224 -21.185  0.00  0.00    +0.030 C 
ATOM     29  C   UNL     1      36.275 -19.506 -20.902  0.00  0.00    +0.142 C 
ENDBRANCH  21  24
ENDBRANCH  18  21
ENDBRANCH  15  19
BRANCH  14  30
ATOM     30  O   UNL     1      32.406 -25.417 -12.766  0.00  0.00    -0.502 OA
ATOM     31  H   UNL     1      31.472 -25.354 -12.751  0.00  0.00    +0.292 HD
ENDBRANCH  14  30
TORSDOF 4
ENDMDL
MODEL 4
REMARK VINA RESULT:     -11.2      4.899      9.856
REMARK  Name = 54713659
REMARK  4 active torsions:
REMARK  status: ('A' for Active; 'I' for Inactive)
REMARK    1  A    between atoms: C_14  and  O_30
REMARK    2  A    between atoms: C_15  and  C_19
REMARK    3  A    between atoms: N_18  and  C_21
REMARK    4  A    between atoms: C_21  and  C_24
REMARK                            x       y       z     vdW  Elec       q    Type
REMARK                         _______ _______ _______ _____ _____    ______ ____
ROOT
ATOM      1  O   UNL     1      38.270 -23.790 -14.625  0.00  0.00    -0.334 OA
ATOM      2  O   UNL     1      33.815 -23.707 -15.728  0.00  0.00    -0.268 OA
ATOM      3  O   UNL     1      33.824 -21.464 -20.333  0.00  0.00    -0.283 OA
ATOM      4  N   UNL     1      36.079 -23.809 -15.336  0.00  0.00    -0.251 N 
ATOM      5  N   UNL     1      36.550 -22.000 -17.376  0.00  0.00    -0.275 N 
ATOM      6  C   UNL     1      37.432 -23.573 -15.768  0.00  0.00    +0.215 C 
ATOM      7  C   UNL     1      36.075 -24.439 -14.039  0.00  0.00    +0.107 C 
ATOM      8  C   UNL     1      37.548 -22.164 -16.311  0.00  0.00    +0.147 C 
ATOM      9  C   UNL     1      37.405 -23.959 -13.484  0.00  0.00    +0.164 C 
ATOM     10  C   UNL     1      34.967 -23.436 -16.060  0.00  0.00    +0.268 C 
ATOM     11  C   UNL     1      35.282 -22.604 -17.285  0.00  0.00    +0.143 C 
ATOM     12  C   UNL     1      36.006 -25.957 -14.164  0.00  0.00    +0.024 C 
ATOM     13  C   UNL     1      36.825 -21.193 -18.470  0.00  0.00    +0.074 C 
ATOM     14  C   UNL     1      34.334 -22.459 -18.236  0.00  0.00    +0.191 C 
ATOM     15  C   UNL     1      35.980 -20.962 -19.483  0.00  0.00    +0.110 C 
ATOM     16  C   UNL     1      34.645 -21.614 -19.432  0.00  0.00    +0.236 C 
ENDROOT
BRANCH  15  19
ATOM     17  O   UNL     1      37.581 -19.689 -20.639  0.00  0.00    -0.270 OA
ATOM     18  N   UNL     1      35.404 -19.790 -21.467  0.00  0.00    -0.297 N 
ATOM     19  C   UNL     1      36.418 -20.089 -20.573  0.00  0.00    +0.251 C 
ATOM     20  H   UNL     1      34.511 -20.173 -21.306  0.00  0.00    +0.150 HD
BRANCH  18  21
ATOM     21  C   UNL     1      35.586 -18.945 -22.626  0.00  0.00    +0.119 C 
BRANCH  21  24
ATOM     22  F   UNL     1      35.209 -17.054 -24.696  0.00  0.00    -0.204 F 
ATOM     23  F   UNL     1      33.869 -13.667 -21.675  0.00  0.00    -0.204 F 
ATOM     24  C   UNL     1      35.129 -17.538 -22.374  0.00  0.00    +0.025 C 
ATOM     25  C   UNL     1      34.963 -16.655 -23.441  0.00  0.00    +0.140 C 
ATOM     26  C   UNL     1      34.869 -17.113 -21.070  0.00  0.00    +0.002 C 
ATOM     27  C   UNL     1      34.538 -15.348 -23.205  0.00  0.00    +0.059 C 
ATOM     28  C   UNL     1      34.444 -15.806 -20.835  0.00  0.00    +0.030 C 
ATOM     29  C   UNL     1      34.278 -14.923 -21.902  0.00  0.00    +0.142 C 
ENDBRANCH  21  24
ENDBRANCH  18  21
ENDBRANCH  15  19
BRANCH  14  30
ATOM     30  O   UNL     1      33.093 -23.051 -18.182  0.00  0.00    -0.502 OA
ATOM     31  H   UNL     1      32.531 -23.033 -18.931  0.00  0.00    +0.292 HD
ENDBRANCH  14  30
TORSDOF 4
ENDMDL
MODEL 5
REMARK VINA RESULT:     -11.1      2.618      4.665
REMARK  Name = 54713659
REMARK  4 active torsions:
REMARK  status: ('A' for Active; 'I' for Inactive)
REMARK    1  A    between atoms: C_14  and  O_30
REMARK    2  A    between atoms: C_15  and  C_19
REMARK    3  A    between atoms: N_18  and  C_21
REMARK    4  A    between atoms: C_21  and  C_24
REMARK                            x       y       z     vdW  Elec       q    Type
REMARK                         _______ _______ _______ _____ _____    ______ ____
ROOT
ATOM      1  O   UNL     1      33.480  -7.204 -22.652  0.00  0.00    -0.334 OA
ATOM      2  O   UNL     1      31.054  -9.778 -19.726  0.00  0.00    -0.268 OA
ATOM      3  O   UNL     1      32.263 -14.551 -21.139  0.00  0.00    -0.283 OA
ATOM      4  N   UNL     1      32.408  -8.590 -21.158  0.00  0.00    -0.251 N 
ATOM      5  N   UNL     1      32.816 -10.848 -22.703  0.00  0.00    -0.275 N 
ATOM      6  C   UNL     1      33.404  -8.561 -22.196  0.00  0.00    +0.215 C 
ATOM      7  C   UNL     1      32.065  -7.247 -20.761  0.00  0.00    +0.107 C 
ATOM      8  C   UNL     1      33.011  -9.521 -23.299  0.00  0.00    +0.147 C 
ATOM      9  C   UNL     1      32.401  -6.479 -22.027  0.00  0.00    +0.164 C 
ATOM     10  C   UNL     1      31.847  -9.749 -20.665  0.00  0.00    +0.268 C 
ATOM     11  C   UNL     1      32.250 -10.997 -21.423  0.00  0.00    +0.143 C 
ATOM     12  C   UNL     1      32.898  -6.797 -19.565  0.00  0.00    +0.024 C 
ATOM     13  C   UNL     1      33.138 -11.989 -23.424  0.00  0.00    +0.074 C 
ATOM     14  C   UNL     1      32.039 -12.202 -20.853  0.00  0.00    +0.191 C 
ATOM     15  C   UNL     1      32.982 -13.243 -22.982  0.00  0.00    +0.110 C 
ATOM     16  C   UNL     1      32.418 -13.432 -21.619  0.00  0.00    +0.236 C 
ENDROOT
BRANCH  15  19
ATOM     17  O   UNL     1      32.781 -14.559 -24.917  0.00  0.00    -0.270 OA
ATOM     18  N   UNL     1      34.438 -15.082 -23.363  0.00  0.00    -0.297 N 
ATOM     19  C   UNL     1      33.373 -14.347 -23.858  0.00  0.00    +0.251 C 
ATOM     20  H   UNL     1      34.828 -14.813 -22.500  0.00  0.00    +0.150 HD
BRANCH  18  21
ATOM     21  C   UNL     1      35.006 -16.223 -24.045  0.00  0.00    +0.119 C 
BRANCH  21  24
ATOM     22  F   UNL     1      34.313 -18.813 -24.949  0.00  0.00    -0.204 F 
ATOM     23  F   UNL     1      35.201 -20.773 -20.734  0.00  0.00    -0.204 F 
ATOM     24  C   UNL     1      35.057 -17.436 -23.163  0.00  0.00    +0.025 C 
ATOM     25  C   UNL     1      34.701 -18.686 -23.672  0.00  0.00    +0.140 C 
ATOM     26  C   UNL     1      35.462 -17.315 -21.833  0.00  0.00    +0.002 C 
ATOM     27  C   UNL     1      34.750 -19.813 -22.852  0.00  0.00    +0.059 C 
ATOM     28  C   UNL     1      35.509 -18.442 -21.013  0.00  0.00    +0.030 C 
ATOM     29  C   UNL     1      35.154 -19.691 -21.522  0.00  0.00    +0.142 C 
ENDBRANCH  21  24
ENDBRANCH  18  21
ENDBRANCH  15  19
BRANCH  14  30
ATOM     30  O   UNL     1      31.505 -12.377 -19.596  0.00  0.00    -0.502 OA
ATOM     31  H   UNL     1      30.739 -12.904 -19.481  0.00  0.00    +0.292 HD
ENDBRANCH  14  30
TORSDOF 4
ENDMDL
MODEL 6
REMARK VINA RESULT:     -11.0      5.109      9.854
REMARK  Name = 54713659
REMARK  4 active torsions:
REMARK  status: ('A' for Active; 'I' for Inactive)
REMARK    1  A    between atoms: C_14  and  O_30
REMARK    2  A    between atoms: C_15  and  C_19
REMARK    3  A    between atoms: N_18  and  C_21
REMARK    4  A    between atoms: C_21  and  C_24
REMARK                            x       y       z     vdW  Elec       q    Type
REMARK                         _______ _______ _______ _____ _____    ______ ____
ROOT
ATOM      1  O   UNL     1      32.013 -24.178 -14.312  0.00  0.00    -0.334 OA
ATOM      2  O   UNL     1      36.489 -24.143 -15.334  0.00  0.00    -0.268 OA
ATOM      3  O   UNL     1      36.701 -21.045 -19.407  0.00  0.00    -0.283 OA
ATOM      4  N   UNL     1      34.248 -23.986 -14.838  0.00  0.00    -0.251 N 
ATOM      5  N   UNL     1      33.740 -22.869 -17.317  0.00  0.00    -0.275 N 
ATOM      6  C   UNL     1      32.946 -23.433 -15.106  0.00  0.00    +0.215 C 
ATOM      7  C   UNL     1      34.189 -24.860 -13.692  0.00  0.00    +0.107 C 
ATOM      8  C   UNL     1      32.653 -23.534 -16.588  0.00  0.00    +0.147 C 
ATOM      9  C   UNL     1      32.732 -25.285 -13.731  0.00  0.00    +0.164 C 
ATOM     10  C   UNL     1      35.363 -23.733 -15.608  0.00  0.00    +0.268 C 
ATOM     11  C   UNL     1      35.072 -22.947 -16.869  0.00  0.00    +0.143 C 
ATOM     12  C   UNL     1      34.547 -24.114 -12.411  0.00  0.00    +0.024 C 
ATOM     13  C   UNL     1      33.475 -22.194 -18.500  0.00  0.00    +0.074 C 
ATOM     14  C   UNL     1      36.099 -22.363 -17.524  0.00  0.00    +0.191 C 
ATOM     15  C   UNL     1      34.395 -21.572 -19.249  0.00  0.00    +0.110 C 
ATOM     16  C   UNL     1      35.806 -21.608 -18.783  0.00  0.00    +0.236 C 
ENDROOT
BRANCH  15  19
ATOM     17  O   UNL     1      32.764 -20.747 -20.724  0.00  0.00    -0.270 OA
ATOM     18  N   UNL     1      35.015 -20.476 -21.263  0.00  0.00    -0.297 N 
ATOM     19  C   UNL     1      33.960 -20.897 -20.472  0.00  0.00    +0.251 C 
ATOM     20  H   UNL     1      35.932 -20.655 -20.952  0.00  0.00    +0.150 HD
BRANCH  18  21
ATOM     21  C   UNL     1      34.843 -19.786 -22.522  0.00  0.00    +0.119 C 
BRANCH  21  24
ATOM     22  F   UNL     1      34.812 -17.981 -24.700  0.00  0.00    -0.204 F 
ATOM     23  F   UNL     1      34.713 -14.196 -21.861  0.00  0.00    -0.204 F 
ATOM     24  C   UNL     1      34.808 -18.296 -22.347  0.00  0.00    +0.025 C 
ATOM     25  C   UNL     1      34.795 -17.461 -23.465  0.00  0.00    +0.140 C 
ATOM     26  C   UNL     1      34.789 -17.745 -21.065  0.00  0.00    +0.002 C 
ATOM     27  C   UNL     1      34.762 -16.076 -23.301  0.00  0.00    +0.059 C 
ATOM     28  C   UNL     1      34.758 -16.361 -20.902  0.00  0.00    +0.030 C 
ATOM     29  C   UNL     1      34.744 -15.526 -22.019  0.00  0.00    +0.142 C 
ENDBRANCH  21  24
ENDBRANCH  18  21
ENDBRANCH  15  19
BRANCH  14  30
ATOM     30  O   UNL     1      37.407 -22.408 -17.100  0.00  0.00    -0.502 OA
ATOM     31  H   UNL     1      37.928 -21.630 -17.101  0.00  0.00    +0.292 HD
ENDBRANCH  14  30
TORSDOF 4
ENDMDL
MODEL 7
REMARK VINA RESULT:     -10.3      5.820     10.533
REMARK  Name = 54713659
REMARK  4 active torsions:
REMARK  status: ('A' for Active; 'I' for Inactive)
REMARK    1  A    between atoms: C_14  and  O_30
REMARK    2  A    between atoms: C_15  and  C_19
REMARK    3  A    between atoms: N_18  and  C_21
REMARK    4  A    between atoms: C_21  and  C_24
REMARK                            x       y       z     vdW  Elec       q    Type
REMARK                         _______ _______ _______ _____ _____    ______ ____
ROOT
ATOM      1  O   UNL     1      34.343 -24.601 -12.303  0.00  0.00    -0.334 OA
ATOM      2  O   UNL     1      38.292 -23.487 -14.361  0.00  0.00    -0.268 OA
ATOM      3  O   UNL     1      36.727 -21.350 -18.745  0.00  0.00    -0.283 OA
ATOM      4  N   UNL     1      36.255 -23.885 -13.369  0.00  0.00    -0.251 N 
ATOM      5  N   UNL     1      34.961 -23.487 -15.782  0.00  0.00    -0.275 N 
ATOM      6  C   UNL     1      34.818 -23.796 -13.391  0.00  0.00    +0.215 C 
ATOM      7  C   UNL     1      36.697 -24.487 -12.136  0.00  0.00    +0.107 C 
ATOM      8  C   UNL     1      34.305 -24.275 -14.732  0.00  0.00    +0.147 C 
ATOM      9  C   UNL     1      35.476 -25.313 -11.768  0.00  0.00    +0.164 C 
ATOM     10  C   UNL     1      37.064 -23.483 -14.411  0.00  0.00    +0.268 C 
ATOM     11  C   UNL     1      36.305 -23.085 -15.659  0.00  0.00    +0.143 C 
ATOM     12  C   UNL     1      37.023 -23.427 -11.090  0.00  0.00    +0.024 C 
ATOM     13  C   UNL     1      34.278 -23.171 -16.948  0.00  0.00    +0.074 C 
ATOM     14  C   UNL     1      36.946 -22.376 -16.613  0.00  0.00    +0.191 C 
ATOM     15  C   UNL     1      34.789 -22.476 -17.971  0.00  0.00    +0.110 C 
ATOM     16  C   UNL     1      36.196 -22.008 -17.856  0.00  0.00    +0.236 C 
ENDROOT
BRANCH  15  19
ATOM     17  O   UNL     1      33.011 -22.972 -19.423  0.00  0.00    -0.270 OA
ATOM     18  N   UNL     1      34.303 -21.074 -19.826  0.00  0.00    -0.297 N 
ATOM     19  C   UNL     1      33.940 -22.217 -19.134  0.00  0.00    +0.251 C 
ATOM     20  H   UNL     1      35.068 -20.551 -19.495  0.00  0.00    +0.150 HD
BRANCH  18  21
ATOM     21  C   UNL     1      33.618 -20.609 -21.012  0.00  0.00    +0.119 C 
BRANCH  21  24
ATOM     22  F   UNL     1      34.733 -20.399 -23.603  0.00  0.00    -0.204 F 
ATOM     23  F   UNL     1      35.859 -15.842 -23.003  0.00  0.00    -0.204 F 
ATOM     24  C   UNL     1      34.216 -19.338 -21.544  0.00  0.00    +0.025 C 
ATOM     25  C   UNL     1      34.750 -19.303 -22.832  0.00  0.00    +0.140 C 
ATOM     26  C   UNL     1      34.237 -18.192 -20.748  0.00  0.00    +0.002 C 
ATOM     27  C   UNL     1      35.305 -18.122 -23.325  0.00  0.00    +0.059 C 
ATOM     28  C   UNL     1      34.793 -17.012 -21.241  0.00  0.00    +0.030 C 
ATOM     29  C   UNL     1      35.326 -16.976 -22.530  0.00  0.00    +0.142 C 
ENDBRANCH  21  24
ENDBRANCH  18  21
ENDBRANCH  15  19
BRANCH  14  30
ATOM     30  O   UNL     1      38.253 -21.956 -16.512  0.00  0.00    -0.502 OA
ATOM     31  H   UNL     1      38.945 -22.584 -16.455  0.00  0.00    +0.292 HD
ENDBRANCH  14  30
TORSDOF 4
ENDMDL
MODEL 8
REMARK VINA RESULT:     -10.1      5.013      8.003
REMARK  Name = 54713659
REMARK  4 active torsions:
REMARK  status: ('A' for Active; 'I' for Inactive)
REMARK    1  A    between atoms: C_14  and  O_30
REMARK    2  A    between atoms: C_15  and  C_19
REMARK    3  A    between atoms: N_18  and  C_21
REMARK    4  A    between atoms: C_21  and  C_24
REMARK                            x       y       z     vdW  Elec       q    Type
REMARK                         _______ _______ _______ _____ _____    ______ ____
ROOT
ATOM      1  O   UNL     1      30.052  -3.425 -22.624  0.00  0.00    -0.334 OA
ATOM      2  O   UNL     1      33.799  -5.173 -24.618  0.00  0.00    -0.268 OA
ATOM      3  O   UNL     1      33.721 -10.064 -23.096  0.00  0.00    -0.283 OA
ATOM      4  N   UNL     1      31.834  -4.438 -23.676  0.00  0.00    -0.251 N 
ATOM      5  N   UNL     1      31.720  -6.687 -22.069  0.00  0.00    -0.275 N 
ATOM      6  C   UNL     1      30.638  -4.700 -22.918  0.00  0.00    +0.215 C 
ATOM      7  C   UNL     1      31.858  -3.061 -24.104  0.00  0.00    +0.107 C 
ATOM      8  C   UNL     1      30.996  -5.475 -21.667  0.00  0.00    +0.147 C 
ATOM      9  C   UNL     1      30.995  -2.414 -23.035  0.00  0.00    +0.164 C 
ATOM     10  C   UNL     1      32.818  -5.376 -23.907  0.00  0.00    +0.268 C 
ATOM     11  C   UNL     1      32.616  -6.675 -23.155  0.00  0.00    +0.143 C 
ATOM     12  C   UNL     1      31.270  -2.908 -25.503  0.00  0.00    +0.024 C 
ATOM     13  C   UNL     1      31.571  -7.860 -21.344  0.00  0.00    +0.074 C 
ATOM     14  C   UNL     1      33.312  -7.765 -23.541  0.00  0.00    +0.191 C 
ATOM     15  C   UNL     1      32.198  -9.012 -21.614  0.00  0.00    +0.110 C 
ATOM     16  C   UNL     1      33.125  -9.039 -22.776  0.00  0.00    +0.236 C 
ENDROOT
BRANCH  15  19
ATOM     17  O   UNL     1      31.820 -10.044 -19.538  0.00  0.00    -0.270 OA
ATOM     18  N   UNL     1      31.836 -11.356 -21.466  0.00  0.00    -0.297 N 
ATOM     19  C   UNL     1      31.934 -10.169 -20.759  0.00  0.00    +0.251 C 
ATOM     20  H   UNL     1      31.947 -11.326 -22.444  0.00  0.00    +0.150 HD
BRANCH  18  21
ATOM     21  C   UNL     1      31.582 -12.636 -20.844  0.00  0.00    +0.119 C 
BRANCH  21  24
ATOM     22  F   UNL     1      32.168 -14.896 -19.247  0.00  0.00    -0.204 F 
ATOM     23  F   UNL     1      35.449 -16.473 -22.271  0.00  0.00    -0.204 F 
ATOM     24  C   UNL     1      32.613 -13.659 -21.224  0.00  0.00    +0.025 C 
ATOM     25  C   UNL     1      32.854 -14.751 -20.390  0.00  0.00    +0.140 C 
ATOM     26  C   UNL     1      33.331 -13.518 -22.412  0.00  0.00    +0.002 C 
ATOM     27  C   UNL     1      33.811 -15.702 -20.743  0.00  0.00    +0.059 C 
ATOM     28  C   UNL     1      34.289 -14.468 -22.764  0.00  0.00    +0.030 C 
ATOM     29  C   UNL     1      34.529 -15.560 -21.931  0.00  0.00    +0.142 C 
ENDBRANCH  21  24
ENDBRANCH  18  21
ENDBRANCH  15  19
BRANCH  14  30
ATOM     30  O   UNL     1      34.181  -7.786 -24.607  0.00  0.00    -0.502 OA
ATOM     31  H   UNL     1      33.955  -7.351 -25.405  0.00  0.00    +0.292 HD
ENDBRANCH  14  30
TORSDOF 4
ENDMDL
MODEL 9
REMARK VINA RESULT:      -9.9      2.314      3.568
REMARK  Name = 54713659
REMARK  4 active torsions:
REMARK  status: ('A' for Active; 'I' for Inactive)
REMARK    1  A    between atoms: C_14  and  O_30
REMARK    2  A    between atoms: C_15  and  C_19
REMARK    3  A    between atoms: N_18  and  C_21
REMARK    4  A    between atoms: C_21  and  C_24
REMARK                            x       y       z     vdW  Elec       q    Type
REMARK                         _______ _______ _______ _____ _____    ______ ____
ROOT
ATOM      1  O   UNL     1      34.136 -14.293 -26.986  0.00  0.00    -0.334 OA
ATOM      2  O   UNL     1      33.332 -13.190 -22.603  0.00  0.00    -0.268 OA
ATOM      3  O   UNL     1      35.203 -17.220 -20.054  0.00  0.00    -0.283 OA
ATOM      4  N   UNL     1      33.897 -13.787 -24.751  0.00  0.00    -0.251 N 
ATOM      5  N   UNL     1      34.382 -16.388 -23.939  0.00  0.00    -0.275 N 
ATOM      6  C   UNL     1      34.521 -14.705 -25.668  0.00  0.00    +0.215 C 
ATOM      7  C   UNL     1      33.369 -12.653 -25.467  0.00  0.00    +0.107 C 
ATOM      8  C   UNL     1      34.074 -16.116 -25.349  0.00  0.00    +0.147 C 
ATOM      9  C   UNL     1      33.137 -13.263 -26.839  0.00  0.00    +0.164 C 
ATOM     10  C   UNL     1      33.796 -14.008 -23.394  0.00  0.00    +0.268 C 
ATOM     11  C   UNL     1      34.255 -15.384 -22.960  0.00  0.00    +0.143 C 
ATOM     12  C   UNL     1      34.372 -11.505 -25.499  0.00  0.00    +0.024 C 
ATOM     13  C   UNL     1      34.750 -17.664 -23.540  0.00  0.00    +0.074 C 
ATOM     14  C   UNL     1      34.511 -15.603 -21.652  0.00  0.00    +0.191 C 
ATOM     15  C   UNL     1      35.033 -18.020 -22.280  0.00  0.00    +0.110 C 
ATOM     16  C   UNL     1      34.941 -16.974 -21.228  0.00  0.00    +0.236 C 
ENDROOT
BRANCH  15  19
ATOM     17  O   UNL     1      35.244 -20.286 -22.861  0.00  0.00    -0.270 OA
ATOM     18  N   UNL     1      35.957 -19.589 -20.754  0.00  0.00    -0.297 N 
ATOM     19  C   UNL     1      35.413 -19.407 -22.015  0.00  0.00    +0.251 C 
ATOM     20  H   UNL     1      36.040 -18.804 -20.165  0.00  0.00    +0.150 HD
BRANCH  18  21
ATOM     21  C   UNL     1      36.407 -20.869 -20.256  0.00  0.00    +0.119 C 
BRANCH  21  24
ATOM     22  F   UNL     1      37.067 -22.405 -17.974  0.00  0.00    -0.204 F 
ATOM     23  F   UNL     1      32.530 -23.351 -17.013  0.00  0.00    -0.204 F 
ATOM     24  C   UNL     1      35.375 -21.531 -19.391  0.00  0.00    +0.025 C 
ATOM     25  C   UNL     1      35.768 -22.276 -18.279  0.00  0.00    +0.140 C 
ATOM     26  C   UNL     1      34.020 -21.402 -19.700  0.00  0.00    +0.002 C 
ATOM     27  C   UNL     1      34.808 -22.890 -17.475  0.00  0.00    +0.059 C 
ATOM     28  C   UNL     1      33.060 -22.017 -18.897  0.00  0.00    +0.030 C 
ATOM     29  C   UNL     1      33.453 -22.761 -17.784  0.00  0.00    +0.142 C 
ENDBRANCH  21  24
ENDBRANCH  18  21
ENDBRANCH  15  19
BRANCH  14  30
ATOM     30  O   UNL     1      34.413 -14.638 -20.677  0.00  0.00    -0.502 OA
ATOM     31  H   UNL     1      33.772 -14.720 -19.998  0.00  0.00    +0.292 HD
ENDBRANCH  14  30
TORSDOF 4
ENDMDL
