MODEL 1
REMARK VINA RESULT:     -11.0      0.000      0.000
REMARK  Name = 135565465
REMARK  7 active torsions:
REMARK  status: ('A' for Active; 'I' for Inactive)
REMARK    1  A    between atoms: N_2  and  C_9
REMARK    2  A    between atoms: N_2  and  O_21
REMARK    3  A    between atoms: C_3  and  C_23
REMARK    4  A    between atoms: C_10  and  C_14
REMARK    5  A    between atoms: C_23  and  C_24
REMARK    6  A    between atoms: C_24  and  C_25
REMARK    7  A    between atoms: C_25  and  N_27
REMARK                            x       y       z     vdW  Elec       q    Type
REMARK                         _______ _______ _______ _____ _____    ______ ____
ROOT
ATOM      1  O   UNL     1      35.934 -22.874 -16.911  0.00  0.00    -0.453 OA
ATOM      2  C   UNL     1      34.889 -20.801 -20.356  0.00  0.00    -0.040 C 
ATOM      3  C   UNL     1      33.875 -21.397 -19.599  0.00  0.00    +0.053 C 
ATOM      4  C   UNL     1      34.194 -22.102 -18.433  0.00  0.00    +0.036 C 
ATOM      5  C   UNL     1      36.219 -20.905 -19.955  0.00  0.00    -0.005 C 
ATOM      6  C   UNL     1      35.531 -22.202 -18.038  0.00  0.00    +0.143 C 
ATOM      7  C   UNL     1      36.542 -21.605 -18.796  0.00  0.00    +0.037 C 
ATOM      8  C   UNL     1      33.164 -22.750 -17.593  0.00  0.00    +0.110 C 
ATOM      9  C   UNL     1      34.973 -23.492 -16.131  0.00  0.00    +0.160 C 
ATOM     10  C   UNL     1      33.658 -23.466 -16.394  0.00  0.00    +0.060 C 
ENDROOT
BRANCH   9  13
ATOM     11  S   UNL     1      38.852 -25.840 -13.443  0.00  0.00    -0.091 S 
ATOM     12  N   UNL     1      34.647 -24.378 -13.933  0.00  0.00    -0.266 NA
ATOM     13  C   UNL     1      35.516 -24.183 -14.944  0.00  0.00    +0.093 C 
ATOM     14  C   UNL     1      36.841 -24.579 -14.935  0.00  0.00    +0.081 C 
ATOM     15  C   UNL     1      37.275 -25.227 -13.772  0.00  0.00    +0.011 C 
ATOM     16  C   UNL     1      36.407 -25.450 -12.698  0.00  0.00    +0.005 C 
ATOM     17  C   UNL     1      35.081 -25.004 -12.817  0.00  0.00    +0.152 C 
ATOM     18  C   UNL     1      37.074 -26.127 -11.624  0.00  0.00    +0.005 C 
ATOM     19  C   UNL     1      38.394 -26.396 -11.898  0.00  0.00    +0.035 C 
ENDBRANCH   9  13
BRANCH   8  20
ATOM     20  N   UNL     1      31.891 -22.730 -17.834  0.00  0.00    -0.135 NA
BRANCH  20  21
ATOM     21  O   UNL     1      31.216 -22.970 -16.637  0.00  0.00    -0.265 OA
ATOM     22  H   UNL     1      31.410 -23.737 -16.135  0.00  0.00    +0.247 HD
ENDBRANCH  20  21
ENDBRANCH   8  20
BRANCH   2  23
ATOM     23  C   UNL     1      34.543 -20.051 -21.598  0.00  0.00    +0.020 C 
BRANCH  23  24
ATOM     24  C   UNL     1      34.967 -18.576 -21.524  0.00  0.00    -0.018 C 
BRANCH  24  25
ATOM     25  C   UNL     1      35.971 -18.224 -22.621  0.00  0.00    -0.077 C 
BRANCH  25  27
ATOM     26  O   UNL     1      33.572 -15.193 -24.256  0.00  0.00    -0.358 OA
ATOM     27  N   UNL     1      35.552 -17.012 -23.322  0.00  0.00    +0.390 N 
ATOM     28  C   UNL     1      34.680 -17.341 -24.458  0.00  0.00    -0.045 C 
ATOM     29  C   UNL     1      34.862 -16.092 -22.408  0.00  0.00    -0.045 C 
ATOM     30  C   UNL     1      34.423 -14.842 -23.164  0.00  0.00    +0.119 C 
ATOM     31  C   UNL     1      34.247 -16.062 -25.166  0.00  0.00    +0.119 C 
ATOM     32  H   UNL     1      36.390 -16.551 -23.677  0.00  0.00    -0.079 HD
ENDBRANCH  25  27
ENDBRANCH  24  25
ENDBRANCH  23  24
ENDBRANCH   2  23
TORSDOF 7
ENDMDL
MODEL 2
REMARK VINA RESULT:     -11.0      4.784      8.784
REMARK  Name = 135565465
REMARK  7 active torsions:
REMARK  status: ('A' for Active; 'I' for Inactive)
REMARK    1  A    between atoms: N_2  and  C_9
REMARK    2  A    between atoms: N_2  and  O_21
REMARK    3  A    between atoms: C_3  and  C_23
REMARK    4  A    between atoms: C_10  and  C_14
REMARK    5  A    between atoms: C_23  and  C_24
REMARK    6  A    between atoms: C_24  and  C_25
REMARK    7  A    between atoms: C_25  and  N_27
REMARK                            x       y       z     vdW  Elec       q    Type
REMARK                         _______ _______ _______ _____ _____    ______ ____
ROOT
ATOM      1  O   UNL     1      34.721 -16.454 -21.471  0.00  0.00    -0.453 OA
ATOM      2  C   UNL     1      33.779 -12.910 -23.422  0.00  0.00    -0.040 C 
ATOM      3  C   UNL     1      34.081 -14.038 -24.191  0.00  0.00    +0.053 C 
ATOM      4  C   UNL     1      34.401 -15.248 -23.564  0.00  0.00    +0.036 C 
ATOM      5  C   UNL     1      33.797 -12.982 -22.031  0.00  0.00    -0.005 C 
ATOM      6  C   UNL     1      34.417 -15.312 -22.168  0.00  0.00    +0.143 C 
ATOM      7  C   UNL     1      34.116 -14.183 -21.402  0.00  0.00    +0.037 C 
ATOM      8  C   UNL     1      34.726 -16.473 -24.327  0.00  0.00    +0.110 C 
ATOM      9  C   UNL     1      35.038 -17.598 -22.182  0.00  0.00    +0.160 C 
ATOM     10  C   UNL     1      35.052 -17.673 -23.522  0.00  0.00    +0.060 C 
ENDROOT
BRANCH   9  13
ATOM     11  S   UNL     1      33.662 -21.848 -19.386  0.00  0.00    -0.091 S 
ATOM     12  N   UNL     1      36.649 -18.957 -21.052  0.00  0.00    -0.266 NA
ATOM     13  C   UNL     1      35.346 -18.767 -21.334  0.00  0.00    +0.093 C 
ATOM     14  C   UNL     1      34.315 -19.575 -20.891  0.00  0.00    +0.081 C 
ATOM     15  C   UNL     1      34.693 -20.661 -20.092  0.00  0.00    +0.011 C 
ATOM     16  C   UNL     1      36.034 -20.897 -19.774  0.00  0.00    +0.005 C 
ATOM     17  C   UNL     1      36.998 -20.011 -20.280  0.00  0.00    +0.152 C 
ATOM     18  C   UNL     1      36.175 -22.061 -18.948  0.00  0.00    +0.005 C 
ATOM     19  C   UNL     1      34.973 -22.666 -18.666  0.00  0.00    +0.035 C 
ENDBRANCH   9  13
BRANCH   8  20
ATOM     20  N   UNL     1      34.741 -16.559 -25.619  0.00  0.00    -0.135 NA
BRANCH  20  21
ATOM     21  O   UNL     1      33.425 -16.477 -26.077  0.00  0.00    -0.265 OA
ATOM     22  H   UNL     1      33.141 -15.722 -26.553  0.00  0.00    +0.247 HD
ENDBRANCH  20  21
ENDBRANCH   8  20
BRANCH   2  23
ATOM     23  C   UNL     1      33.438 -11.623 -24.096  0.00  0.00    +0.020 C 
BRANCH  23  24
ATOM     24  C   UNL     1      33.580 -10.418 -23.154  0.00  0.00    -0.018 C 
BRANCH  24  25
ATOM     25  C   UNL     1      32.336  -9.531 -23.183  0.00  0.00    -0.077 C 
BRANCH  25  27
ATOM     26  O   UNL     1      32.598  -8.747 -19.068  0.00  0.00    -0.358 OA
ATOM     27  N   UNL     1      32.014  -9.065 -21.836  0.00  0.00    +0.390 N 
ATOM     28  C   UNL     1      31.934 -10.194 -20.898  0.00  0.00    -0.045 C 
ATOM     29  C   UNL     1      33.011  -8.092 -21.368  0.00  0.00    -0.045 C 
ATOM     30  C   UNL     1      32.662  -7.630 -19.956  0.00  0.00    +0.119 C 
ATOM     31  C   UNL     1      31.609  -9.682 -19.498  0.00  0.00    +0.119 C 
ATOM     32  H   UNL     1      31.104  -8.607 -21.873  0.00  0.00    -0.079 HD
ENDBRANCH  25  27
ENDBRANCH  24  25
ENDBRANCH  23  24
ENDBRANCH   2  23
TORSDOF 7
ENDMDL
MODEL 3
REMARK VINA RESULT:     -10.9      3.089      4.244
REMARK  Name = 135565465
REMARK  7 active torsions:
REMARK  status: ('A' for Active; 'I' for Inactive)
REMARK    1  A    between atoms: N_2  and  C_9
REMARK    2  A    between atoms: N_2  and  O_21
REMARK    3  A    between atoms: C_3  and  C_23
REMARK    4  A    between atoms: C_10  and  C_14
REMARK    5  A    between atoms: C_23  and  C_24
REMARK    6  A    between atoms: C_24  and  C_25
REMARK    7  A    between atoms: C_25  and  N_27
REMARK                            x       y       z     vdW  Elec       q    Type
REMARK                         _______ _______ _______ _____ _____    ______ ____
ROOT
ATOM      1  O   UNL     1      32.924 -22.173 -18.266  0.00  0.00    -0.453 OA
ATOM      2  C   UNL     1      34.973 -20.087 -21.217  0.00  0.00    -0.040 C 
ATOM      3  C   UNL     1      35.709 -20.731 -20.218  0.00  0.00    +0.053 C 
ATOM      4  C   UNL     1      35.049 -21.443 -19.210  0.00  0.00    +0.036 C 
ATOM      5  C   UNL     1      33.581 -20.149 -21.215  0.00  0.00    -0.005 C 
ATOM      6  C   UNL     1      33.652 -21.500 -19.215  0.00  0.00    +0.143 C 
ATOM      7  C   UNL     1      32.919 -20.856 -20.214  0.00  0.00    +0.037 C 
ATOM      8  C   UNL     1      35.776 -22.145 -18.130  0.00  0.00    +0.110 C 
ATOM      9  C   UNL     1      33.601 -22.819 -17.248  0.00  0.00    +0.160 C 
ATOM     10  C   UNL     1      34.938 -22.848 -17.132  0.00  0.00    +0.060 C 
ENDROOT
BRANCH   9  13
ATOM     11  S   UNL     1      28.910 -24.592 -15.627  0.00  0.00    -0.091 S 
ATOM     12  N   UNL     1      33.327 -23.998 -15.185  0.00  0.00    -0.266 NA
ATOM     13  C   UNL     1      32.721 -23.512 -16.285  0.00  0.00    +0.093 C 
ATOM     14  C   UNL     1      31.369 -23.619 -16.556  0.00  0.00    +0.081 C 
ATOM     15  C   UNL     1      30.607 -24.290 -15.592  0.00  0.00    +0.011 C 
ATOM     16  C   UNL     1      31.194 -24.812 -14.436  0.00  0.00    +0.005 C 
ATOM     17  C   UNL     1      32.578 -24.644 -14.264  0.00  0.00    +0.152 C 
ATOM     18  C   UNL     1      30.219 -25.451 -13.601  0.00  0.00    +0.005 C 
ATOM     19  C   UNL     1      28.950 -25.404 -14.127  0.00  0.00    +0.035 C 
ENDBRANCH   9  13
BRANCH   8  20
ATOM     20  N   UNL     1      37.065 -22.182 -18.008  0.00  0.00    -0.135 NA
BRANCH  20  21
ATOM     21  O   UNL     1      37.457 -21.123 -17.189  0.00  0.00    -0.265 OA
ATOM     22  H   UNL     1      37.150 -20.256 -17.366  0.00  0.00    +0.247 HD
ENDBRANCH  20  21
ENDBRANCH   8  20
BRANCH   2  23
ATOM     23  C   UNL     1      35.682 -19.330 -22.289  0.00  0.00    +0.020 C 
BRANCH  23  24
ATOM     24  C   UNL     1      35.220 -17.867 -22.370  0.00  0.00    -0.018 C 
BRANCH  24  25
ATOM     25  C   UNL     1      34.913 -17.452 -23.809  0.00  0.00    -0.077 C 
BRANCH  25  27
ATOM     26  O   UNL     1      33.223 -13.615 -23.618  0.00  0.00    -0.358 OA
ATOM     27  N   UNL     1      34.748 -16.003 -23.895  0.00  0.00    +0.390 N 
ATOM     28  C   UNL     1      33.686 -15.653 -24.849  0.00  0.00    -0.045 C 
ATOM     29  C   UNL     1      34.445 -15.433 -22.575  0.00  0.00    -0.045 C 
ATOM     30  C   UNL     1      34.264 -13.922 -22.691  0.00  0.00    +0.119 C 
ATOM     31  C   UNL     1      33.525 -14.138 -24.912  0.00  0.00    +0.119 C 
ATOM     32  H   UNL     1      35.627 -15.607 -24.227  0.00  0.00    -0.079 HD
ENDBRANCH  25  27
ENDBRANCH  24  25
ENDBRANCH  23  24
ENDBRANCH   2  23
TORSDOF 7
ENDMDL
MODEL 4
REMARK VINA RESULT:     -10.8      3.944     11.186
REMARK  Name = 135565465
REMARK  7 active torsions:
REMARK  status: ('A' for Active; 'I' for Inactive)
REMARK    1  A    between atoms: N_2  and  C_9
REMARK    2  A    between atoms: N_2  and  O_21
REMARK    3  A    between atoms: C_3  and  C_23
REMARK    4  A    between atoms: C_10  and  C_14
REMARK    5  A    between atoms: C_23  and  C_24
REMARK    6  A    between atoms: C_24  and  C_25
REMARK    7  A    between atoms: C_25  and  N_27
REMARK                            x       y       z     vdW  Elec       q    Type
REMARK                         _______ _______ _______ _____ _____    ______ ____
ROOT
ATOM      1  O   UNL     1      34.017 -19.207 -21.615  0.00  0.00    -0.453 OA
ATOM      2  C   UNL     1      34.611 -22.138 -18.732  0.00  0.00    -0.040 C 
ATOM      3  C   UNL     1      35.711 -21.389 -19.162  0.00  0.00    +0.053 C 
ATOM      4  C   UNL     1      35.543 -20.393 -20.132  0.00  0.00    +0.036 C 
ATOM      5  C   UNL     1      33.346 -21.900 -19.264  0.00  0.00    -0.005 C 
ATOM      6  C   UNL     1      34.271 -20.161 -20.662  0.00  0.00    +0.143 C 
ATOM      7  C   UNL     1      33.175 -20.911 -20.229  0.00  0.00    +0.037 C 
ATOM      8  C   UNL     1      36.670 -19.569 -20.622  0.00  0.00    +0.110 C 
ATOM      9  C   UNL     1      35.070 -18.444 -22.085  0.00  0.00    +0.160 C 
ATOM     10  C   UNL     1      36.336 -18.561 -21.655  0.00  0.00    +0.060 C 
ENDROOT
BRANCH   9  13
ATOM     11  S   UNL     1      33.901 -13.548 -23.646  0.00  0.00    -0.091 S 
ATOM     12  N   UNL     1      34.503 -17.930 -24.351  0.00  0.00    -0.266 NA
ATOM     13  C   UNL     1      34.684 -17.449 -23.106  0.00  0.00    +0.093 C 
ATOM     14  C   UNL     1      34.534 -16.124 -22.740  0.00  0.00    +0.081 C 
ATOM     15  C   UNL     1      34.166 -15.247 -23.767  0.00  0.00    +0.011 C 
ATOM     16  C   UNL     1      33.968 -15.702 -25.074  0.00  0.00    +0.005 C 
ATOM     17  C   UNL     1      34.148 -17.070 -25.332  0.00  0.00    +0.152 C 
ATOM     18  C   UNL     1      33.598 -14.626 -25.947  0.00  0.00    +0.005 C 
ATOM     19  C   UNL     1      33.526 -13.414 -25.304  0.00  0.00    +0.035 C 
ENDBRANCH   9  13
BRANCH   8  20
ATOM     20  N   UNL     1      37.894 -19.671 -20.214  0.00  0.00    -0.135 NA
BRANCH  20  21
ATOM     21  O   UNL     1      38.084 -18.763 -19.172  0.00  0.00    -0.265 OA
ATOM     22  H   UNL     1      38.046 -19.055 -18.283  0.00  0.00    +0.247 HD
ENDBRANCH  20  21
ENDBRANCH   8  20
BRANCH   2  23
ATOM     23  C   UNL     1      34.795 -23.198 -17.698  0.00  0.00    +0.020 C 
BRANCH  23  24
ATOM     24  C   UNL     1      35.882 -22.830 -16.676  0.00  0.00    -0.018 C 
BRANCH  24  25
ATOM     25  C   UNL     1      35.713 -23.608 -15.371  0.00  0.00    -0.077 C 
BRANCH  25  27
ATOM     26  O   UNL     1      38.095 -26.754 -13.940  0.00  0.00    -0.358 OA
ATOM     27  N   UNL     1      36.651 -24.728 -15.323  0.00  0.00    +0.390 N 
ATOM     28  C   UNL     1      37.807 -24.406 -14.474  0.00  0.00    -0.045 C 
ATOM     29  C   UNL     1      35.989 -25.943 -14.830  0.00  0.00    -0.045 C 
ATOM     30  C   UNL     1      36.989 -27.094 -14.777  0.00  0.00    +0.119 C 
ATOM     31  C   UNL     1      38.765 -25.592 -14.431  0.00  0.00    +0.119 C 
ATOM     32  H   UNL     1      36.982 -24.899 -16.273  0.00  0.00    -0.079 HD
ENDBRANCH  25  27
ENDBRANCH  24  25
ENDBRANCH  23  24
ENDBRANCH   2  23
TORSDOF 7
ENDMDL
MODEL 5
REMARK VINA RESULT:     -10.7      5.261     12.420
REMARK  Name = 135565465
REMARK  7 active torsions:
REMARK  status: ('A' for Active; 'I' for Inactive)
REMARK    1  A    between atoms: N_2  and  C_9
REMARK    2  A    between atoms: N_2  and  O_21
REMARK    3  A    between atoms: C_3  and  C_23
REMARK    4  A    between atoms: C_10  and  C_14
REMARK    5  A    between atoms: C_23  and  C_24
REMARK    6  A    between atoms: C_24  and  C_25
REMARK    7  A    between atoms: C_25  and  N_27
REMARK                            x       y       z     vdW  Elec       q    Type
REMARK                         _______ _______ _______ _____ _____    ______ ____
ROOT
ATOM      1  O   UNL     1      33.788 -13.846 -21.974  0.00  0.00    -0.453 OA
ATOM      2  C   UNL     1      35.216 -17.711 -22.506  0.00  0.00    -0.040 C 
ATOM      3  C   UNL     1      34.823 -16.981 -23.632  0.00  0.00    +0.053 C 
ATOM      4  C   UNL     1      34.338 -15.676 -23.487  0.00  0.00    +0.036 C 
ATOM      5  C   UNL     1      35.129 -17.145 -21.236  0.00  0.00    -0.005 C 
ATOM      6  C   UNL     1      34.252 -15.116 -22.208  0.00  0.00    +0.143 C 
ATOM      7  C   UNL     1      34.646 -15.848 -21.086  0.00  0.00    +0.037 C 
ATOM      8  C   UNL     1      33.910 -14.857 -24.642  0.00  0.00    +0.110 C 
ATOM      9  C   UNL     1      33.375 -13.083 -23.051  0.00  0.00    +0.160 C 
ATOM     10  C   UNL     1      33.412 -13.498 -24.327  0.00  0.00    +0.060 C 
ENDROOT
BRANCH   9  13
ATOM     11  S   UNL     1      33.467  -7.826 -23.406  0.00  0.00    -0.091 S 
ATOM     12  N   UNL     1      31.902 -11.694 -21.778  0.00  0.00    -0.266 NA
ATOM     13  C   UNL     1      32.897 -11.734 -22.685  0.00  0.00    +0.093 C 
ATOM     14  C   UNL     1      33.478 -10.625 -23.272  0.00  0.00    +0.081 C 
ATOM     15  C   UNL     1      32.968  -9.386 -22.870  0.00  0.00    +0.011 C 
ATOM     16  C   UNL     1      31.935  -9.296 -21.932  0.00  0.00    +0.005 C 
ATOM     17  C   UNL     1      31.419 -10.489 -21.400  0.00  0.00    +0.152 C 
ATOM     18  C   UNL     1      31.581  -7.929 -21.678  0.00  0.00    +0.005 C 
ATOM     19  C   UNL     1      32.331  -7.038 -22.408  0.00  0.00    +0.035 C 
ENDBRANCH   9  13
BRANCH   8  20
ATOM     20  N   UNL     1      33.943 -15.244 -25.877  0.00  0.00    -0.135 NA
BRANCH  20  21
ATOM     21  O   UNL     1      32.761 -15.932 -26.152  0.00  0.00    -0.265 OA
ATOM     22  H   UNL     1      32.491 -16.638 -25.599  0.00  0.00    +0.247 HD
ENDBRANCH  20  21
ENDBRANCH   8  20
BRANCH   2  23
ATOM     23  C   UNL     1      35.733 -19.101 -22.668  0.00  0.00    +0.020 C 
BRANCH  23  24
ATOM     24  C   UNL     1      34.962 -20.111 -21.804  0.00  0.00    -0.018 C 
BRANCH  24  25
ATOM     25  C   UNL     1      35.772 -20.539 -20.581  0.00  0.00    -0.077 C 
BRANCH  25  27
ATOM     26  O   UNL     1      32.971 -22.885 -18.515  0.00  0.00    -0.358 OA
ATOM     27  N   UNL     1      34.884 -21.039 -19.534  0.00  0.00    +0.390 N 
ATOM     28  C   UNL     1      33.485 -21.025 -19.984  0.00  0.00    -0.045 C 
ATOM     29  C   UNL     1      35.267 -22.399 -19.129  0.00  0.00    -0.045 C 
ATOM     30  C   UNL     1      34.319 -22.904 -18.046  0.00  0.00    +0.119 C 
ATOM     31  C   UNL     1      32.579 -21.561 -18.880  0.00  0.00    +0.119 C 
ATOM     32  H   UNL     1      34.973 -20.422 -18.727  0.00  0.00    -0.079 HD
ENDBRANCH  25  27
ENDBRANCH  24  25
ENDBRANCH  23  24
ENDBRANCH   2  23
TORSDOF 7
ENDMDL
MODEL 6
REMARK VINA RESULT:     -10.0      8.066     15.161
REMARK  Name = 135565465
REMARK  7 active torsions:
REMARK  status: ('A' for Active; 'I' for Inactive)
REMARK    1  A    between atoms: N_2  and  C_9
REMARK    2  A    between atoms: N_2  and  O_21
REMARK    3  A    between atoms: C_3  and  C_23
REMARK    4  A    between atoms: C_10  and  C_14
REMARK    5  A    between atoms: C_23  and  C_24
REMARK    6  A    between atoms: C_24  and  C_25
REMARK    7  A    between atoms: C_25  and  N_27
REMARK                            x       y       z     vdW  Elec       q    Type
REMARK                         _______ _______ _______ _____ _____    ______ ____
ROOT
ATOM      1  O   UNL     1      31.592  -9.391 -21.458  0.00  0.00    -0.453 OA
ATOM      2  C   UNL     1      32.263 -13.425 -20.725  0.00  0.00    -0.040 C 
ATOM      3  C   UNL     1      32.831 -12.847 -21.864  0.00  0.00    +0.053 C 
ATOM      4  C   UNL     1      32.625 -11.490 -22.139  0.00  0.00    +0.036 C 
ATOM      5  C   UNL     1      31.489 -12.656 -19.859  0.00  0.00    -0.005 C 
ATOM      6  C   UNL     1      31.846 -10.726 -21.265  0.00  0.00    +0.143 C 
ATOM      7  C   UNL     1      31.280 -11.306 -20.128  0.00  0.00    +0.037 C 
ATOM      8  C   UNL     1      33.203 -10.827 -23.328  0.00  0.00    +0.110 C 
ATOM      9  C   UNL     1      32.120  -8.771 -22.576  0.00  0.00    +0.160 C 
ATOM     10  C   UNL     1      32.888  -9.388 -23.487  0.00  0.00    +0.060 C 
ENDROOT
BRANCH   9  13
ATOM     11  S   UNL     1      32.434  -4.049 -24.894  0.00  0.00    -0.091 S 
ATOM     12  N   UNL     1      30.963  -6.856 -21.730  0.00  0.00    -0.266 NA
ATOM     13  C   UNL     1      31.786  -7.337 -22.683  0.00  0.00    +0.093 C 
ATOM     14  C   UNL     1      32.317  -6.590 -23.719  0.00  0.00    +0.081 C 
ATOM     15  C   UNL     1      31.950  -5.240 -23.746  0.00  0.00    +0.011 C 
ATOM     16  C   UNL     1      31.099  -4.699 -22.778  0.00  0.00    +0.005 C 
ATOM     17  C   UNL     1      30.618  -5.550 -21.771  0.00  0.00    +0.152 C 
ATOM     18  C   UNL     1      30.868  -3.303 -23.012  0.00  0.00    +0.005 C 
ATOM     19  C   UNL     1      31.529  -2.828 -24.120  0.00  0.00    +0.035 C 
ENDBRANCH   9  13
BRANCH   8  20
ATOM     20  N   UNL     1      33.948 -11.409 -24.213  0.00  0.00    -0.135 NA
BRANCH  20  21
ATOM     21  O   UNL     1      35.153 -10.711 -24.298  0.00  0.00    -0.265 OA
ATOM     22  H   UNL     1      35.150  -9.794 -24.490  0.00  0.00    +0.247 HD
ENDBRANCH  20  21
ENDBRANCH   8  20
BRANCH   2  23
ATOM     23  C   UNL     1      32.487 -14.871 -20.437  0.00  0.00    +0.020 C 
BRANCH  23  24
ATOM     24  C   UNL     1      33.978 -15.212 -20.295  0.00  0.00    -0.018 C 
BRANCH  24  25
ATOM     25  C   UNL     1      34.627 -15.475 -21.654  0.00  0.00    -0.077 C 
BRANCH  25  27
ATOM     26  O   UNL     1      35.576 -19.405 -22.781  0.00  0.00    -0.358 OA
ATOM     27  N   UNL     1      34.496 -16.885 -22.014  0.00  0.00    +0.390 N 
ATOM     28  C   UNL     1      34.996 -17.126 -23.375  0.00  0.00    -0.045 C 
ATOM     29  C   UNL     1      35.216 -17.737 -21.057  0.00  0.00    -0.045 C 
ATOM     30  C   UNL     1      35.077 -19.202 -21.459  0.00  0.00    +0.119 C 
ATOM     31  C   UNL     1      34.860 -18.605 -23.723  0.00  0.00    +0.119 C 
ATOM     32  H   UNL     1      33.506 -17.125 -21.983  0.00  0.00    -0.079 HD
ENDBRANCH  25  27
ENDBRANCH  24  25
ENDBRANCH  23  24
ENDBRANCH   2  23
TORSDOF 7
ENDMDL
MODEL 7
REMARK VINA RESULT:      -9.9      8.701     15.337
REMARK  Name = 135565465
REMARK  7 active torsions:
REMARK  status: ('A' for Active; 'I' for Inactive)
REMARK    1  A    between atoms: N_2  and  C_9
REMARK    2  A    between atoms: N_2  and  O_21
REMARK    3  A    between atoms: C_3  and  C_23
REMARK    4  A    between atoms: C_10  and  C_14
REMARK    5  A    between atoms: C_23  and  C_24
REMARK    6  A    between atoms: C_24  and  C_25
REMARK    7  A    between atoms: C_25  and  N_27
REMARK                            x       y       z     vdW  Elec       q    Type
REMARK                         _______ _______ _______ _____ _____    ______ ____
ROOT
ATOM      1  O   UNL     1      31.584  -9.005 -21.396  0.00  0.00    -0.453 OA
ATOM      2  C   UNL     1      32.024 -12.966 -20.224  0.00  0.00    -0.040 C 
ATOM      3  C   UNL     1      32.609 -12.554 -21.425  0.00  0.00    +0.053 C 
ATOM      4  C   UNL     1      32.480 -11.226 -21.847  0.00  0.00    +0.036 C 
ATOM      5  C   UNL     1      31.310 -12.061 -19.442  0.00  0.00    -0.005 C 
ATOM      6  C   UNL     1      31.761 -10.323 -21.058  0.00  0.00    +0.143 C 
ATOM      7  C   UNL     1      31.178 -10.738 -19.858  0.00  0.00    +0.037 C 
ATOM      8  C   UNL     1      33.079 -10.734 -23.107  0.00  0.00    +0.110 C 
ATOM      9  C   UNL     1      32.133  -8.546 -22.580  0.00  0.00    +0.160 C 
ATOM     10  C   UNL     1      32.849  -9.305 -23.422  0.00  0.00    +0.060 C 
ENDROOT
BRANCH   9  13
ATOM     11  S   UNL     1      32.736  -4.124 -25.383  0.00  0.00    -0.091 S 
ATOM     12  N   UNL     1      31.084  -6.488 -21.957  0.00  0.00    -0.266 NA
ATOM     13  C   UNL     1      31.883  -7.114 -22.843  0.00  0.00    +0.093 C 
ATOM     14  C   UNL     1      32.464  -6.515 -23.945  0.00  0.00    +0.081 C 
ATOM     15  C   UNL     1      32.176  -5.156 -24.121  0.00  0.00    +0.011 C 
ATOM     16  C   UNL     1      31.352  -4.466 -23.227  0.00  0.00    +0.005 C 
ATOM     17  C   UNL     1      30.816  -5.176 -22.141  0.00  0.00    +0.152 C 
ATOM     18  C   UNL     1      31.204  -3.093 -23.611  0.00  0.00    +0.005 C 
ATOM     19  C   UNL     1      31.899  -2.778 -24.755  0.00  0.00    +0.035 C 
ENDBRANCH   9  13
BRANCH   8  20
ATOM     20  N   UNL     1      33.774 -11.456 -23.928  0.00  0.00    -0.135 NA
BRANCH  20  21
ATOM     21  O   UNL     1      34.967 -10.783 -24.198  0.00  0.00    -0.265 OA
ATOM     22  H   UNL     1      35.125  -9.941 -23.821  0.00  0.00    +0.247 HD
ENDBRANCH  20  21
ENDBRANCH   8  20
BRANCH   2  23
ATOM     23  C   UNL     1      32.165 -14.383 -19.779  0.00  0.00    +0.020 C 
BRANCH  23  24
ATOM     24  C   UNL     1      32.831 -15.265 -20.846  0.00  0.00    -0.018 C 
BRANCH  24  25
ATOM     25  C   UNL     1      34.308 -15.504 -20.537  0.00  0.00    -0.077 C 
BRANCH  25  27
ATOM     26  O   UNL     1      34.972 -17.924 -23.902  0.00  0.00    -0.358 OA
ATOM     27  N   UNL     1      34.963 -16.162 -21.666  0.00  0.00    +0.390 N 
ATOM     28  C   UNL     1      34.959 -17.621 -21.495  0.00  0.00    -0.045 C 
ATOM     29  C   UNL     1      34.308 -15.802 -22.931  0.00  0.00    -0.045 C 
ATOM     30  C   UNL     1      34.999 -16.509 -24.093  0.00  0.00    +0.119 C 
ATOM     31  C   UNL     1      35.636 -18.285 -22.690  0.00  0.00    +0.119 C 
ATOM     32  H   UNL     1      35.930 -15.840 -21.697  0.00  0.00    -0.079 HD
ENDBRANCH  25  27
ENDBRANCH  24  25
ENDBRANCH  23  24
ENDBRANCH   2  23
TORSDOF 7
ENDMDL
MODEL 8
REMARK VINA RESULT:      -9.9      3.889     10.912
REMARK  Name = 135565465
REMARK  7 active torsions:
REMARK  status: ('A' for Active; 'I' for Inactive)
REMARK    1  A    between atoms: N_2  and  C_9
REMARK    2  A    between atoms: N_2  and  O_21
REMARK    3  A    between atoms: C_3  and  C_23
REMARK    4  A    between atoms: C_10  and  C_14
REMARK    5  A    between atoms: C_23  and  C_24
REMARK    6  A    between atoms: C_24  and  C_25
REMARK    7  A    between atoms: C_25  and  N_27
REMARK                            x       y       z     vdW  Elec       q    Type
REMARK                         _______ _______ _______ _____ _____    ______ ____
ROOT
ATOM      1  O   UNL     1      33.974 -19.160 -21.500  0.00  0.00    -0.453 OA
ATOM      2  C   UNL     1      34.414 -22.293 -18.808  0.00  0.00    -0.040 C 
ATOM      3  C   UNL     1      35.545 -21.551 -19.164  0.00  0.00    +0.053 C 
ATOM      4  C   UNL     1      35.430 -20.489 -20.068  0.00  0.00    +0.036 C 
ATOM      5  C   UNL     1      33.170 -21.980 -19.350  0.00  0.00    -0.005 C 
ATOM      6  C   UNL     1      34.178 -20.182 -20.608  0.00  0.00    +0.143 C 
ATOM      7  C   UNL     1      33.050 -20.925 -20.250  0.00  0.00    +0.037 C 
ATOM      8  C   UNL     1      36.591 -19.669 -20.478  0.00  0.00    +0.110 C 
ATOM      9  C   UNL     1      35.061 -18.400 -21.896  0.00  0.00    +0.160 C 
ATOM     10  C   UNL     1      36.312 -18.585 -21.448  0.00  0.00    +0.060 C 
ENDROOT
BRANCH   9  13
ATOM     11  S   UNL     1      33.976 -13.394 -23.133  0.00  0.00    -0.091 S 
ATOM     12  N   UNL     1      34.610 -17.711 -24.141  0.00  0.00    -0.266 NA
ATOM     13  C   UNL     1      34.728 -17.328 -22.855  0.00  0.00    +0.093 C 
ATOM     14  C   UNL     1      34.560 -16.034 -22.397  0.00  0.00    +0.081 C 
ATOM     15  C   UNL     1      34.246 -15.079 -23.371  0.00  0.00    +0.011 C 
ATOM     16  C   UNL     1      34.115 -15.431 -24.717  0.00  0.00    +0.005 C 
ATOM     17  C   UNL     1      34.307 -16.777 -25.070  0.00  0.00    +0.152 C 
ATOM     18  C   UNL     1      33.791 -14.290 -25.523  0.00  0.00    +0.005 C 
ATOM     19  C   UNL     1      33.687 -13.130 -24.793  0.00  0.00    +0.035 C 
ENDBRANCH   9  13
BRANCH   8  20
ATOM     20  N   UNL     1      37.803 -19.836 -20.052  0.00  0.00    -0.135 NA
BRANCH  20  21
ATOM     21  O   UNL     1      38.098 -18.803 -19.162  0.00  0.00    -0.265 OA
ATOM     22  H   UNL     1      38.967 -18.455 -19.120  0.00  0.00    +0.247 HD
ENDBRANCH  20  21
ENDBRANCH   8  20
BRANCH   2  23
ATOM     23  C   UNL     1      34.543 -23.424 -17.844  0.00  0.00    +0.020 C 
BRANCH  23  24
ATOM     24  C   UNL     1      34.687 -22.938 -16.394  0.00  0.00    -0.018 C 
BRANCH  24  25
ATOM     25  C   UNL     1      34.594 -24.096 -15.401  0.00  0.00    -0.077 C 
BRANCH  25  27
ATOM     26  O   UNL     1      31.013 -23.983 -13.215  0.00  0.00    -0.358 OA
ATOM     27  N   UNL     1      33.205 -24.311 -15.001  0.00  0.00    +0.390 N 
ATOM     28  C   UNL     1      33.135 -25.040 -13.726  0.00  0.00    -0.045 C 
ATOM     29  C   UNL     1      32.491 -23.033 -14.888  0.00  0.00    -0.045 C 
ATOM     30  C   UNL     1      31.048 -23.281 -14.458  0.00  0.00    +0.119 C 
ATOM     31  C   UNL     1      31.678 -25.242 -13.325  0.00  0.00    +0.119 C 
ATOM     32  H   UNL     1      32.756 -24.873 -15.723  0.00  0.00    -0.079 HD
ENDBRANCH  25  27
ENDBRANCH  24  25
ENDBRANCH  23  24
ENDBRANCH   2  23
TORSDOF 7
ENDMDL
MODEL 9
REMARK VINA RESULT:      -9.8      3.414     10.418
REMARK  Name = 135565465
REMARK  7 active torsions:
REMARK  status: ('A' for Active; 'I' for Inactive)
REMARK    1  A    between atoms: N_2  and  C_9
REMARK    2  A    between atoms: N_2  and  O_21
REMARK    3  A    between atoms: C_3  and  C_23
REMARK    4  A    between atoms: C_10  and  C_14
REMARK    5  A    between atoms: C_23  and  C_24
REMARK    6  A    between atoms: C_24  and  C_25
REMARK    7  A    between atoms: C_25  and  N_27
REMARK                            x       y       z     vdW  Elec       q    Type
REMARK                         _______ _______ _______ _____ _____    ______ ____
ROOT
ATOM      1  O   UNL     1      33.865 -21.107 -19.759  0.00  0.00    -0.453 OA
ATOM      2  C   UNL     1      33.639 -23.584 -16.431  0.00  0.00    -0.040 C 
ATOM      3  C   UNL     1      34.890 -23.092 -16.818  0.00  0.00    +0.053 C 
ATOM      4  C   UNL     1      35.000 -22.255 -17.934  0.00  0.00    +0.036 C 
ATOM      5  C   UNL     1      32.497 -23.244 -17.153  0.00  0.00    -0.005 C 
ATOM      6  C   UNL     1      33.849 -21.920 -18.653  0.00  0.00    +0.143 C 
ATOM      7  C   UNL     1      32.601 -22.411 -18.265  0.00  0.00    +0.037 C 
ATOM      8  C   UNL     1      36.296 -21.706 -18.387  0.00  0.00    +0.110 C 
ATOM      9  C   UNL     1      35.077 -20.602 -20.192  0.00  0.00    +0.160 C 
ATOM     10  C   UNL     1      36.252 -20.841 -19.589  0.00  0.00    +0.060 C 
ENDROOT
BRANCH   9  13
ATOM     11  S   UNL     1      34.885 -15.906 -22.576  0.00  0.00    -0.091 S 
ATOM     12  N   UNL     1      34.876 -20.384 -22.566  0.00  0.00    -0.266 NA
ATOM     13  C   UNL     1      34.978 -19.740 -21.387  0.00  0.00    +0.093 C 
ATOM     14  C   UNL     1      34.993 -18.365 -21.236  0.00  0.00    +0.081 C 
ATOM     15  C   UNL     1      34.894 -17.622 -22.418  0.00  0.00    +0.011 C 
ATOM     16  C   UNL     1      34.787 -18.249 -23.663  0.00  0.00    +0.005 C 
ATOM     17  C   UNL     1      34.781 -19.652 -23.698  0.00  0.00    +0.152 C 
ATOM     18  C   UNL     1      34.698 -17.287 -24.723  0.00  0.00    +0.005 C 
ATOM     19  C   UNL     1      34.739 -15.988 -24.273  0.00  0.00    +0.035 C 
ENDBRANCH   9  13
BRANCH   8  20
ATOM     20  N   UNL     1      37.435 -21.926 -17.812  0.00  0.00    -0.135 NA
BRANCH  20  21
ATOM     21  O   UNL     1      37.676 -20.890 -16.908  0.00  0.00    -0.265 OA
ATOM     22  H   UNL     1      37.981 -21.084 -16.044  0.00  0.00    +0.247 HD
ENDBRANCH  20  21
ENDBRANCH   8  20
BRANCH   2  23
ATOM     23  C   UNL     1      33.528 -24.475 -15.241  0.00  0.00    +0.020 C 
BRANCH  23  24
ATOM     24  C   UNL     1      34.875 -24.661 -14.526  0.00  0.00    -0.018 C 
BRANCH  24  25
ATOM     25  C   UNL     1      34.708 -24.682 -13.007  0.00  0.00    -0.077 C 
BRANCH  25  27
ATOM     26  O   UNL     1      38.838 -24.611 -12.259  0.00  0.00    -0.358 OA
ATOM     27  N   UNL     1      36.004 -24.865 -12.356  0.00  0.00    +0.390 N 
ATOM     28  C   UNL     1      36.881 -25.718 -13.171  0.00  0.00    -0.045 C 
ATOM     29  C   UNL     1      36.651 -23.570 -12.108  0.00  0.00    -0.045 C 
ATOM     30  C   UNL     1      38.006 -23.786 -11.442  0.00  0.00    +0.119 C 
ATOM     31  C   UNL     1      38.230 -25.885 -12.478  0.00  0.00    +0.119 C 
ATOM     32  H   UNL     1      35.842 -25.325 -11.461  0.00  0.00    -0.079 HD
ENDBRANCH  25  27
ENDBRANCH  24  25
ENDBRANCH  23  24
ENDBRANCH   2  23
TORSDOF 7
ENDMDL
