MODEL 1
REMARK VINA RESULT:     -11.6      0.000      0.000
REMARK  Name = 90311989
REMARK  4 active torsions:
REMARK  status: ('A' for Active; 'I' for Inactive)
REMARK    1  A    between atoms: C_16  and  O_33
REMARK    2  A    between atoms: C_17  and  C_21
REMARK    3  A    between atoms: N_20  and  C_23
REMARK    4  A    between atoms: C_23  and  C_27
REMARK                            x       y       z     vdW  Elec       q    Type
REMARK                         _______ _______ _______ _____ _____    ______ ____
ROOT
ATOM      1  O   UNL     1      33.330  -9.072 -23.638  0.00  0.00    -0.339 OA
ATOM      2  O   UNL     1      30.980 -11.611 -20.406  0.00  0.00    -0.268 OA
ATOM      3  O   UNL     1      33.437 -16.064 -20.663  0.00  0.00    -0.283 OA
ATOM      4  N   UNL     1      32.196 -10.325 -21.893  0.00  0.00    -0.253 N 
ATOM      5  N   UNL     1      33.420 -12.658 -22.861  0.00  0.00    -0.275 N 
ATOM      6  C   UNL     1      31.568  -9.063 -21.473  0.00  0.00    +0.080 C 
ATOM      7  C   UNL     1      32.748  -7.891 -23.077  0.00  0.00    +0.119 C 
ATOM      8  C   UNL     1      31.311  -8.209 -22.705  0.00  0.00    +0.049 C 
ATOM      9  C   UNL     1      32.573  -8.219 -20.677  0.00  0.00    +0.022 C 
ATOM     10  C   UNL     1      33.405  -7.497 -21.748  0.00  0.00    +0.031 C 
ATOM     11  C   UNL     1      33.354 -10.232 -22.789  0.00  0.00    +0.215 C 
ATOM     12  C   UNL     1      33.404 -11.454 -23.687  0.00  0.00    +0.147 C 
ATOM     13  C   UNL     1      31.867 -11.521 -21.254  0.00  0.00    +0.267 C 
ATOM     14  C   UNL     1      32.671 -12.731 -21.679  0.00  0.00    +0.143 C 
ATOM     15  C   UNL     1      34.128 -13.777 -23.275  0.00  0.00    +0.074 C 
ATOM     16  C   UNL     1      32.637 -13.839 -20.907  0.00  0.00    +0.191 C 
ATOM     17  C   UNL     1      34.183 -14.938 -22.611  0.00  0.00    +0.110 C 
ATOM     18  C   UNL     1      33.424 -15.039 -21.337  0.00  0.00    +0.236 C 
ENDROOT
BRANCH  17  21
ATOM     19  O   UNL     1      35.758 -15.835 -24.104  0.00  0.00    -0.270 OA
ATOM     20  N   UNL     1      34.742 -17.247 -22.551  0.00  0.00    -0.297 N 
ATOM     21  C   UNL     1      34.976 -16.031 -23.173  0.00  0.00    +0.251 C 
ATOM     22  H   UNL     1      34.090 -17.276 -21.815  0.00  0.00    +0.150 HD
BRANCH  20  23
ATOM     23  C   UNL     1      35.405 -18.475 -22.928  0.00  0.00    +0.121 C 
BRANCH  23  27
ATOM     24  F   UNL     1      37.951 -18.598 -21.702  0.00  0.00    -0.204 F 
ATOM     25  F   UNL     1      33.458 -20.131 -21.719  0.00  0.00    -0.204 F 
ATOM     26  F   UNL     1      36.502 -21.737 -18.472  0.00  0.00    -0.204 F 
ATOM     27  C   UNL     1      35.697 -19.343 -21.740  0.00  0.00    +0.053 C 
ATOM     28  C   UNL     1      36.976 -19.358 -21.183  0.00  0.00    +0.142 C 
ATOM     29  C   UNL     1      34.690 -20.138 -21.191  0.00  0.00    +0.142 C 
ATOM     30  C   UNL     1      37.248 -20.167 -20.079  0.00  0.00    +0.059 C 
ATOM     31  C   UNL     1      34.962 -20.945 -20.087  0.00  0.00    +0.059 C 
ATOM     32  C   UNL     1      36.240 -20.960 -19.532  0.00  0.00    +0.145 C 
ENDBRANCH  23  27
ENDBRANCH  20  23
ENDBRANCH  17  21
BRANCH  16  33
ATOM     33  O   UNL     1      31.930 -13.940 -19.729  0.00  0.00    -0.502 OA
ATOM     34  H   UNL     1      31.079 -14.332 -19.727  0.00  0.00    +0.292 HD
ENDBRANCH  16  33
TORSDOF 4
ENDMDL
MODEL 2
REMARK VINA RESULT:     -10.9      1.994      3.730
REMARK  Name = 90311989
REMARK  4 active torsions:
REMARK  status: ('A' for Active; 'I' for Inactive)
REMARK    1  A    between atoms: C_16  and  O_33
REMARK    2  A    between atoms: C_17  and  C_21
REMARK    3  A    between atoms: N_20  and  C_23
REMARK    4  A    between atoms: C_23  and  C_27
REMARK                            x       y       z     vdW  Elec       q    Type
REMARK                         _______ _______ _______ _____ _____    ______ ____
ROOT
ATOM      1  O   UNL     1      32.289 -12.806 -19.454  0.00  0.00    -0.339 OA
ATOM      2  O   UNL     1      33.365 -12.234 -24.029  0.00  0.00    -0.268 OA
ATOM      3  O   UNL     1      34.845 -16.940 -25.296  0.00  0.00    -0.283 OA
ATOM      4  N   UNL     1      32.722 -12.529 -21.827  0.00  0.00    -0.253 N 
ATOM      5  N   UNL     1      33.996 -15.029 -21.822  0.00  0.00    -0.275 N 
ATOM      6  C   UNL     1      32.071 -11.213 -21.736  0.00  0.00    +0.080 C 
ATOM      7  C   UNL     1      31.583 -11.562 -19.504  0.00  0.00    +0.119 C 
ATOM      8  C   UNL     1      32.379 -10.606 -20.375  0.00  0.00    +0.049 C 
ATOM      9  C   UNL     1      30.546 -11.386 -21.693  0.00  0.00    +0.022 C 
ATOM     10  C   UNL     1      30.233 -11.691 -20.220  0.00  0.00    +0.031 C 
ATOM     11  C   UNL     1      32.512 -13.460 -20.714  0.00  0.00    +0.215 C 
ATOM     12  C   UNL     1      33.730 -14.351 -20.557  0.00  0.00    +0.147 C 
ATOM     13  C   UNL     1      33.282 -12.953 -23.033  0.00  0.00    +0.267 C 
ATOM     14  C   UNL     1      33.806 -14.373 -23.045  0.00  0.00    +0.143 C 
ATOM     15  C   UNL     1      34.512 -16.318 -21.827  0.00  0.00    +0.074 C 
ATOM     16  C   UNL     1      34.072 -14.958 -24.234  0.00  0.00    +0.191 C 
ATOM     17  C   UNL     1      34.821 -17.015 -22.926  0.00  0.00    +0.110 C 
ATOM     18  C   UNL     1      34.601 -16.360 -24.243  0.00  0.00    +0.236 C 
ENDROOT
BRANCH  17  21
ATOM     19  O   UNL     1      35.450 -19.128 -23.738  0.00  0.00    -0.270 OA
ATOM     20  N   UNL     1      35.719 -18.664 -21.469  0.00  0.00    -0.297 N 
ATOM     21  C   UNL     1      35.355 -18.369 -22.772  0.00  0.00    +0.251 C 
ATOM     22  H   UNL     1      35.595 -17.969 -20.782  0.00  0.00    +0.150 HD
BRANCH  20  23
ATOM     23  C   UNL     1      36.272 -19.937 -21.064  0.00  0.00    +0.121 C 
BRANCH  23  27
ATOM     24  F   UNL     1      33.466 -19.627 -21.246  0.00  0.00    -0.204 F 
ATOM     25  F   UNL     1      37.101 -21.867 -19.172  0.00  0.00    -0.204 F 
ATOM     26  F   UNL     1      32.655 -22.899 -17.927  0.00  0.00    -0.204 F 
ATOM     27  C   UNL     1      35.308 -20.727 -20.229  0.00  0.00    +0.053 C 
ATOM     28  C   UNL     1      33.934 -20.524 -20.368  0.00  0.00    +0.142 C 
ATOM     29  C   UNL     1      35.784 -21.665 -19.313  0.00  0.00    +0.142 C 
ATOM     30  C   UNL     1      33.039 -21.258 -19.590  0.00  0.00    +0.059 C 
ATOM     31  C   UNL     1      34.888 -22.399 -18.536  0.00  0.00    +0.059 C 
ATOM     32  C   UNL     1      33.516 -22.195 -18.674  0.00  0.00    +0.145 C 
ENDBRANCH  23  27
ENDBRANCH  20  23
ENDBRANCH  17  21
BRANCH  16  33
ATOM     33  O   UNL     1      33.876 -14.353 -25.456  0.00  0.00    -0.502 OA
ATOM     34  H   UNL     1      34.074 -13.444 -25.564  0.00  0.00    +0.292 HD
ENDBRANCH  16  33
TORSDOF 4
ENDMDL
MODEL 3
REMARK VINA RESULT:     -10.3      4.234      9.941
REMARK  Name = 90311989
REMARK  4 active torsions:
REMARK  status: ('A' for Active; 'I' for Inactive)
REMARK    1  A    between atoms: C_16  and  O_33
REMARK    2  A    between atoms: C_17  and  C_21
REMARK    3  A    between atoms: N_20  and  C_23
REMARK    4  A    between atoms: C_23  and  C_27
REMARK                            x       y       z     vdW  Elec       q    Type
REMARK                         _______ _______ _______ _____ _____    ______ ____
ROOT
ATOM      1  O   UNL     1      34.562 -18.442 -20.402  0.00  0.00    -0.339 OA
ATOM      2  O   UNL     1      34.846 -16.199 -24.562  0.00  0.00    -0.268 OA
ATOM      3  O   UNL     1      33.179 -11.555 -23.300  0.00  0.00    -0.283 OA
ATOM      4  N   UNL     1      34.827 -17.270 -22.513  0.00  0.00    -0.253 N 
ATOM      5  N   UNL     1      33.291 -15.167 -21.463  0.00  0.00    -0.275 N 
ATOM      6  C   UNL     1      35.590 -18.430 -22.998  0.00  0.00    +0.080 C 
ATOM      7  C   UNL     1      35.408 -19.464 -20.940  0.00  0.00    +0.119 C 
ATOM      8  C   UNL     1      35.004 -19.693 -22.386  0.00  0.00    +0.049 C 
ATOM      9  C   UNL     1      37.011 -18.399 -22.419  0.00  0.00    +0.022 C 
ATOM     10  C   UNL     1      36.873 -19.020 -21.020  0.00  0.00    +0.031 C 
ATOM     11  C   UNL     1      34.608 -17.168 -21.066  0.00  0.00    +0.215 C 
ATOM     12  C   UNL     1      33.289 -16.466 -20.797  0.00  0.00    +0.147 C 
ATOM     13  C   UNL     1      34.564 -16.195 -23.364  0.00  0.00    +0.267 C 
ATOM     14  C   UNL     1      33.888 -15.004 -22.721  0.00  0.00    +0.143 C 
ATOM     15  C   UNL     1      32.637 -14.087 -20.888  0.00  0.00    +0.074 C 
ATOM     16  C   UNL     1      33.881 -13.825 -23.381  0.00  0.00    +0.191 C 
ATOM     17  C   UNL     1      32.551 -12.866 -21.428  0.00  0.00    +0.110 C 
ATOM     18  C   UNL     1      33.201 -12.649 -22.748  0.00  0.00    +0.236 C 
ENDROOT
BRANCH  17  21
ATOM     19  O   UNL     1      30.786 -12.080 -20.092  0.00  0.00    -0.270 OA
ATOM     20  N   UNL     1      32.438 -10.583 -20.777  0.00  0.00    -0.297 N 
ATOM     21  C   UNL     1      31.828 -11.824 -20.698  0.00  0.00    +0.251 C 
ATOM     22  H   UNL     1      33.272 -10.506 -21.295  0.00  0.00    +0.150 HD
BRANCH  20  23
ATOM     23  C   UNL     1      31.914  -9.396 -20.140  0.00  0.00    +0.121 C 
BRANCH  23  27
ATOM     24  F   UNL     1      30.797  -9.524 -22.736  0.00  0.00    -0.204 F 
ATOM     25  F   UNL     1      32.972  -6.864 -19.460  0.00  0.00    -0.204 F 
ATOM     26  F   UNL     1      31.813  -4.995 -23.649  0.00  0.00    -0.204 F 
ATOM     27  C   UNL     1      31.886  -8.223 -21.075  0.00  0.00    +0.053 C 
ATOM     28  C   UNL     1      31.320  -8.354 -22.343  0.00  0.00    +0.142 C 
ATOM     29  C   UNL     1      32.426  -7.000 -20.677  0.00  0.00    +0.142 C 
ATOM     30  C   UNL     1      31.295  -7.264 -23.213  0.00  0.00    +0.059 C 
ATOM     31  C   UNL     1      32.401  -5.910 -21.545  0.00  0.00    +0.059 C 
ATOM     32  C   UNL     1      31.836  -6.042 -22.813  0.00  0.00    +0.145 C 
ENDBRANCH  23  27
ENDBRANCH  20  23
ENDBRANCH  17  21
BRANCH  16  33
ATOM     33  O   UNL     1      34.475 -13.621 -24.607  0.00  0.00    -0.502 OA
ATOM     34  H   UNL     1      35.132 -14.215 -24.913  0.00  0.00    +0.292 HD
ENDBRANCH  16  33
TORSDOF 4
ENDMDL
MODEL 4
REMARK VINA RESULT:     -10.3      4.231      9.873
REMARK  Name = 90311989
REMARK  4 active torsions:
REMARK  status: ('A' for Active; 'I' for Inactive)
REMARK    1  A    between atoms: C_16  and  O_33
REMARK    2  A    between atoms: C_17  and  C_21
REMARK    3  A    between atoms: N_20  and  C_23
REMARK    4  A    between atoms: C_23  and  C_27
REMARK                            x       y       z     vdW  Elec       q    Type
REMARK                         _______ _______ _______ _____ _____    ______ ____
ROOT
ATOM      1  O   UNL     1      34.560 -18.449 -20.413  0.00  0.00    -0.339 OA
ATOM      2  O   UNL     1      34.855 -16.207 -24.572  0.00  0.00    -0.268 OA
ATOM      3  O   UNL     1      33.185 -11.562 -23.317  0.00  0.00    -0.283 OA
ATOM      4  N   UNL     1      34.830 -17.277 -22.523  0.00  0.00    -0.253 N 
ATOM      5  N   UNL     1      33.292 -15.174 -21.479  0.00  0.00    -0.275 N 
ATOM      6  C   UNL     1      35.595 -18.437 -23.006  0.00  0.00    +0.080 C 
ATOM      7  C   UNL     1      35.407 -19.471 -20.948  0.00  0.00    +0.119 C 
ATOM      8  C   UNL     1      35.007 -19.700 -22.395  0.00  0.00    +0.049 C 
ATOM      9  C   UNL     1      37.015 -18.406 -22.423  0.00  0.00    +0.022 C 
ATOM     10  C   UNL     1      36.873 -19.027 -21.025  0.00  0.00    +0.031 C 
ATOM     11  C   UNL     1      34.607 -17.175 -21.077  0.00  0.00    +0.215 C 
ATOM     12  C   UNL     1      33.288 -16.472 -20.812  0.00  0.00    +0.147 C 
ATOM     13  C   UNL     1      34.570 -16.202 -23.375  0.00  0.00    +0.267 C 
ATOM     14  C   UNL     1      33.892 -15.011 -22.735  0.00  0.00    +0.143 C 
ATOM     15  C   UNL     1      32.636 -14.094 -20.905  0.00  0.00    +0.074 C 
ATOM     16  C   UNL     1      33.887 -13.832 -23.395  0.00  0.00    +0.191 C 
ATOM     17  C   UNL     1      32.552 -12.873 -21.446  0.00  0.00    +0.110 C 
ATOM     18  C   UNL     1      33.205 -12.656 -22.764  0.00  0.00    +0.236 C 
ENDROOT
BRANCH  17  21
ATOM     19  O   UNL     1      30.781 -12.085 -20.120  0.00  0.00    -0.270 OA
ATOM     20  N   UNL     1      32.441 -10.591 -20.790  0.00  0.00    -0.297 N 
ATOM     21  C   UNL     1      31.827 -11.831 -20.719  0.00  0.00    +0.251 C 
ATOM     22  H   UNL     1      33.278 -10.515 -21.302  0.00  0.00    +0.150 HD
BRANCH  20  23
ATOM     23  C   UNL     1      31.916  -9.404 -20.153  0.00  0.00    +0.121 C 
BRANCH  23  27
ATOM     24  F   UNL     1      32.957  -6.866 -19.462  0.00  0.00    -0.204 F 
ATOM     25  F   UNL     1      30.826  -9.535 -22.759  0.00  0.00    -0.204 F 
ATOM     26  F   UNL     1      31.819  -4.998 -23.657  0.00  0.00    -0.204 F 
ATOM     27  C   UNL     1      31.892  -8.230 -21.087  0.00  0.00    +0.053 C 
ATOM     28  C   UNL     1      32.422  -7.005 -20.683  0.00  0.00    +0.142 C 
ATOM     29  C   UNL     1      31.338  -8.362 -22.361  0.00  0.00    +0.142 C 
ATOM     30  C   UNL     1      32.397  -5.913 -21.551  0.00  0.00    +0.059 C 
ATOM     31  C   UNL     1      31.314  -7.272 -23.229  0.00  0.00    +0.059 C 
ATOM     32  C   UNL     1      31.843  -6.047 -22.824  0.00  0.00    +0.145 C 
ENDBRANCH  23  27
ENDBRANCH  20  23
ENDBRANCH  17  21
BRANCH  16  33
ATOM     33  O   UNL     1      34.485 -13.628 -24.619  0.00  0.00    -0.502 OA
ATOM     34  H   UNL     1      34.001 -13.227 -25.315  0.00  0.00    +0.292 HD
ENDBRANCH  16  33
TORSDOF 4
ENDMDL
MODEL 5
REMARK VINA RESULT:     -10.3      6.936     10.492
REMARK  Name = 90311989
REMARK  4 active torsions:
REMARK  status: ('A' for Active; 'I' for Inactive)
REMARK    1  A    between atoms: C_16  and  O_33
REMARK    2  A    between atoms: C_17  and  C_21
REMARK    3  A    between atoms: N_20  and  C_23
REMARK    4  A    between atoms: C_23  and  C_27
REMARK                            x       y       z     vdW  Elec       q    Type
REMARK                         _______ _______ _______ _____ _____    ______ ____
ROOT
ATOM      1  O   UNL     1      37.020 -19.441 -21.197  0.00  0.00    -0.339 OA
ATOM      2  O   UNL     1      32.786 -21.397 -20.381  0.00  0.00    -0.268 OA
ATOM      3  O   UNL     1      33.598 -23.689 -15.905  0.00  0.00    -0.283 OA
ATOM      4  N   UNL     1      34.811 -20.337 -20.731  0.00  0.00    -0.253 N 
ATOM      5  N   UNL     1      35.940 -21.882 -18.678  0.00  0.00    -0.275 N 
ATOM      6  C   UNL     1      34.307 -19.523 -21.848  0.00  0.00    +0.080 C 
ATOM      7  C   UNL     1      36.403 -18.614 -22.189  0.00  0.00    +0.119 C 
ATOM      8  C   UNL     1      35.376 -19.454 -22.927  0.00  0.00    +0.049 C 
ATOM      9  C   UNL     1      34.172 -18.059 -21.408  0.00  0.00    +0.022 C 
ATOM     10  C   UNL     1      35.585 -17.476 -21.565  0.00  0.00    +0.031 C 
ATOM     11  C   UNL     1      36.142 -20.010 -20.211  0.00  0.00    +0.215 C 
ATOM     12  C   UNL     1      36.806 -21.267 -19.679  0.00  0.00    +0.147 C 
ATOM     13  C   UNL     1      33.951 -21.192 -20.040  0.00  0.00    +0.267 C 
ATOM     14  C   UNL     1      34.547 -21.879 -18.830  0.00  0.00    +0.143 C 
ATOM     15  C   UNL     1      36.493 -22.542 -17.590  0.00  0.00    +0.074 C 
ATOM     16  C   UNL     1      33.717 -22.465 -17.940  0.00  0.00    +0.191 C 
ATOM     17  C   UNL     1      35.792 -23.165 -16.635  0.00  0.00    +0.110 C 
ATOM     18  C   UNL     1      34.310 -23.153 -16.749  0.00  0.00    +0.236 C 
ENDROOT
BRANCH  17  21
ATOM     19  O   UNL     1      37.351 -23.201 -14.877  0.00  0.00    -0.270 OA
ATOM     20  N   UNL     1      36.161 -25.145 -15.373  0.00  0.00    -0.297 N 
ATOM     21  C   UNL     1      36.518 -23.817 -15.544  0.00  0.00    +0.251 C 
ATOM     22  H   UNL     1      35.479 -25.525 -15.972  0.00  0.00    +0.150 HD
BRANCH  20  23
ATOM     23  C   UNL     1      36.739 -26.001 -14.361  0.00  0.00    +0.121 C 
BRANCH  23  27
ATOM     24  F   UNL     1      34.302 -25.205 -13.163  0.00  0.00    -0.204 F 
ATOM     25  F   UNL     1      39.021 -25.535 -12.758  0.00  0.00    -0.204 F 
ATOM     26  F   UNL     1      36.459 -23.685  -9.237  0.00  0.00    -0.204 F 
ATOM     27  C   UNL     1      36.664 -25.385 -12.995  0.00  0.00    +0.053 C 
ATOM     28  C   UNL     1      35.429 -25.014 -12.463  0.00  0.00    +0.142 C 
ATOM     29  C   UNL     1      37.830 -25.182 -12.256  0.00  0.00    +0.142 C 
ATOM     30  C   UNL     1      35.360 -24.440 -11.193  0.00  0.00    +0.059 C 
ATOM     31  C   UNL     1      37.761 -24.609 -10.986  0.00  0.00    +0.059 C 
ATOM     32  C   UNL     1      36.526 -24.237 -10.456  0.00  0.00    +0.145 C 
ENDBRANCH  23  27
ENDBRANCH  20  23
ENDBRANCH  17  21
BRANCH  16  33
ATOM     33  O   UNL     1      32.344 -22.463 -18.045  0.00  0.00    -0.502 OA
ATOM     34  H   UNL     1      31.840 -21.825 -17.580  0.00  0.00    +0.292 HD
ENDBRANCH  16  33
TORSDOF 4
ENDMDL
MODEL 6
REMARK VINA RESULT:     -10.0      1.658      2.069
REMARK  Name = 90311989
REMARK  4 active torsions:
REMARK  status: ('A' for Active; 'I' for Inactive)
REMARK    1  A    between atoms: C_16  and  O_33
REMARK    2  A    between atoms: C_17  and  C_21
REMARK    3  A    between atoms: N_20  and  C_23
REMARK    4  A    between atoms: C_23  and  C_27
REMARK                            x       y       z     vdW  Elec       q    Type
REMARK                         _______ _______ _______ _____ _____    ______ ____
ROOT
ATOM      1  O   UNL     1      32.791  -7.601 -22.876  0.00  0.00    -0.339 OA
ATOM      2  O   UNL     1      30.865 -10.352 -19.539  0.00  0.00    -0.268 OA
ATOM      3  O   UNL     1      32.518 -14.952 -20.967  0.00  0.00    -0.283 OA
ATOM      4  N   UNL     1      31.899  -8.986 -21.091  0.00  0.00    -0.253 N 
ATOM      5  N   UNL     1      32.520 -11.252 -22.626  0.00  0.00    -0.275 N 
ATOM      6  C   UNL     1      31.573  -7.747 -20.368  0.00  0.00    +0.080 C 
ATOM      7  C   UNL     1      32.529  -6.470 -22.040  0.00  0.00    +0.119 C 
ATOM      8  C   UNL     1      31.178  -6.679 -21.378  0.00  0.00    +0.049 C 
ATOM      9  C   UNL     1      32.842  -7.163 -19.734  0.00  0.00    +0.022 C 
ATOM     10  C   UNL     1      33.514  -6.374 -20.868  0.00  0.00    +0.031 C 
ATOM     11  C   UNL     1      32.830  -8.879 -22.219  0.00  0.00    +0.215 C 
ATOM     12  C   UNL     1      32.499  -9.936 -23.256  0.00  0.00    +0.147 C 
ATOM     13  C   UNL     1      31.546 -10.226 -20.556  0.00  0.00    +0.267 C 
ATOM     14  C   UNL     1      32.048 -11.433 -21.319  0.00  0.00    +0.143 C 
ATOM     15  C   UNL     1      32.945 -12.362 -23.342  0.00  0.00    +0.074 C 
ATOM     16  C   UNL     1      32.022 -12.641 -20.715  0.00  0.00    +0.191 C 
ATOM     17  C   UNL     1      32.973 -13.614 -22.871  0.00  0.00    +0.110 C 
ATOM     18  C   UNL     1      32.509 -13.836 -21.476  0.00  0.00    +0.236 C 
ENDROOT
BRANCH  17  21
ATOM     19  O   UNL     1      32.995 -14.828 -24.882  0.00  0.00    -0.270 OA
ATOM     20  N   UNL     1      34.433 -15.467 -23.161  0.00  0.00    -0.297 N 
ATOM     21  C   UNL     1      33.452 -14.684 -23.747  0.00  0.00    +0.251 C 
ATOM     22  H   UNL     1      34.716 -15.251 -22.243  0.00  0.00    +0.150 HD
BRANCH  20  23
ATOM     23  C   UNL     1      35.062 -16.586 -23.826  0.00  0.00    +0.121 C 
BRANCH  23  27
ATOM     24  F   UNL     1      35.543 -16.529 -21.039  0.00  0.00    -0.204 F 
ATOM     25  F   UNL     1      34.577 -19.171 -24.863  0.00  0.00    -0.204 F 
ATOM     26  F   UNL     1      35.060 -21.217 -20.625  0.00  0.00    -0.204 F 
ATOM     27  C   UNL     1      35.060 -17.820 -22.973  0.00  0.00    +0.053 C 
ATOM     28  C   UNL     1      35.306 -17.722 -21.603  0.00  0.00    +0.142 C 
ATOM     29  C   UNL     1      34.814 -19.067 -23.548  0.00  0.00    +0.142 C 
ATOM     30  C   UNL     1      35.306 -18.870 -20.810  0.00  0.00    +0.059 C 
ATOM     31  C   UNL     1      34.813 -20.214 -22.756  0.00  0.00    +0.059 C 
ATOM     32  C   UNL     1      35.059 -20.116 -21.387  0.00  0.00    +0.145 C 
ENDBRANCH  23  27
ENDBRANCH  20  23
ENDBRANCH  17  21
BRANCH  16  33
ATOM     33  O   UNL     1      31.586 -12.853 -19.425  0.00  0.00    -0.502 OA
ATOM     34  H   UNL     1      32.005 -12.413 -18.712  0.00  0.00    +0.292 HD
ENDBRANCH  16  33
TORSDOF 4
ENDMDL
MODEL 7
REMARK VINA RESULT:      -9.9      3.908      9.223
REMARK  Name = 90311989
REMARK  4 active torsions:
REMARK  status: ('A' for Active; 'I' for Inactive)
REMARK    1  A    between atoms: C_16  and  O_33
REMARK    2  A    between atoms: C_17  and  C_21
REMARK    3  A    between atoms: N_20  and  C_23
REMARK    4  A    between atoms: C_23  and  C_27
REMARK                            x       y       z     vdW  Elec       q    Type
REMARK                         _______ _______ _______ _____ _____    ______ ____
ROOT
ATOM      1  O   UNL     1      35.480 -17.525 -20.696  0.00  0.00    -0.339 OA
ATOM      2  O   UNL     1      33.865 -17.807 -25.137  0.00  0.00    -0.268 OA
ATOM      3  O   UNL     1      33.751 -12.892 -26.466  0.00  0.00    -0.283 OA
ATOM      4  N   UNL     1      34.767 -17.690 -23.011  0.00  0.00    -0.253 N 
ATOM      5  N   UNL     1      34.306 -14.922 -23.001  0.00  0.00    -0.275 N 
ATOM      6  C   UNL     1      34.999 -19.140 -22.921  0.00  0.00    +0.080 C 
ATOM      7  C   UNL     1      35.773 -18.924 -20.754  0.00  0.00    +0.119 C 
ATOM      8  C   UNL     1      34.650 -19.606 -21.516  0.00  0.00    +0.049 C 
ATOM      9  C   UNL     1      36.502 -19.435 -23.014  0.00  0.00    +0.022 C 
ATOM     10  C   UNL     1      37.028 -19.218 -21.586  0.00  0.00    +0.031 C 
ATOM     11  C   UNL     1      35.348 -16.851 -21.958  0.00  0.00    +0.215 C 
ATOM     12  C   UNL     1      34.472 -15.631 -21.736  0.00  0.00    +0.147 C 
ATOM     13  C   UNL     1      34.250 -17.133 -24.182  0.00  0.00    +0.267 C 
ATOM     14  C   UNL     1      34.177 -15.622 -24.208  0.00  0.00    +0.143 C 
ATOM     15  C   UNL     1      34.202 -13.538 -23.015  0.00  0.00    +0.074 C 
ATOM     16  C   UNL     1      33.990 -14.999 -25.393  0.00  0.00    +0.191 C 
ATOM     17  C   UNL     1      34.015 -12.795 -24.112  0.00  0.00    +0.110 C 
ATOM     18  C   UNL     1      33.907 -13.503 -25.415  0.00  0.00    +0.236 C 
ENDROOT
BRANCH  17  21
ATOM     19  O   UNL     1      34.880 -10.616 -24.263  0.00  0.00    -0.270 OA
ATOM     20  N   UNL     1      32.701 -10.916 -23.487  0.00  0.00    -0.297 N 
ATOM     21  C   UNL     1      33.928 -11.341 -23.969  0.00  0.00    +0.251 C 
ATOM     22  H   UNL     1      32.018 -11.596 -23.288  0.00  0.00    +0.150 HD
BRANCH  20  23
ATOM     23  C   UNL     1      32.373  -9.526 -23.259  0.00  0.00    +0.121 C 
BRANCH  23  27
ATOM     24  F   UNL     1      31.116 -11.275 -21.424  0.00  0.00    -0.204 F 
ATOM     25  F   UNL     1      33.346  -7.138 -22.100  0.00  0.00    -0.204 F 
ATOM     26  F   UNL     1      31.850  -8.350 -17.779  0.00  0.00    -0.204 F 
ATOM     27  C   UNL     1      32.235  -9.214 -21.798  0.00  0.00    +0.053 C 
ATOM     28  C   UNL     1      31.602 -10.120 -20.947  0.00  0.00    +0.142 C 
ATOM     29  C   UNL     1      32.737  -8.016 -21.290  0.00  0.00    +0.142 C 
ATOM     30  C   UNL     1      31.472  -9.828 -19.589  0.00  0.00    +0.059 C 
ATOM     31  C   UNL     1      32.608  -7.724 -19.933  0.00  0.00    +0.059 C 
ATOM     32  C   UNL     1      31.975  -8.630 -19.083  0.00  0.00    +0.145 C 
ENDBRANCH  23  27
ENDBRANCH  20  23
ENDBRANCH  17  21
BRANCH  16  33
ATOM     33  O   UNL     1      33.882 -15.652 -26.601  0.00  0.00    -0.502 OA
ATOM     34  H   UNL     1      33.052 -15.986 -26.879  0.00  0.00    +0.292 HD
ENDBRANCH  16  33
TORSDOF 4
ENDMDL
MODEL 8
REMARK VINA RESULT:      -9.9      6.855     10.378
REMARK  Name = 90311989
REMARK  4 active torsions:
REMARK  status: ('A' for Active; 'I' for Inactive)
REMARK    1  A    between atoms: C_16  and  O_33
REMARK    2  A    between atoms: C_17  and  C_21
REMARK    3  A    between atoms: N_20  and  C_23
REMARK    4  A    between atoms: C_23  and  C_27
REMARK                            x       y       z     vdW  Elec       q    Type
REMARK                         _______ _______ _______ _____ _____    ______ ____
ROOT
ATOM      1  O   UNL     1      37.032 -19.910 -20.803  0.00  0.00    -0.339 OA
ATOM      2  O   UNL     1      32.507 -21.249 -20.432  0.00  0.00    -0.268 OA
ATOM      3  O   UNL     1      32.525 -23.559 -15.893  0.00  0.00    -0.283 OA
ATOM      4  N   UNL     1      34.684 -20.484 -20.570  0.00  0.00    -0.253 N 
ATOM      5  N   UNL     1      35.369 -22.137 -18.407  0.00  0.00    -0.275 N 
ATOM      6  C   UNL     1      34.416 -19.626 -21.734  0.00  0.00    +0.080 C 
ATOM      7  C   UNL     1      36.643 -19.021 -21.855  0.00  0.00    +0.119 C 
ATOM      8  C   UNL     1      35.591 -19.723 -22.696  0.00  0.00    +0.049 C 
ATOM      9  C   UNL     1      34.441 -18.151 -21.313  0.00  0.00    +0.022 C 
ATOM     10  C   UNL     1      35.930 -17.771 -21.322  0.00  0.00    +0.031 C 
ATOM     11  C   UNL     1      35.987 -20.336 -19.914  0.00  0.00    +0.215 C 
ATOM     12  C   UNL     1      36.411 -21.664 -19.314  0.00  0.00    +0.147 C 
ATOM     13  C   UNL     1      33.647 -21.201 -19.971  0.00  0.00    +0.267 C 
ATOM     14  C   UNL     1      34.013 -21.944 -18.705  0.00  0.00    +0.143 C 
ATOM     15  C   UNL     1      35.709 -22.850 -17.267  0.00  0.00    +0.074 C 
ATOM     16  C   UNL     1      33.022 -22.396 -17.906  0.00  0.00    +0.191 C 
ATOM     17  C   UNL     1      34.834 -23.355 -16.389  0.00  0.00    +0.110 C 
ATOM     18  C   UNL     1      33.387 -23.141 -16.658  0.00  0.00    +0.236 C 
ENDROOT
BRANCH  17  21
ATOM     19  O   UNL     1      35.060 -25.269 -15.046  0.00  0.00    -0.270 OA
ATOM     20  N   UNL     1      36.145 -23.306 -14.407  0.00  0.00    -0.297 N 
ATOM     21  C   UNL     1      35.345 -24.084 -15.228  0.00  0.00    +0.251 C 
ATOM     22  H   UNL     1      36.298 -22.367 -14.661  0.00  0.00    +0.150 HD
BRANCH  20  23
ATOM     23  C   UNL     1      36.765 -23.800 -13.199  0.00  0.00    +0.121 C 
BRANCH  23  27
ATOM     24  F   UNL     1      37.471 -26.003 -11.570  0.00  0.00    -0.204 F 
ATOM     25  F   UNL     1      38.461 -23.422 -15.429  0.00  0.00    -0.204 F 
ATOM     26  F   UNL     1      41.166 -27.135 -14.298  0.00  0.00    -0.204 F 
ATOM     27  C   UNL     1      37.937 -24.690 -13.492  0.00  0.00    +0.053 C 
ATOM     28  C   UNL     1      38.231 -25.760 -12.646  0.00  0.00    +0.142 C 
ATOM     29  C   UNL     1      38.735 -24.447 -14.611  0.00  0.00    +0.142 C 
ATOM     30  C   UNL     1      39.322 -26.586 -12.919  0.00  0.00    +0.059 C 
ATOM     31  C   UNL     1      39.825 -25.273 -14.883  0.00  0.00    +0.059 C 
ATOM     32  C   UNL     1      40.119 -26.342 -14.037  0.00  0.00    +0.145 C 
ENDBRANCH  23  27
ENDBRANCH  20  23
ENDBRANCH  17  21
BRANCH  16  33
ATOM     33  O   UNL     1      31.681 -22.206 -18.154  0.00  0.00    -0.502 OA
ATOM     34  H   UNL     1      31.381 -21.393 -18.510  0.00  0.00    +0.292 HD
ENDBRANCH  16  33
TORSDOF 4
ENDMDL
MODEL 9
REMARK VINA RESULT:      -9.5      4.988     10.571
REMARK  Name = 90311989
REMARK  4 active torsions:
REMARK  status: ('A' for Active; 'I' for Inactive)
REMARK    1  A    between atoms: C_16  and  O_33
REMARK    2  A    between atoms: C_17  and  C_21
REMARK    3  A    between atoms: N_20  and  C_23
REMARK    4  A    between atoms: C_23  and  C_27
REMARK                            x       y       z     vdW  Elec       q    Type
REMARK                         _______ _______ _______ _____ _____    ______ ____
ROOT
ATOM      1  O   UNL     1      30.608 -22.973 -16.679  0.00  0.00    -0.339 OA
ATOM      2  O   UNL     1      35.222 -23.923 -16.215  0.00  0.00    -0.268 OA
ATOM      3  O   UNL     1      37.239 -20.754 -19.655  0.00  0.00    -0.283 OA
ATOM      4  N   UNL     1      32.979 -23.381 -16.347  0.00  0.00    -0.253 N 
ATOM      5  N   UNL     1      33.488 -21.980 -18.725  0.00  0.00    -0.275 N 
ATOM      6  C   UNL     1      32.623 -24.132 -15.133  0.00  0.00    +0.080 C 
ATOM      7  C   UNL     1      30.386 -23.629 -15.426  0.00  0.00    +0.119 C 
ATOM      8  C   UNL     1      31.298 -24.843 -15.366  0.00  0.00    +0.049 C 
ATOM      9  C   UNL     1      32.290 -23.157 -13.995  0.00  0.00    +0.022 C 
ATOM     10  C   UNL     1      30.823 -22.767 -14.235  0.00  0.00    +0.031 C 
ATOM     11  C   UNL     1      31.947 -22.515 -16.926  0.00  0.00    +0.215 C 
ATOM     12  C   UNL     1      32.133 -22.435 -18.430  0.00  0.00    +0.147 C 
ATOM     13  C   UNL     1      34.310 -23.300 -16.758  0.00  0.00    +0.267 C 
ATOM     14  C   UNL     1      34.574 -22.396 -17.942  0.00  0.00    +0.143 C 
ATOM     15  C   UNL     1      33.730 -21.181 -19.833  0.00  0.00    +0.074 C 
ATOM     16  C   UNL     1      35.845 -22.020 -18.204  0.00  0.00    +0.191 C 
ATOM     17  C   UNL     1      34.934 -20.737 -20.210  0.00  0.00    +0.110 C 
ATOM     18  C   UNL     1      36.104 -21.133 -19.383  0.00  0.00    +0.236 C 
ENDROOT
BRANCH  17  21
ATOM     19  O   UNL     1      34.430 -20.192 -22.439  0.00  0.00    -0.270 OA
ATOM     20  N   UNL     1      35.844 -18.790 -21.225  0.00  0.00    -0.297 N 
ATOM     21  C   UNL     1      35.031 -19.897 -21.405  0.00  0.00    +0.251 C 
ATOM     22  H   UNL     1      36.271 -18.663 -20.348  0.00  0.00    +0.150 HD
BRANCH  20  23
ATOM     23  C   UNL     1      36.097 -17.812 -22.259  0.00  0.00    +0.121 C 
BRANCH  23  27
ATOM     24  F   UNL     1      35.170 -16.537 -24.608  0.00  0.00    -0.204 F 
ATOM     25  F   UNL     1      34.956 -16.811 -19.874  0.00  0.00    -0.204 F 
ATOM     26  F   UNL     1      32.317 -13.641 -22.189  0.00  0.00    -0.204 F 
ATOM     27  C   UNL     1      35.089 -16.701 -22.241  0.00  0.00    +0.053 C 
ATOM     28  C   UNL     1      34.674 -16.114 -23.437  0.00  0.00    +0.142 C 
ATOM     29  C   UNL     1      34.565 -16.253 -21.028  0.00  0.00    +0.142 C 
ATOM     30  C   UNL     1      33.738 -15.080 -23.419  0.00  0.00    +0.059 C 
ATOM     31  C   UNL     1      33.628 -15.221 -21.010  0.00  0.00    +0.059 C 
ATOM     32  C   UNL     1      33.215 -14.634 -22.206  0.00  0.00    +0.145 C 
ENDBRANCH  23  27
ENDBRANCH  20  23
ENDBRANCH  17  21
BRANCH  16  33
ATOM     33  O   UNL     1      36.933 -22.390 -17.445  0.00  0.00    -0.502 OA
ATOM     34  H   UNL     1      37.302 -21.786 -16.831  0.00  0.00    +0.292 HD
ENDBRANCH  16  33
TORSDOF 4
ENDMDL
