MODEL 1
REMARK VINA RESULT:     -10.9      0.000      0.000
REMARK  Name = 5288712
REMARK  5 active torsions:
REMARK  status: ('A' for Active; 'I' for Inactive)
REMARK    1  A    between atoms: C_1  and  N_18
REMARK    2  A    between atoms: C_2  and  S_7
REMARK    3  A    between atoms: S_7  and  N_10
REMARK    4  A    between atoms: N_10  and  C_13
REMARK    5  A    between atoms: N_18  and  C_26
REMARK                            x       y       z     vdW  Elec       q    Type
REMARK                         _______ _______ _______ _____ _____    ______ ____
ROOT
ATOM      1  C   UNL     1      34.676 -22.314 -19.154  0.00  0.00    +0.048 C 
ATOM      2  C   UNL     1      35.409 -20.021 -20.574  0.00  0.00    +0.129 C 
ATOM      3  C   UNL     1      33.696 -21.501 -19.730  0.00  0.00    +0.016 C 
ATOM      4  C   UNL     1      36.025 -21.974 -19.292  0.00  0.00    +0.016 C 
ATOM      5  C   UNL     1      34.063 -20.357 -20.439  0.00  0.00    +0.022 C 
ATOM      6  C   UNL     1      36.391 -20.829 -20.000  0.00  0.00    +0.022 C 
ENDROOT
BRANCH   2   7
ATOM      7  S   UNL     1      35.868 -18.588 -21.460  0.00  0.00    +0.103 S 
ATOM      8  O   UNL     1      37.298 -18.675 -21.738  0.00  0.00    -0.146 OA
ATOM      9  O   UNL     1      35.355 -17.457 -20.697  0.00  0.00    -0.146 OA
BRANCH   7  10
ATOM     10  N   UNL     1      35.056 -18.722 -22.875  0.00  0.00    -0.093 NA
BRANCH  10  13
ATOM     11  N   UNL     1      34.266 -17.705 -24.905  0.00  0.00    -0.369 N 
ATOM     12  N   UNL     1      35.636 -16.551 -23.491  0.00  0.00    -0.369 N 
ATOM     13  C   UNL     1      34.974 -17.732 -23.725  0.00  0.00    +0.212 C 
ATOM     14  H   UNL     1      33.748 -18.493 -25.187  0.00  0.00    +0.159 HD
ATOM     15  H   UNL     1      34.279 -16.898 -25.468  0.00  0.00    +0.159 HD
ATOM     16  H   UNL     1      36.179 -16.444 -22.676  0.00  0.00    +0.159 HD
ATOM     17  H   UNL     1      35.567 -15.812 -24.137  0.00  0.00    +0.159 HD
ENDBRANCH  10  13
ENDBRANCH   7  10
ENDBRANCH   2   7
BRANCH   1  18
ATOM     18  N   UNL     1      34.307 -23.467 -18.441  0.00  0.00    -0.311 N 
ATOM     19  H   UNL     1      34.895 -24.248 -18.560  0.00  0.00    +0.152 HD
BRANCH  18  26
ATOM     20  O   UNL     1      35.592 -23.129 -15.863  0.00  0.00    -0.270 OA
ATOM     21  N   UNL     1      34.006 -23.382 -14.130  0.00  0.00    -0.280 N 
ATOM     22  C   UNL     1      32.113 -23.797 -15.369  0.00  0.00    +0.019 C 
ATOM     23  C   UNL     1      33.240 -23.605 -16.275  0.00  0.00    +0.069 C 
ATOM     24  C   UNL     1      32.633 -23.651 -14.079  0.00  0.00    +0.051 C 
ATOM     25  C   UNL     1      34.465 -23.336 -15.451  0.00  0.00    +0.251 C 
ATOM     26  C   UNL     1      33.251 -23.648 -17.609  0.00  0.00    +0.066 C 
ATOM     27  C   UNL     1      30.772 -24.069 -15.562  0.00  0.00    +0.001 C 
ATOM     28  C   UNL     1      31.850 -23.769 -12.949  0.00  0.00    +0.015 C 
ATOM     29  C   UNL     1      29.960 -24.192 -14.430  0.00  0.00    +0.000 C 
ATOM     30  C   UNL     1      30.493 -24.043 -13.136  0.00  0.00    +0.001 C 
ATOM     31  H   UNL     1      34.575 -23.244 -13.338  0.00  0.00    +0.155 HD
ENDBRANCH  18  26
ENDBRANCH   1  18
TORSDOF 5
ENDMDL
MODEL 2
REMARK VINA RESULT:     -10.9      3.991      9.269
REMARK  Name = 5288712
REMARK  5 active torsions:
REMARK  status: ('A' for Active; 'I' for Inactive)
REMARK    1  A    between atoms: C_1  and  N_18
REMARK    2  A    between atoms: C_2  and  S_7
REMARK    3  A    between atoms: S_7  and  N_10
REMARK    4  A    between atoms: N_10  and  C_13
REMARK    5  A    between atoms: N_18  and  C_26
REMARK                            x       y       z     vdW  Elec       q    Type
REMARK                         _______ _______ _______ _____ _____    ______ ____
ROOT
ATOM      1  C   UNL     1      35.584 -23.195 -16.153  0.00  0.00    +0.048 C 
ATOM      2  C   UNL     1      36.350 -23.665 -13.506  0.00  0.00    +0.129 C 
ATOM      3  C   UNL     1      36.875 -22.873 -15.728  0.00  0.00    +0.016 C 
ATOM      4  C   UNL     1      34.678 -23.755 -15.247  0.00  0.00    +0.016 C 
ATOM      5  C   UNL     1      37.257 -23.107 -14.407  0.00  0.00    +0.022 C 
ATOM      6  C   UNL     1      35.060 -23.989 -13.926  0.00  0.00    +0.022 C 
ENDROOT
BRANCH   2   7
ATOM      7  S   UNL     1      36.828 -23.958 -11.853  0.00  0.00    +0.103 S 
ATOM      8  O   UNL     1      35.759 -24.712 -11.206  0.00  0.00    -0.146 OA
ATOM      9  O   UNL     1      37.222 -22.664 -11.308  0.00  0.00    -0.146 OA
BRANCH   7  10
ATOM     10  N   UNL     1      38.139 -24.929 -11.986  0.00  0.00    -0.093 NA
BRANCH  10  13
ATOM     11  N   UNL     1      37.040 -26.991 -12.550  0.00  0.00    -0.369 N 
ATOM     12  N   UNL     1      39.140 -26.550 -13.327  0.00  0.00    -0.369 N 
ATOM     13  C   UNL     1      38.084 -26.094 -12.576  0.00  0.00    +0.212 C 
ATOM     14  H   UNL     1      36.223 -26.782 -12.044  0.00  0.00    +0.159 HD
ATOM     15  H   UNL     1      37.114 -27.844 -13.036  0.00  0.00    +0.159 HD
ATOM     16  H   UNL     1      39.950 -25.997 -13.425  0.00  0.00    +0.159 HD
ATOM     17  H   UNL     1      39.088 -27.428 -13.768  0.00  0.00    +0.159 HD
ENDBRANCH  10  13
ENDBRANCH   7  10
ENDBRANCH   2   7
BRANCH   1  18
ATOM     18  N   UNL     1      35.199 -22.960 -17.484  0.00  0.00    -0.311 N 
ATOM     19  H   UNL     1      34.442 -23.499 -17.810  0.00  0.00    +0.152 HD
BRANCH  18  26
ATOM     20  O   UNL     1      32.824 -22.202 -18.965  0.00  0.00    -0.270 OA
ATOM     21  N   UNL     1      33.386 -20.648 -20.653  0.00  0.00    -0.280 N 
ATOM     22  C   UNL     1      35.652 -20.469 -20.303  0.00  0.00    +0.019 C 
ATOM     23  C   UNL     1      35.096 -21.408 -19.335  0.00  0.00    +0.069 C 
ATOM     24  C   UNL     1      34.572 -20.038 -21.078  0.00  0.00    +0.051 C 
ATOM     25  C   UNL     1      33.618 -21.513 -19.579  0.00  0.00    +0.251 C 
ATOM     26  C   UNL     1      35.729 -22.089 -18.378  0.00  0.00    +0.066 C 
ATOM     27  C   UNL     1      36.928 -19.996 -20.545  0.00  0.00    +0.001 C 
ATOM     28  C   UNL     1      34.717 -19.131 -22.110  0.00  0.00    +0.015 C 
ATOM     29  C   UNL     1      37.098 -19.077 -21.586  0.00  0.00    +0.000 C 
ATOM     30  C   UNL     1      36.004 -18.649 -22.360  0.00  0.00    +0.001 C 
ATOM     31  H   UNL     1      32.503 -20.489 -21.059  0.00  0.00    +0.155 HD
ENDBRANCH  18  26
ENDBRANCH   1  18
TORSDOF 5
ENDMDL
MODEL 3
REMARK VINA RESULT:     -10.8      2.704      9.325
REMARK  Name = 5288712
REMARK  5 active torsions:
REMARK  status: ('A' for Active; 'I' for Inactive)
REMARK    1  A    between atoms: C_1  and  N_18
REMARK    2  A    between atoms: C_2  and  S_7
REMARK    3  A    between atoms: S_7  and  N_10
REMARK    4  A    between atoms: N_10  and  C_13
REMARK    5  A    between atoms: N_18  and  C_26
REMARK                            x       y       z     vdW  Elec       q    Type
REMARK                         _______ _______ _______ _____ _____    ______ ____
ROOT
ATOM      1  C   UNL     1      35.538 -19.823 -20.861  0.00  0.00    +0.048 C 
ATOM      2  C   UNL     1      34.340 -21.806 -19.297  0.00  0.00    +0.129 C 
ATOM      3  C   UNL     1      34.147 -19.946 -20.828  0.00  0.00    +0.016 C 
ATOM      4  C   UNL     1      36.328 -20.697 -20.107  0.00  0.00    +0.016 C 
ATOM      5  C   UNL     1      33.549 -20.935 -20.047  0.00  0.00    +0.022 C 
ATOM      6  C   UNL     1      35.729 -21.687 -19.327  0.00  0.00    +0.022 C 
ENDROOT
BRANCH   2   7
ATOM      7  S   UNL     1      33.592 -23.044 -18.320  0.00  0.00    +0.103 S 
ATOM      8  O   UNL     1      33.685 -24.305 -19.049  0.00  0.00    -0.146 OA
ATOM      9  O   UNL     1      32.280 -22.530 -17.946  0.00  0.00    -0.146 OA
BRANCH   7  10
ATOM     10  N   UNL     1      34.552 -23.139 -16.997  0.00  0.00    -0.093 NA
BRANCH  10  13
ATOM     11  N   UNL     1      33.034 -23.854 -15.276  0.00  0.00    -0.369 N 
ATOM     12  N   UNL     1      35.128 -24.750 -15.417  0.00  0.00    -0.369 N 
ATOM     13  C   UNL     1      34.231 -23.861 -15.956  0.00  0.00    +0.212 C 
ATOM     14  H   UNL     1      32.307 -23.257 -15.564  0.00  0.00    +0.159 HD
ATOM     15  H   UNL     1      32.907 -24.446 -14.500  0.00  0.00    +0.159 HD
ATOM     16  H   UNL     1      36.024 -24.850 -15.816  0.00  0.00    +0.159 HD
ATOM     17  H   UNL     1      34.877 -25.289 -14.634  0.00  0.00    +0.159 HD
ENDBRANCH  10  13
ENDBRANCH   7  10
ENDBRANCH   2   7
BRANCH   1  18
ATOM     18  N   UNL     1      36.141 -18.827 -21.647  0.00  0.00    -0.311 N 
ATOM     19  H   UNL     1      37.070 -18.602 -21.411  0.00  0.00    +0.152 HD
BRANCH  18  26
ATOM     20  O   UNL     1      35.020 -16.543 -20.256  0.00  0.00    -0.270 OA
ATOM     21  N   UNL     1      33.993 -15.080 -21.800  0.00  0.00    -0.280 N 
ATOM     22  C   UNL     1      34.389 -16.216 -23.761  0.00  0.00    +0.019 C 
ATOM     23  C   UNL     1      34.960 -16.972 -22.652  0.00  0.00    +0.069 C 
ATOM     24  C   UNL     1      33.814 -15.077 -23.189  0.00  0.00    +0.051 C 
ATOM     25  C   UNL     1      34.692 -16.217 -21.382  0.00  0.00    +0.251 C 
ATOM     26  C   UNL     1      35.615 -18.133 -22.687  0.00  0.00    +0.066 C 
ATOM     27  C   UNL     1      34.332 -16.425 -25.126  0.00  0.00    +0.001 C 
ATOM     28  C   UNL     1      33.171 -14.115 -23.942  0.00  0.00    +0.015 C 
ATOM     29  C   UNL     1      33.685 -15.462 -25.908  0.00  0.00    +0.000 C 
ATOM     30  C   UNL     1      33.110 -14.319 -25.322  0.00  0.00    +0.001 C 
ATOM     31  H   UNL     1      33.668 -14.373 -21.196  0.00  0.00    +0.155 HD
ENDBRANCH  18  26
ENDBRANCH   1  18
TORSDOF 5
ENDMDL
MODEL 4
REMARK VINA RESULT:     -10.6      2.699      9.367
REMARK  Name = 5288712
REMARK  5 active torsions:
REMARK  status: ('A' for Active; 'I' for Inactive)
REMARK    1  A    between atoms: C_1  and  N_18
REMARK    2  A    between atoms: C_2  and  S_7
REMARK    3  A    between atoms: S_7  and  N_10
REMARK    4  A    between atoms: N_10  and  C_13
REMARK    5  A    between atoms: N_18  and  C_26
REMARK                            x       y       z     vdW  Elec       q    Type
REMARK                         _______ _______ _______ _____ _____    ______ ____
ROOT
ATOM      1  C   UNL     1      35.289 -20.243 -20.667  0.00  0.00    +0.048 C 
ATOM      2  C   UNL     1      34.230 -22.094 -18.861  0.00  0.00    +0.129 C 
ATOM      3  C   UNL     1      33.905 -20.374 -20.525  0.00  0.00    +0.016 C 
ATOM      4  C   UNL     1      36.141 -21.043 -19.900  0.00  0.00    +0.016 C 
ATOM      5  C   UNL     1      33.377 -21.298 -19.624  0.00  0.00    +0.022 C 
ATOM      6  C   UNL     1      35.612 -21.967 -18.999  0.00  0.00    +0.022 C 
ENDROOT
BRANCH   2   7
ATOM      7  S   UNL     1      33.569 -23.252 -17.733  0.00  0.00    +0.103 S 
ATOM      8  O   UNL     1      34.325 -23.144 -16.489  0.00  0.00    -0.146 OA
ATOM      9  O   UNL     1      33.529 -24.528 -18.437  0.00  0.00    -0.146 OA
BRANCH   7  10
ATOM     10  N   UNL     1      32.047 -22.715 -17.462  0.00  0.00    -0.093 NA
BRANCH  10  13
ATOM     11  N   UNL     1      31.780 -23.731 -15.300  0.00  0.00    -0.369 N 
ATOM     12  N   UNL     1      29.957 -23.043 -16.487  0.00  0.00    -0.369 N 
ATOM     13  C   UNL     1      31.326 -23.147 -16.460  0.00  0.00    +0.212 C 
ATOM     14  H   UNL     1      32.745 -23.863 -15.159  0.00  0.00    +0.159 HD
ATOM     15  H   UNL     1      31.138 -24.019 -14.611  0.00  0.00    +0.159 HD
ATOM     16  H   UNL     1      29.508 -22.640 -17.266  0.00  0.00    +0.159 HD
ATOM     17  H   UNL     1      29.423 -23.371 -15.728  0.00  0.00    +0.159 HD
ENDBRANCH  10  13
ENDBRANCH   7  10
ENDBRANCH   2   7
BRANCH   1  18
ATOM     18  N   UNL     1      35.821 -19.311 -21.574  0.00  0.00    -0.311 N 
ATOM     19  H   UNL     1      36.531 -19.651 -22.166  0.00  0.00    +0.152 HD
BRANCH  18  26
ATOM     20  O   UNL     1      34.807 -19.368 -24.290  0.00  0.00    -0.270 OA
ATOM     21  N   UNL     1      34.113 -17.205 -24.939  0.00  0.00    -0.280 N 
ATOM     22  C   UNL     1      34.596 -16.031 -23.021  0.00  0.00    +0.019 C 
ATOM     23  C   UNL     1      34.959 -17.430 -22.824  0.00  0.00    +0.069 C 
ATOM     24  C   UNL     1      34.087 -15.949 -24.321  0.00  0.00    +0.051 C 
ATOM     25  C   UNL     1      34.638 -18.180 -24.085  0.00  0.00    +0.251 C 
ATOM     26  C   UNL     1      35.488 -18.007 -21.744  0.00  0.00    +0.066 C 
ATOM     27  C   UNL     1      34.667 -14.907 -22.220  0.00  0.00    +0.001 C 
ATOM     28  C   UNL     1      33.637 -14.763 -24.866  0.00  0.00    +0.015 C 
ATOM     29  C   UNL     1      34.216 -13.694 -22.752  0.00  0.00    +0.000 C 
ATOM     30  C   UNL     1      33.706 -13.623 -24.062  0.00  0.00    +0.001 C 
ATOM     31  H   UNL     1      33.802 -17.379 -25.858  0.00  0.00    +0.155 HD
ENDBRANCH  18  26
ENDBRANCH   1  18
TORSDOF 5
ENDMDL
MODEL 5
REMARK VINA RESULT:     -10.2      7.287     11.038
REMARK  Name = 5288712
REMARK  5 active torsions:
REMARK  status: ('A' for Active; 'I' for Inactive)
REMARK    1  A    between atoms: C_1  and  N_18
REMARK    2  A    between atoms: C_2  and  S_7
REMARK    3  A    between atoms: S_7  and  N_10
REMARK    4  A    between atoms: N_10  and  C_13
REMARK    5  A    between atoms: N_18  and  C_26
REMARK                            x       y       z     vdW  Elec       q    Type
REMARK                         _______ _______ _______ _____ _____    ______ ____
ROOT
ATOM      1  C   UNL     1      33.834 -12.243 -23.635  0.00  0.00    +0.048 C 
ATOM      2  C   UNL     1      33.125  -9.648 -22.876  0.00  0.00    +0.129 C 
ATOM      3  C   UNL     1      32.737 -12.032 -22.796  0.00  0.00    +0.016 C 
ATOM      4  C   UNL     1      34.574 -11.150 -24.093  0.00  0.00    +0.016 C 
ATOM      5  C   UNL     1      32.383 -10.737 -22.417  0.00  0.00    +0.022 C 
ATOM      6  C   UNL     1      34.221  -9.855 -23.714  0.00  0.00    +0.022 C 
ENDROOT
BRANCH   2   7
ATOM      7  S   UNL     1      32.683  -8.027 -22.401  0.00  0.00    +0.103 S 
ATOM      8  O   UNL     1      31.797  -7.488 -23.427  0.00  0.00    -0.146 OA
ATOM      9  O   UNL     1      33.932  -7.338 -22.100  0.00  0.00    -0.146 OA
BRANCH   7  10
ATOM     10  N   UNL     1      31.818  -8.239 -21.028  0.00  0.00    -0.093 NA
BRANCH  10  13
ATOM     11  N   UNL     1      32.303  -9.478 -19.026  0.00  0.00    -0.369 N 
ATOM     12  N   UNL     1      33.183  -7.396 -19.339  0.00  0.00    -0.369 N 
ATOM     13  C   UNL     1      32.390  -8.388 -19.862  0.00  0.00    +0.212 C 
ATOM     14  H   UNL     1      31.762 -10.257 -19.288  0.00  0.00    +0.159 HD
ATOM     15  H   UNL     1      32.781  -9.476 -18.166  0.00  0.00    +0.159 HD
ATOM     16  H   UNL     1      33.326  -6.561 -19.844  0.00  0.00    +0.159 HD
ATOM     17  H   UNL     1      33.609  -7.518 -18.461  0.00  0.00    +0.159 HD
ENDBRANCH  10  13
ENDBRANCH   7  10
ENDBRANCH   2   7
BRANCH   1  18
ATOM     18  N   UNL     1      34.190 -13.548 -24.017  0.00  0.00    -0.311 N 
ATOM     19  H   UNL     1      34.248 -13.706 -24.987  0.00  0.00    +0.152 HD
BRANCH  18  26
ATOM     20  O   UNL     1      34.035 -15.698 -25.957  0.00  0.00    -0.270 OA
ATOM     21  N   UNL     1      34.475 -17.767 -24.905  0.00  0.00    -0.280 N 
ATOM     22  C   UNL     1      34.831 -17.059 -22.746  0.00  0.00    +0.019 C 
ATOM     23  C   UNL     1      34.536 -15.901 -23.583  0.00  0.00    +0.069 C 
ATOM     24  C   UNL     1      34.781 -18.166 -23.599  0.00  0.00    +0.051 C 
ATOM     25  C   UNL     1      34.306 -16.381 -24.986  0.00  0.00    +0.251 C 
ATOM     26  C   UNL     1      34.466 -14.617 -23.229  0.00  0.00    +0.066 C 
ATOM     27  C   UNL     1      35.117 -17.216 -21.403  0.00  0.00    +0.001 C 
ATOM     28  C   UNL     1      35.011 -19.453 -23.155  0.00  0.00    +0.015 C 
ATOM     29  C   UNL     1      35.354 -18.512 -20.932  0.00  0.00    +0.000 C 
ATOM     30  C   UNL     1      35.301 -19.619 -21.799  0.00  0.00    +0.001 C 
ATOM     31  H   UNL     1      34.389 -18.384 -25.669  0.00  0.00    +0.155 HD
ENDBRANCH  18  26
ENDBRANCH   1  18
TORSDOF 5
ENDMDL
MODEL 6
REMARK VINA RESULT:     -10.1      2.043      3.165
REMARK  Name = 5288712
REMARK  5 active torsions:
REMARK  status: ('A' for Active; 'I' for Inactive)
REMARK    1  A    between atoms: C_1  and  N_18
REMARK    2  A    between atoms: C_2  and  S_7
REMARK    3  A    between atoms: S_7  and  N_10
REMARK    4  A    between atoms: N_10  and  C_13
REMARK    5  A    between atoms: N_18  and  C_26
REMARK                            x       y       z     vdW  Elec       q    Type
REMARK                         _______ _______ _______ _____ _____    ______ ____
ROOT
ATOM      1  C   UNL     1      34.738 -22.045 -18.773  0.00  0.00    +0.048 C 
ATOM      2  C   UNL     1      35.191 -20.205 -20.828  0.00  0.00    +0.129 C 
ATOM      3  C   UNL     1      36.043 -21.714 -19.145  0.00  0.00    +0.016 C 
ATOM      4  C   UNL     1      33.659 -21.449 -19.434  0.00  0.00    +0.016 C 
ATOM      5  C   UNL     1      36.269 -20.796 -20.170  0.00  0.00    +0.022 C 
ATOM      6  C   UNL     1      33.885 -20.531 -20.461  0.00  0.00    +0.022 C 
ENDROOT
BRANCH   2   7
ATOM      7  S   UNL     1      35.474 -19.056 -22.112  0.00  0.00    +0.103 S 
ATOM      8  O   UNL     1      34.643 -19.443 -23.247  0.00  0.00    -0.146 OA
ATOM      9  O   UNL     1      36.920 -18.979 -22.277  0.00  0.00    -0.146 OA
BRANCH   7  10
ATOM     10  N   UNL     1      34.905 -17.643 -21.511  0.00  0.00    -0.093 NA
BRANCH  10  13
ATOM     11  N   UNL     1      34.457 -15.302 -21.815  0.00  0.00    -0.369 N 
ATOM     12  N   UNL     1      35.533 -16.493 -23.437  0.00  0.00    -0.369 N 
ATOM     13  C   UNL     1      34.949 -16.530 -22.194  0.00  0.00    +0.212 C 
ATOM     14  H   UNL     1      34.013 -15.196 -20.943  0.00  0.00    +0.159 HD
ATOM     15  H   UNL     1      34.548 -14.529 -22.418  0.00  0.00    +0.159 HD
ATOM     16  H   UNL     1      35.925 -17.311 -23.821  0.00  0.00    +0.159 HD
ATOM     17  H   UNL     1      35.562 -15.649 -23.943  0.00  0.00    +0.159 HD
ENDBRANCH  10  13
ENDBRANCH   7  10
ENDBRANCH   2   7
BRANCH   1  18
ATOM     18  N   UNL     1      34.509 -22.969 -17.740  0.00  0.00    -0.311 N 
ATOM     19  H   UNL     1      33.723 -23.550 -17.855  0.00  0.00    +0.152 HD
BRANCH  18  26
ATOM     20  O   UNL     1      32.428 -23.889 -15.942  0.00  0.00    -0.270 OA
ATOM     21  N   UNL     1      33.344 -24.345 -13.812  0.00  0.00    -0.280 N 
ATOM     22  C   UNL     1      35.549 -23.816 -14.196  0.00  0.00    +0.019 C 
ATOM     23  C   UNL     1      34.789 -23.599 -15.422  0.00  0.00    +0.069 C 
ATOM     24  C   UNL     1      34.624 -24.269 -13.251  0.00  0.00    +0.051 C 
ATOM     25  C   UNL     1      33.354 -23.948 -15.153  0.00  0.00    +0.251 C 
ATOM     26  C   UNL     1      35.227 -23.167 -16.606  0.00  0.00    +0.066 C 
ATOM     27  C   UNL     1      36.881 -23.663 -13.862  0.00  0.00    +0.001 C 
ATOM     28  C   UNL     1      34.983 -24.582 -11.955  0.00  0.00    +0.015 C 
ATOM     29  C   UNL     1      37.267 -23.975 -12.554  0.00  0.00    +0.000 C 
ATOM     30  C   UNL     1      36.328 -24.430 -11.610  0.00  0.00    +0.001 C 
ATOM     31  H   UNL     1      32.540 -24.640 -13.325  0.00  0.00    +0.155 HD
ENDBRANCH  18  26
ENDBRANCH   1  18
TORSDOF 5
ENDMDL
MODEL 7
REMARK VINA RESULT:     -10.1      4.193      9.290
REMARK  Name = 5288712
REMARK  5 active torsions:
REMARK  status: ('A' for Active; 'I' for Inactive)
REMARK    1  A    between atoms: C_1  and  N_18
REMARK    2  A    between atoms: C_2  and  S_7
REMARK    3  A    between atoms: S_7  and  N_10
REMARK    4  A    between atoms: N_10  and  C_13
REMARK    5  A    between atoms: N_18  and  C_26
REMARK                            x       y       z     vdW  Elec       q    Type
REMARK                         _______ _______ _______ _____ _____    ______ ____
ROOT
ATOM      1  C   UNL     1      35.819 -23.532 -16.278  0.00  0.00    +0.048 C 
ATOM      2  C   UNL     1      37.073 -24.781 -14.115  0.00  0.00    +0.129 C 
ATOM      3  C   UNL     1      35.191 -24.590 -15.617  0.00  0.00    +0.016 C 
ATOM      4  C   UNL     1      37.078 -23.101 -15.851  0.00  0.00    +0.016 C 
ATOM      5  C   UNL     1      35.817 -25.213 -14.538  0.00  0.00    +0.022 C 
ATOM      6  C   UNL     1      37.705 -23.725 -14.772  0.00  0.00    +0.022 C 
ENDROOT
BRANCH   2   7
ATOM      7  S   UNL     1      37.858 -25.561 -12.765  0.00  0.00    +0.103 S 
ATOM      8  O   UNL     1      38.953 -24.702 -12.327  0.00  0.00    -0.146 OA
ATOM      9  O   UNL     1      38.147 -26.924 -13.195  0.00  0.00    -0.146 OA
BRANCH   7  10
ATOM     10  N   UNL     1      36.712 -25.576 -11.596  0.00  0.00    -0.093 NA
BRANCH  10  13
ATOM     11  N   UNL     1      35.012 -23.888 -11.402  0.00  0.00    -0.369 N 
ATOM     12  N   UNL     1      36.914 -23.763 -10.147  0.00  0.00    -0.369 N 
ATOM     13  C   UNL     1      36.218 -24.475 -11.094  0.00  0.00    +0.212 C 
ATOM     14  H   UNL     1      34.418 -24.302 -12.068  0.00  0.00    +0.159 HD
ATOM     15  H   UNL     1      34.744 -23.052 -10.955  0.00  0.00    +0.159 HD
ATOM     16  H   UNL     1      37.795 -24.081  -9.841  0.00  0.00    +0.159 HD
ATOM     17  H   UNL     1      36.533 -22.935  -9.775  0.00  0.00    +0.159 HD
ENDBRANCH  10  13
ENDBRANCH   7  10
ENDBRANCH   2   7
BRANCH   1  18
ATOM     18  N   UNL     1      35.188 -22.903 -17.365  0.00  0.00    -0.311 N 
ATOM     19  H   UNL     1      34.232 -23.105 -17.478  0.00  0.00    +0.152 HD
BRANCH  18  26
ATOM     20  O   UNL     1      32.824 -22.203 -18.891  0.00  0.00    -0.270 OA
ATOM     21  N   UNL     1      33.393 -20.694 -20.617  0.00  0.00    -0.280 N 
ATOM     22  C   UNL     1      35.655 -20.490 -20.250  0.00  0.00    +0.019 C 
ATOM     23  C   UNL     1      35.094 -21.405 -19.261  0.00  0.00    +0.069 C 
ATOM     24  C   UNL     1      34.579 -20.088 -21.048  0.00  0.00    +0.051 C 
ATOM     25  C   UNL     1      33.619 -21.526 -19.516  0.00  0.00    +0.251 C 
ATOM     26  C   UNL     1      35.722 -22.054 -18.279  0.00  0.00    +0.066 C 
ATOM     27  C   UNL     1      36.930 -20.016 -20.493  0.00  0.00    +0.001 C 
ATOM     28  C   UNL     1      34.729 -19.210 -22.103  0.00  0.00    +0.015 C 
ATOM     29  C   UNL     1      37.104 -19.125 -21.557  0.00  0.00    +0.000 C 
ATOM     30  C   UNL     1      36.015 -18.726 -22.355  0.00  0.00    +0.001 C 
ATOM     31  H   UNL     1      32.513 -20.552 -21.036  0.00  0.00    +0.155 HD
ENDBRANCH  18  26
ENDBRANCH   1  18
TORSDOF 5
ENDMDL
MODEL 8
REMARK VINA RESULT:      -9.6      7.250     11.109
REMARK  Name = 5288712
REMARK  5 active torsions:
REMARK  status: ('A' for Active; 'I' for Inactive)
REMARK    1  A    between atoms: C_1  and  N_18
REMARK    2  A    between atoms: C_2  and  S_7
REMARK    3  A    between atoms: S_7  and  N_10
REMARK    4  A    between atoms: N_10  and  C_13
REMARK    5  A    between atoms: N_18  and  C_26
REMARK                            x       y       z     vdW  Elec       q    Type
REMARK                         _______ _______ _______ _____ _____    ______ ____
ROOT
ATOM      1  C   UNL     1      33.695 -12.371 -23.409  0.00  0.00    +0.048 C 
ATOM      2  C   UNL     1      32.665  -9.915 -22.560  0.00  0.00    +0.129 C 
ATOM      3  C   UNL     1      32.666 -12.329 -22.465  0.00  0.00    +0.016 C 
ATOM      4  C   UNL     1      34.206 -11.177 -23.926  0.00  0.00    +0.016 C 
ATOM      5  C   UNL     1      32.152 -11.104 -22.041  0.00  0.00    +0.022 C 
ATOM      6  C   UNL     1      33.693  -9.951 -23.502  0.00  0.00    +0.022 C 
ENDROOT
BRANCH   2   7
ATOM      7  S   UNL     1      32.022  -8.380 -22.029  0.00  0.00    +0.103 S 
ATOM      8  O   UNL     1      31.866  -8.439 -20.580  0.00  0.00    -0.146 OA
ATOM      9  O   UNL     1      30.856  -8.118 -22.865  0.00  0.00    -0.146 OA
BRANCH   7  10
ATOM     10  N   UNL     1      33.211  -7.311 -22.379  0.00  0.00    -0.093 NA
BRANCH  10  13
ATOM     11  N   UNL     1      32.032  -5.315 -23.015  0.00  0.00    -0.369 N 
ATOM     12  N   UNL     1      33.815  -6.044 -24.238  0.00  0.00    -0.369 N 
ATOM     13  C   UNL     1      33.009  -6.276 -23.150  0.00  0.00    +0.212 C 
ATOM     14  H   UNL     1      31.389  -5.368 -22.272  0.00  0.00    +0.159 HD
ATOM     15  H   UNL     1      31.978  -4.576 -23.662  0.00  0.00    +0.159 HD
ATOM     16  H   UNL     1      34.555  -6.662 -24.444  0.00  0.00    +0.159 HD
ATOM     17  H   UNL     1      33.655  -5.261 -24.812  0.00  0.00    +0.159 HD
ENDBRANCH  10  13
ENDBRANCH   7  10
ENDBRANCH   2   7
BRANCH   1  18
ATOM     18  N   UNL     1      34.213 -13.605 -23.836  0.00  0.00    -0.311 N 
ATOM     19  H   UNL     1      34.402 -13.677 -24.800  0.00  0.00    +0.152 HD
BRANCH  18  26
ATOM     20  O   UNL     1      34.033 -15.664 -25.870  0.00  0.00    -0.270 OA
ATOM     21  N   UNL     1      34.467 -17.782 -24.916  0.00  0.00    -0.280 N 
ATOM     22  C   UNL     1      34.842 -17.174 -22.730  0.00  0.00    +0.019 C 
ATOM     23  C   UNL     1      34.548 -15.977 -23.511  0.00  0.00    +0.069 C 
ATOM     24  C   UNL     1      34.780 -18.241 -23.632  0.00  0.00    +0.051 C 
ATOM     25  C   UNL     1      34.307 -16.392 -24.933  0.00  0.00    +0.251 C 
ATOM     26  C   UNL     1      34.488 -14.710 -23.099  0.00  0.00    +0.066 C 
ATOM     27  C   UNL     1      35.136 -17.393 -21.397  0.00  0.00    +0.001 C 
ATOM     28  C   UNL     1      35.006 -19.547 -23.247  0.00  0.00    +0.015 C 
ATOM     29  C   UNL     1      35.368 -18.710 -20.987  0.00  0.00    +0.000 C 
ATOM     30  C   UNL     1      35.304 -19.777 -21.902  0.00  0.00    +0.001 C 
ATOM     31  H   UNL     1      34.373 -18.362 -25.706  0.00  0.00    +0.155 HD
ENDBRANCH  18  26
ENDBRANCH   1  18
TORSDOF 5
ENDMDL
MODEL 9
REMARK VINA RESULT:      -9.5      3.539      6.034
REMARK  Name = 5288712
REMARK  5 active torsions:
REMARK  status: ('A' for Active; 'I' for Inactive)
REMARK    1  A    between atoms: C_1  and  N_18
REMARK    2  A    between atoms: C_2  and  S_7
REMARK    3  A    between atoms: S_7  and  N_10
REMARK    4  A    between atoms: N_10  and  C_13
REMARK    5  A    between atoms: N_18  and  C_26
REMARK                            x       y       z     vdW  Elec       q    Type
REMARK                         _______ _______ _______ _____ _____    ______ ____
ROOT
ATOM      1  C   UNL     1      35.019 -17.832 -22.871  0.00  0.00    +0.048 C 
ATOM      2  C   UNL     1      34.200 -15.216 -23.420  0.00  0.00    +0.129 C 
ATOM      3  C   UNL     1      34.928 -16.893 -21.840  0.00  0.00    +0.016 C 
ATOM      4  C   UNL     1      34.697 -17.456 -24.178  0.00  0.00    +0.016 C 
ATOM      5  C   UNL     1      34.520 -15.588 -22.114  0.00  0.00    +0.022 C 
ATOM      6  C   UNL     1      34.290 -16.150 -24.453  0.00  0.00    +0.022 C 
ENDROOT
BRANCH   2   7
ATOM      7  S   UNL     1      33.690 -13.582 -23.764  0.00  0.00    +0.103 S 
ATOM      8  O   UNL     1      33.464 -13.479 -25.201  0.00  0.00    -0.146 OA
ATOM      9  O   UNL     1      34.670 -12.709 -23.129  0.00  0.00    -0.146 OA
BRANCH   7  10
ATOM     10  N   UNL     1      32.247 -13.450 -23.001  0.00  0.00    -0.093 NA
BRANCH  10  13
ATOM     11  N   UNL     1      32.102 -13.469 -20.602  0.00  0.00    -0.369 N 
ATOM     12  N   UNL     1      32.008 -11.499 -21.751  0.00  0.00    -0.369 N 
ATOM     13  C   UNL     1      32.127 -12.865 -21.839  0.00  0.00    +0.212 C 
ATOM     14  H   UNL     1      32.179 -14.447 -20.530  0.00  0.00    +0.159 HD
ATOM     15  H   UNL     1      32.006 -12.921 -19.790  0.00  0.00    +0.159 HD
ATOM     16  H   UNL     1      32.013 -10.950 -22.569  0.00  0.00    +0.159 HD
ATOM     17  H   UNL     1      31.918 -11.068 -20.871  0.00  0.00    +0.159 HD
ENDBRANCH  10  13
ENDBRANCH   7  10
ENDBRANCH   2   7
BRANCH   1  18
ATOM     18  N   UNL     1      35.429 -19.147 -22.595  0.00  0.00    -0.311 N 
ATOM     19  H   UNL     1      36.182 -19.480 -23.135  0.00  0.00    +0.152 HD
BRANCH  18  26
ATOM     20  O   UNL     1      37.653 -19.326 -20.743  0.00  0.00    -0.270 OA
ATOM     21  N   UNL     1      37.117 -20.800 -18.976  0.00  0.00    -0.280 N 
ATOM     22  C   UNL     1      34.990 -21.420 -19.595  0.00  0.00    +0.019 C 
ATOM     23  C   UNL     1      35.517 -20.484 -20.582  0.00  0.00    +0.069 C 
ATOM     24  C   UNL     1      36.002 -21.577 -18.642  0.00  0.00    +0.051 C 
ATOM     25  C   UNL     1      36.904 -20.091 -20.163  0.00  0.00    +0.251 C 
ATOM     26  C   UNL     1      34.927 -20.018 -21.684  0.00  0.00    +0.066 C 
ATOM     27  C   UNL     1      33.792 -22.096 -19.469  0.00  0.00    +0.001 C 
ATOM     28  C   UNL     1      35.860 -22.400 -17.543  0.00  0.00    +0.015 C 
ATOM     29  C   UNL     1      33.627 -22.936 -18.362  0.00  0.00    +0.000 C 
ATOM     30  C   UNL     1      34.651 -23.086 -17.409  0.00  0.00    +0.001 C 
ATOM     31  H   UNL     1      37.945 -20.758 -18.444  0.00  0.00    +0.155 HD
ENDBRANCH  18  26
ENDBRANCH   1  18
TORSDOF 5
ENDMDL
