MODEL 1
REMARK VINA RESULT:     -12.3      0.000      0.000
REMARK  Name = 10389239
REMARK  2 active torsions:
REMARK  status: ('A' for Active; 'I' for Inactive)
REMARK    1  A    between atoms: C_2  and  C_14
REMARK    2  A    between atoms: C_4  and  C_20
REMARK                            x       y       z     vdW  Elec       q    Type
REMARK                         _______ _______ _______ _____ _____    ______ ____
ROOT
ATOM      1  N   UNL     1      35.260 -17.810 -23.629  0.00  0.00    -0.244 NA
ATOM      2  C   UNL     1      34.057 -15.447 -22.748  0.00  0.00    +0.016 C 
ATOM      3  C   UNL     1      34.325 -16.471 -21.846  0.00  0.00    +0.020 C 
ATOM      4  C   UNL     1      34.922 -17.622 -22.334  0.00  0.00    +0.083 C 
ATOM      5  C   UNL     1      34.388 -15.602 -24.089  0.00  0.00    +0.022 C 
ATOM      6  C   UNL     1      34.984 -16.793 -24.475  0.00  0.00    +0.099 C 
ENDROOT
BRANCH   2  14
ATOM      7  O   UNL     1      32.673 -10.021 -23.061  0.00  0.00    -0.270 OA
ATOM      8  N   UNL     1      32.803 -14.140 -21.078  0.00  0.00    -0.316 N 
ATOM      9  N   UNL     1      31.411 -10.293 -21.144  0.00  0.00    -0.300 N 
ATOM     10  C   UNL     1      32.320 -12.874 -20.920  0.00  0.00    +0.031 C 
ATOM     11  C   UNL     1      31.596 -12.355 -19.735  0.00  0.00    +0.063 C 
ATOM     12  C   UNL     1      32.636 -12.136 -22.042  0.00  0.00    +0.064 C 
ATOM     13  C   UNL     1      30.728 -11.179 -20.193  0.00  0.00    +0.096 C 
ATOM     14  C   UNL     1      33.436 -14.226 -22.294  0.00  0.00    +0.048 C 
ATOM     15  C   UNL     1      33.352 -12.993 -22.911  0.00  0.00    +0.020 C 
ATOM     16  C   UNL     1      32.259 -10.740 -22.157  0.00  0.00    +0.247 C 
ATOM     17  H   UNL     1      32.713 -14.873 -20.427  0.00  0.00    +0.152 HD
ATOM     18  H   UNL     1      31.261  -9.324 -21.062  0.00  0.00    +0.150 HD
ENDBRANCH   2  14
BRANCH   4  20
ATOM     19  N   UNL     1      36.885 -20.017 -20.262  0.00  0.00    -0.244 NA
ATOM     20  C   UNL     1      35.231 -18.727 -21.457  0.00  0.00    +0.037 C 
ATOM     21  C   UNL     1      34.233 -19.555 -20.965  0.00  0.00    +0.005 C 
ATOM     22  C   UNL     1      34.557 -20.622 -20.116  0.00  0.00    +0.018 C 
ATOM     23  C   UNL     1      35.915 -20.820 -19.786  0.00  0.00    +0.081 C 
ATOM     24  C   UNL     1      36.531 -19.000 -21.079  0.00  0.00    +0.100 C 
ATOM     25  C   UNL     1      33.570 -21.479 -19.600  0.00  0.00    +0.001 C 
ATOM     26  C   UNL     1      36.236 -21.879 -18.942  0.00  0.00    +0.019 C 
ATOM     27  C   UNL     1      33.920 -22.531 -18.758  0.00  0.00    +0.000 C 
ATOM     28  C   UNL     1      35.255 -22.731 -18.429  0.00  0.00    +0.002 C 
ENDBRANCH   4  20
TORSDOF 2
ENDMDL
MODEL 2
REMARK VINA RESULT:     -12.2      6.353     11.564
REMARK  Name = 10389239
REMARK  2 active torsions:
REMARK  status: ('A' for Active; 'I' for Inactive)
REMARK    1  A    between atoms: C_2  and  C_14
REMARK    2  A    between atoms: C_4  and  C_20
REMARK                            x       y       z     vdW  Elec       q    Type
REMARK                         _______ _______ _______ _____ _____    ______ ____
ROOT
ATOM      1  N   UNL     1      32.476 -22.792 -17.703  0.00  0.00    -0.244 NA
ATOM      2  C   UNL     1      34.441 -23.853 -16.021  0.00  0.00    +0.016 C 
ATOM      3  C   UNL     1      34.802 -23.034 -17.085  0.00  0.00    +0.020 C 
ATOM      4  C   UNL     1      33.790 -22.533 -17.889  0.00  0.00    +0.083 C 
ATOM      5  C   UNL     1      33.100 -24.144 -15.797  0.00  0.00    +0.022 C 
ATOM      6  C   UNL     1      32.165 -23.592 -16.659  0.00  0.00    +0.099 C 
ENDROOT
BRANCH   2  14
ATOM      7  O   UNL     1      36.374 -26.208 -11.313  0.00  0.00    -0.270 OA
ATOM      8  N   UNL     1      36.786 -24.385 -15.487  0.00  0.00    -0.316 N 
ATOM      9  N   UNL     1      38.459 -26.335 -12.302  0.00  0.00    -0.300 N 
ATOM     10  C   UNL     1      37.502 -24.963 -14.479  0.00  0.00    +0.031 C 
ATOM     11  C   UNL     1      38.974 -25.121 -14.432  0.00  0.00    +0.063 C 
ATOM     12  C   UNL     1      36.629 -25.361 -13.488  0.00  0.00    +0.064 C 
ATOM     13  C   UNL     1      39.290 -26.306 -13.512  0.00  0.00    +0.096 C 
ATOM     14  C   UNL     1      35.454 -24.401 -15.152  0.00  0.00    +0.048 C 
ATOM     15  C   UNL     1      35.329 -24.996 -13.912  0.00  0.00    +0.020 C 
ATOM     16  C   UNL     1      37.105 -26.002 -12.277  0.00  0.00    +0.247 C 
ATOM     17  H   UNL     1      37.162 -24.017 -16.319  0.00  0.00    +0.152 HD
ATOM     18  H   UNL     1      38.884 -26.607 -11.457  0.00  0.00    +0.150 HD
ENDBRANCH   2  14
BRANCH   4  20
ATOM     19  N   UNL     1      33.309 -20.441 -20.934  0.00  0.00    -0.244 NA
ATOM     20  C   UNL     1      34.089 -21.676 -19.011  0.00  0.00    +0.037 C 
ATOM     21  C   UNL     1      35.386 -21.258 -19.272  0.00  0.00    +0.005 C 
ATOM     22  C   UNL     1      35.651 -20.425 -20.368  0.00  0.00    +0.018 C 
ATOM     23  C   UNL     1      34.568 -20.036 -21.185  0.00  0.00    +0.081 C 
ATOM     24  C   UNL     1      33.095 -21.244 -19.867  0.00  0.00    +0.100 C 
ATOM     25  C   UNL     1      36.953 -19.983 -20.658  0.00  0.00    +0.001 C 
ATOM     26  C   UNL     1      34.832 -19.210 -22.273  0.00  0.00    +0.019 C 
ATOM     27  C   UNL     1      37.188 -19.157 -21.754  0.00  0.00    +0.000 C 
ATOM     28  C   UNL     1      36.126 -18.770 -22.562  0.00  0.00    +0.002 C 
ENDBRANCH   4  20
TORSDOF 2
ENDMDL
MODEL 3
REMARK VINA RESULT:     -12.0      1.212      1.601
REMARK  Name = 10389239
REMARK  2 active torsions:
REMARK  status: ('A' for Active; 'I' for Inactive)
REMARK    1  A    between atoms: C_2  and  C_14
REMARK    2  A    between atoms: C_4  and  C_20
REMARK                            x       y       z     vdW  Elec       q    Type
REMARK                         _______ _______ _______ _____ _____    ______ ____
ROOT
ATOM      1  N   UNL     1      35.216 -17.390 -23.591  0.00  0.00    -0.244 NA
ATOM      2  C   UNL     1      33.980 -15.116 -22.537  0.00  0.00    +0.016 C 
ATOM      3  C   UNL     1      34.262 -16.200 -21.714  0.00  0.00    +0.020 C 
ATOM      4  C   UNL     1      34.875 -17.304 -22.285  0.00  0.00    +0.083 C 
ATOM      5  C   UNL     1      34.313 -15.167 -23.886  0.00  0.00    +0.022 C 
ATOM      6  C   UNL     1      34.926 -16.317 -24.359  0.00  0.00    +0.099 C 
ENDROOT
BRANCH   2  14
ATOM      7  O   UNL     1      31.342 -12.118 -18.599  0.00  0.00    -0.270 OA
ATOM      8  N   UNL     1      33.132 -12.813 -22.750  0.00  0.00    -0.316 N 
ATOM      9  N   UNL     1      31.441 -10.289 -20.009  0.00  0.00    -0.300 N 
ATOM     10  C   UNL     1      32.511 -11.874 -21.979  0.00  0.00    +0.031 C 
ATOM     11  C   UNL     1      32.081 -10.526 -22.419  0.00  0.00    +0.063 C 
ATOM     12  C   UNL     1      32.324 -12.393 -20.715  0.00  0.00    +0.064 C 
ATOM     13  C   UNL     1      32.024  -9.624 -21.180  0.00  0.00    +0.096 C 
ATOM     14  C   UNL     1      33.342 -13.941 -21.994  0.00  0.00    +0.048 C 
ATOM     15  C   UNL     1      32.844 -13.709 -20.727  0.00  0.00    +0.020 C 
ATOM     16  C   UNL     1      31.673 -11.622 -19.672  0.00  0.00    +0.247 C 
ATOM     17  H   UNL     1      33.388 -12.701 -23.694  0.00  0.00    +0.152 HD
ATOM     18  H   UNL     1      30.850  -9.761 -19.425  0.00  0.00    +0.150 HD
ENDBRANCH   2  14
BRANCH   4  20
ATOM     19  N   UNL     1      36.877 -19.884 -20.491  0.00  0.00    -0.244 NA
ATOM     20  C   UNL     1      35.198 -18.467 -21.493  0.00  0.00    +0.037 C 
ATOM     21  C   UNL     1      34.204 -19.283 -20.974  0.00  0.00    +0.005 C 
ATOM     22  C   UNL     1      34.543 -20.407 -20.208  0.00  0.00    +0.018 C 
ATOM     23  C   UNL     1      35.910 -20.674 -19.989  0.00  0.00    +0.081 C 
ATOM     24  C   UNL     1      36.509 -18.809 -21.226  0.00  0.00    +0.100 C 
ATOM     25  C   UNL     1      33.559 -21.253 -19.668  0.00  0.00    +0.001 C 
ATOM     26  C   UNL     1      36.246 -21.790 -19.228  0.00  0.00    +0.019 C 
ATOM     27  C   UNL     1      33.924 -22.363 -18.910  0.00  0.00    +0.000 C 
ATOM     28  C   UNL     1      35.269 -22.631 -18.690  0.00  0.00    +0.002 C 
ENDBRANCH   4  20
TORSDOF 2
ENDMDL
MODEL 4
REMARK VINA RESULT:     -11.3      3.317     10.475
REMARK  Name = 10389239
REMARK  2 active torsions:
REMARK  status: ('A' for Active; 'I' for Inactive)
REMARK    1  A    between atoms: C_2  and  C_14
REMARK    2  A    between atoms: C_4  and  C_20
REMARK                            x       y       z     vdW  Elec       q    Type
REMARK                         _______ _______ _______ _____ _____    ______ ____
ROOT
ATOM      1  N   UNL     1      31.241 -10.579 -20.657  0.00  0.00    -0.244 NA
ATOM      2  C   UNL     1      32.594 -12.875 -21.500  0.00  0.00    +0.016 C 
ATOM      3  C   UNL     1      32.830 -11.657 -22.128  0.00  0.00    +0.020 C 
ATOM      4  C   UNL     1      32.134 -10.549 -21.673  0.00  0.00    +0.083 C 
ATOM      5  C   UNL     1      31.683 -12.948 -20.453  0.00  0.00    +0.022 C 
ATOM      6  C   UNL     1      31.039 -11.781 -20.072  0.00  0.00    +0.099 C 
ENDROOT
BRANCH   2  14
ATOM      7  O   UNL     1      35.545 -17.591 -20.785  0.00  0.00    -0.270 OA
ATOM      8  N   UNL     1      33.481 -14.348 -23.264  0.00  0.00    -0.316 N 
ATOM      9  N   UNL     1      35.401 -17.956 -23.062  0.00  0.00    -0.300 N 
ATOM     10  C   UNL     1      34.171 -15.521 -23.369  0.00  0.00    +0.031 C 
ATOM     11  C   UNL     1      34.605 -16.171 -24.628  0.00  0.00    +0.063 C 
ATOM     12  C   UNL     1      34.426 -15.999 -22.101  0.00  0.00    +0.064 C 
ATOM     13  C   UNL     1      34.761 -17.671 -24.352  0.00  0.00    +0.096 C 
ATOM     14  C   UNL     1      33.293 -14.061 -21.934  0.00  0.00    +0.048 C 
ATOM     15  C   UNL     1      33.875 -15.068 -21.189  0.00  0.00    +0.020 C 
ATOM     16  C   UNL     1      35.159 -17.234 -21.894  0.00  0.00    +0.247 C 
ATOM     17  H   UNL     1      33.169 -13.798 -24.018  0.00  0.00    +0.152 HD
ATOM     18  H   UNL     1      36.039 -18.704 -23.020  0.00  0.00    +0.150 HD
ENDBRANCH   2  14
BRANCH   4  20
ATOM     19  N   UNL     1      33.688  -7.778 -23.619  0.00  0.00    -0.244 NA
ATOM     20  C   UNL     1      32.326  -9.251 -22.275  0.00  0.00    +0.037 C 
ATOM     21  C   UNL     1      31.391  -8.239 -22.117  0.00  0.00    +0.005 C 
ATOM     22  C   UNL     1      31.601  -6.988 -22.712  0.00  0.00    +0.018 C 
ATOM     23  C   UNL     1      32.779  -6.797 -23.464  0.00  0.00    +0.081 C 
ATOM     24  C   UNL     1      33.449  -8.971 -23.029  0.00  0.00    +0.100 C 
ATOM     25  C   UNL     1      30.672  -5.941 -22.572  0.00  0.00    +0.001 C 
ATOM     26  C   UNL     1      32.986  -5.554 -24.055  0.00  0.00    +0.019 C 
ATOM     27  C   UNL     1      30.905  -4.707 -23.174  0.00  0.00    +0.000 C 
ATOM     28  C   UNL     1      32.064  -4.514 -23.916  0.00  0.00    +0.002 C 
ENDBRANCH   4  20
TORSDOF 2
ENDMDL
MODEL 5
REMARK VINA RESULT:     -11.1      3.250     10.482
REMARK  Name = 10389239
REMARK  2 active torsions:
REMARK  status: ('A' for Active; 'I' for Inactive)
REMARK    1  A    between atoms: C_2  and  C_14
REMARK    2  A    between atoms: C_4  and  C_20
REMARK                            x       y       z     vdW  Elec       q    Type
REMARK                         _______ _______ _______ _____ _____    ______ ____
ROOT
ATOM      1  N   UNL     1      31.235 -10.380 -20.711  0.00  0.00    -0.244 NA
ATOM      2  C   UNL     1      32.528 -12.694 -21.595  0.00  0.00    +0.016 C 
ATOM      3  C   UNL     1      32.768 -11.479 -22.225  0.00  0.00    +0.020 C 
ATOM      4  C   UNL     1      32.102 -10.361 -21.749  0.00  0.00    +0.083 C 
ATOM      5  C   UNL     1      31.642 -12.756 -20.524  0.00  0.00    +0.022 C 
ATOM      6  C   UNL     1      31.028 -11.580 -20.124  0.00  0.00    +0.099 C 
ENDROOT
BRANCH   2  14
ATOM      7  O   UNL     1      34.503 -16.270 -25.437  0.00  0.00    -0.270 OA
ATOM      8  N   UNL     1      33.637 -14.854 -21.176  0.00  0.00    -0.316 N 
ATOM      9  N   UNL     1      35.417 -17.518 -23.721  0.00  0.00    -0.300 N 
ATOM     10  C   UNL     1      34.220 -15.862 -21.888  0.00  0.00    +0.031 C 
ATOM     11  C   UNL     1      34.800 -17.105 -21.328  0.00  0.00    +0.063 C 
ATOM     12  C   UNL     1      34.160 -15.548 -23.229  0.00  0.00    +0.064 C 
ATOM     13  C   UNL     1      35.848 -17.622 -22.321  0.00  0.00    +0.096 C 
ATOM     14  C   UNL     1      33.195 -13.891 -22.050  0.00  0.00    +0.048 C 
ATOM     15  C   UNL     1      33.502 -14.299 -23.333  0.00  0.00    +0.020 C 
ATOM     16  C   UNL     1      34.695 -16.444 -24.238  0.00  0.00    +0.247 C 
ATOM     17  H   UNL     1      33.548 -14.821 -20.196  0.00  0.00    +0.152 HD
ATOM     18  H   UNL     1      35.653 -18.253 -24.331  0.00  0.00    +0.150 HD
ENDBRANCH   2  14
BRANCH   4  20
ATOM     19  N   UNL     1      33.674  -7.595 -23.688  0.00  0.00    -0.244 NA
ATOM     20  C   UNL     1      32.300  -9.064 -22.352  0.00  0.00    +0.037 C 
ATOM     21  C   UNL     1      31.365  -8.051 -22.204  0.00  0.00    +0.005 C 
ATOM     22  C   UNL     1      31.580  -6.801 -22.800  0.00  0.00    +0.018 C 
ATOM     23  C   UNL     1      32.765  -6.613 -23.543  0.00  0.00    +0.081 C 
ATOM     24  C   UNL     1      33.429  -8.787 -23.097  0.00  0.00    +0.100 C 
ATOM     25  C   UNL     1      30.651  -5.753 -22.669  0.00  0.00    +0.001 C 
ATOM     26  C   UNL     1      32.977  -5.371 -24.134  0.00  0.00    +0.019 C 
ATOM     27  C   UNL     1      30.890  -4.521 -23.271  0.00  0.00    +0.000 C 
ATOM     28  C   UNL     1      32.055  -4.330 -24.004  0.00  0.00    +0.002 C 
ENDBRANCH   4  20
TORSDOF 2
ENDMDL
MODEL 6
REMARK VINA RESULT:     -10.9      3.542     10.565
REMARK  Name = 10389239
REMARK  2 active torsions:
REMARK  status: ('A' for Active; 'I' for Inactive)
REMARK    1  A    between atoms: C_2  and  C_14
REMARK    2  A    between atoms: C_4  and  C_20
REMARK                            x       y       z     vdW  Elec       q    Type
REMARK                         _______ _______ _______ _____ _____    ______ ____
ROOT
ATOM      1  N   UNL     1      31.234 -10.329 -20.540  0.00  0.00    -0.244 NA
ATOM      2  C   UNL     1      32.518 -12.580 -21.585  0.00  0.00    +0.016 C 
ATOM      3  C   UNL     1      32.599 -11.361 -22.248  0.00  0.00    +0.020 C 
ATOM      4  C   UNL     1      31.944 -10.275 -21.689  0.00  0.00    +0.083 C 
ATOM      5  C   UNL     1      31.796 -12.677 -20.400  0.00  0.00    +0.022 C 
ATOM      6  C   UNL     1      31.178 -11.531 -19.924  0.00  0.00    +0.099 C 
ENDROOT
BRANCH   2  14
ATOM      7  O   UNL     1      35.568 -17.279 -21.314  0.00  0.00    -0.270 OA
ATOM      8  N   UNL     1      33.241 -13.987 -23.473  0.00  0.00    -0.316 N 
ATOM      9  N   UNL     1      35.204 -17.576 -23.576  0.00  0.00    -0.300 N 
ATOM     10  C   UNL     1      33.928 -15.147 -23.683  0.00  0.00    +0.031 C 
ATOM     11  C   UNL     1      34.242 -15.753 -24.999  0.00  0.00    +0.063 C 
ATOM     12  C   UNL     1      34.310 -15.662 -22.462  0.00  0.00    +0.064 C 
ATOM     13  C   UNL     1      34.438 -17.258 -24.788  0.00  0.00    +0.096 C 
ATOM     14  C   UNL     1      33.181 -13.744 -22.123  0.00  0.00    +0.048 C 
ATOM     15  C   UNL     1      33.843 -14.766 -21.471  0.00  0.00    +0.020 C 
ATOM     16  C   UNL     1      35.072 -16.893 -22.368  0.00  0.00    +0.247 C 
ATOM     17  H   UNL     1      32.851 -13.417 -24.175  0.00  0.00    +0.152 HD
ATOM     18  H   UNL     1      35.851 -18.317 -23.621  0.00  0.00    +0.150 HD
ENDBRANCH   2  14
BRANCH   4  20
ATOM     19  N   UNL     1      30.885  -6.885 -22.815  0.00  0.00    -0.244 NA
ATOM     20  C   UNL     1      31.983  -8.978 -22.321  0.00  0.00    +0.037 C 
ATOM     21  C   UNL     1      33.100  -8.556 -23.028  0.00  0.00    +0.005 C 
ATOM     22  C   UNL     1      33.114  -7.292 -23.633  0.00  0.00    +0.018 C 
ATOM     23  C   UNL     1      31.970  -6.478 -23.500  0.00  0.00    +0.081 C 
ATOM     24  C   UNL     1      30.911  -8.112 -22.246  0.00  0.00    +0.100 C 
ATOM     25  C   UNL     1      34.230  -6.834 -24.356  0.00  0.00    +0.001 C 
ATOM     26  C   UNL     1      31.985  -5.223 -24.101  0.00  0.00    +0.019 C 
ATOM     27  C   UNL     1      34.218  -5.574 -24.947  0.00  0.00    +0.000 C 
ATOM     28  C   UNL     1      33.094  -4.768 -24.819  0.00  0.00    +0.002 C 
ENDBRANCH   4  20
TORSDOF 2
ENDMDL
MODEL 7
REMARK VINA RESULT:     -10.9      6.391     11.318
REMARK  Name = 10389239
REMARK  2 active torsions:
REMARK  status: ('A' for Active; 'I' for Inactive)
REMARK    1  A    between atoms: C_2  and  C_14
REMARK    2  A    between atoms: C_4  and  C_20
REMARK                            x       y       z     vdW  Elec       q    Type
REMARK                         _______ _______ _______ _____ _____    ______ ____
ROOT
ATOM      1  N   UNL     1      33.083 -22.558 -18.265  0.00  0.00    -0.244 NA
ATOM      2  C   UNL     1      34.495 -23.629 -16.104  0.00  0.00    +0.016 C 
ATOM      3  C   UNL     1      35.147 -22.829 -17.035  0.00  0.00    +0.020 C 
ATOM      4  C   UNL     1      34.403 -22.322 -18.088  0.00  0.00    +0.083 C 
ATOM      5  C   UNL     1      33.139 -23.896 -16.252  0.00  0.00    +0.022 C 
ATOM      6  C   UNL     1      32.484 -23.341 -17.340  0.00  0.00    +0.099 C 
ENDROOT
BRANCH   2  14
ATOM      7  O   UNL     1      37.358 -27.593 -13.358  0.00  0.00    -0.270 OA
ATOM      8  N   UNL     1      35.365 -23.501 -13.803  0.00  0.00    -0.316 N 
ATOM      9  N   UNL     1      37.703 -26.077 -11.648  0.00  0.00    -0.300 N 
ATOM     10  C   UNL     1      36.091 -24.267 -12.938  0.00  0.00    +0.031 C 
ATOM     11  C   UNL     1      36.447 -23.912 -11.543  0.00  0.00    +0.063 C 
ATOM     12  C   UNL     1      36.426 -25.447 -13.566  0.00  0.00    +0.064 C 
ATOM     13  C   UNL     1      37.715 -24.689 -11.171  0.00  0.00    +0.096 C 
ATOM     14  C   UNL     1      35.223 -24.182 -14.987  0.00  0.00    +0.048 C 
ATOM     15  C   UNL     1      35.868 -25.397 -14.866  0.00  0.00    +0.020 C 
ATOM     16  C   UNL     1      37.194 -26.472 -12.885  0.00  0.00    +0.247 C 
ATOM     17  H   UNL     1      35.003 -22.606 -13.611  0.00  0.00    +0.152 HD
ATOM     18  H   UNL     1      38.077 -26.770 -11.059  0.00  0.00    +0.150 HD
ENDBRANCH   2  14
BRANCH   4  20
ATOM     19  N   UNL     1      36.985 -20.390 -19.955  0.00  0.00    -0.244 NA
ATOM     20  C   UNL     1      35.012 -21.484 -19.093  0.00  0.00    +0.037 C 
ATOM     21  C   UNL     1      34.268 -20.963 -20.142  0.00  0.00    +0.005 C 
ATOM     22  C   UNL     1      34.882 -20.151 -21.106  0.00  0.00    +0.018 C 
ATOM     23  C   UNL     1      36.261 -19.886 -20.971  0.00  0.00    +0.081 C 
ATOM     24  C   UNL     1      36.355 -21.169 -19.045  0.00  0.00    +0.100 C 
ATOM     25  C   UNL     1      34.157 -19.608 -22.181  0.00  0.00    +0.001 C 
ATOM     26  C   UNL     1      36.870 -19.080 -21.929  0.00  0.00    +0.019 C 
ATOM     27  C   UNL     1      34.791 -18.804 -23.124  0.00  0.00    +0.000 C 
ATOM     28  C   UNL     1      36.149 -18.540 -22.998  0.00  0.00    +0.002 C 
ENDBRANCH   4  20
TORSDOF 2
ENDMDL
MODEL 8
REMARK VINA RESULT:     -10.9      2.929      5.989
REMARK  Name = 10389239
REMARK  2 active torsions:
REMARK  status: ('A' for Active; 'I' for Inactive)
REMARK    1  A    between atoms: C_2  and  C_14
REMARK    2  A    between atoms: C_4  and  C_20
REMARK                            x       y       z     vdW  Elec       q    Type
REMARK                         _______ _______ _______ _____ _____    ______ ____
ROOT
ATOM      1  N   UNL     1      31.835 -12.905 -20.271  0.00  0.00    -0.244 NA
ATOM      2  C   UNL     1      32.025 -10.347 -21.378  0.00  0.00    +0.016 C 
ATOM      3  C   UNL     1      32.663 -11.420 -21.989  0.00  0.00    +0.020 C 
ATOM      4  C   UNL     1      32.538 -12.668 -21.401  0.00  0.00    +0.083 C 
ATOM      5  C   UNL     1      31.292 -10.550 -20.214  0.00  0.00    +0.022 C 
ATOM      6  C   UNL     1      31.229 -11.838 -19.706  0.00  0.00    +0.099 C 
ENDROOT
BRANCH   2  14
ATOM      7  O   UNL     1      34.078  -6.433 -24.831  0.00  0.00    -0.270 OA
ATOM      8  N   UNL     1      31.389  -7.968 -21.465  0.00  0.00    -0.316 N 
ATOM      9  N   UNL     1      32.484  -4.968 -24.023  0.00  0.00    -0.300 N 
ATOM     10  C   UNL     1      31.688  -6.853 -22.193  0.00  0.00    +0.031 C 
ATOM     11  C   UNL     1      31.137  -5.495 -21.979  0.00  0.00    +0.063 C 
ATOM     12  C   UNL     1      32.615  -7.190 -23.158  0.00  0.00    +0.064 C 
ATOM     13  C   UNL     1      31.222  -4.738 -23.309  0.00  0.00    +0.096 C 
ATOM     14  C   UNL     1      32.121  -9.025 -21.949  0.00  0.00    +0.048 C 
ATOM     15  C   UNL     1      32.896  -8.568 -22.997  0.00  0.00    +0.020 C 
ATOM     16  C   UNL     1      33.134  -6.200 -24.082  0.00  0.00    +0.247 C 
ATOM     17  H   UNL     1      30.751  -8.009 -20.716  0.00  0.00    +0.152 HD
ATOM     18  H   UNL     1      32.896  -4.205 -24.490  0.00  0.00    +0.150 HD
ENDBRANCH   2  14
BRANCH   4  20
ATOM     19  N   UNL     1      33.835 -15.056 -23.949  0.00  0.00    -0.244 NA
ATOM     20  C   UNL     1      33.173 -13.829 -21.978  0.00  0.00    +0.037 C 
ATOM     21  C   UNL     1      33.722 -14.820 -21.179  0.00  0.00    +0.005 C 
ATOM     22  C   UNL     1      34.333 -15.938 -21.763  0.00  0.00    +0.018 C 
ATOM     23  C   UNL     1      34.367 -16.017 -23.172  0.00  0.00    +0.081 C 
ATOM     24  C   UNL     1      33.254 -13.994 -23.347  0.00  0.00    +0.100 C 
ATOM     25  C   UNL     1      34.899 -16.960 -20.982  0.00  0.00    +0.001 C 
ATOM     26  C   UNL     1      34.974 -17.128 -23.751  0.00  0.00    +0.019 C 
ATOM     27  C   UNL     1      35.500 -18.060 -21.588  0.00  0.00    +0.000 C 
ATOM     28  C   UNL     1      35.537 -18.144 -22.975  0.00  0.00    +0.002 C 
ENDBRANCH   4  20
TORSDOF 2
ENDMDL
MODEL 9
REMARK VINA RESULT:     -10.6      2.733      8.550
REMARK  Name = 10389239
REMARK  2 active torsions:
REMARK  status: ('A' for Active; 'I' for Inactive)
REMARK    1  A    between atoms: C_2  and  C_14
REMARK    2  A    between atoms: C_4  and  C_20
REMARK                            x       y       z     vdW  Elec       q    Type
REMARK                         _______ _______ _______ _____ _____    ______ ____
ROOT
ATOM      1  N   UNL     1      34.459 -15.584 -24.376  0.00  0.00    -0.244 NA
ATOM      2  C   UNL     1      34.740 -17.693 -22.565  0.00  0.00    +0.016 C 
ATOM      3  C   UNL     1      34.233 -16.471 -22.138  0.00  0.00    +0.020 C 
ATOM      4  C   UNL     1      34.114 -15.457 -23.076  0.00  0.00    +0.083 C 
ATOM      5  C   UNL     1      35.108 -17.863 -23.895  0.00  0.00    +0.022 C 
ATOM      6  C   UNL     1      34.948 -16.786 -24.753  0.00  0.00    +0.099 C 
ENDROOT
BRANCH   2  14
ATOM      7  O   UNL     1      32.912 -21.844 -19.265  0.00  0.00    -0.270 OA
ATOM      8  N   UNL     1      36.102 -19.123 -21.092  0.00  0.00    -0.316 N 
ATOM      9  N   UNL     1      35.115 -22.373 -18.810  0.00  0.00    -0.300 N 
ATOM     10  C   UNL     1      35.931 -20.180 -20.246  0.00  0.00    +0.031 C 
ATOM     11  C   UNL     1      36.989 -20.835 -19.441  0.00  0.00    +0.063 C 
ATOM     12  C   UNL     1      34.598 -20.531 -20.240  0.00  0.00    +0.064 C 
ATOM     13  C   UNL     1      36.538 -22.272 -19.155  0.00  0.00    +0.096 C 
ATOM     14  C   UNL     1      34.885 -18.783 -21.630  0.00  0.00    +0.048 C 
ATOM     15  C   UNL     1      33.932 -19.639 -21.113  0.00  0.00    +0.020 C 
ATOM     16  C   UNL     1      34.110 -21.623 -19.419  0.00  0.00    +0.247 C 
ATOM     17  H   UNL     1      36.958 -18.676 -21.286  0.00  0.00    +0.152 HD
ATOM     18  H   UNL     1      34.855 -23.009 -18.106  0.00  0.00    +0.150 HD
ENDBRANCH   2  14
BRANCH   4  20
ATOM     19  N   UNL     1      33.356 -11.811 -23.208  0.00  0.00    -0.244 NA
ATOM     20  C   UNL     1      33.595 -14.161 -22.707  0.00  0.00    +0.037 C 
ATOM     21  C   UNL     1      32.859 -13.986 -21.544  0.00  0.00    +0.005 C 
ATOM     22  C   UNL     1      32.366 -12.718 -21.207  0.00  0.00    +0.018 C 
ATOM     23  C   UNL     1      32.642 -11.644 -22.079  0.00  0.00    +0.081 C 
ATOM     24  C   UNL     1      33.814 -13.051 -23.497  0.00  0.00    +0.100 C 
ATOM     25  C   UNL     1      31.616 -12.506 -20.037  0.00  0.00    +0.001 C 
ATOM     26  C   UNL     1      32.152 -10.385 -21.744  0.00  0.00    +0.019 C 
ATOM     27  C   UNL     1      31.139 -11.236 -19.726  0.00  0.00    +0.000 C 
ATOM     28  C   UNL     1      31.407 -10.174 -20.581  0.00  0.00    +0.002 C 
ENDBRANCH   4  20
TORSDOF 2
ENDMDL
