MODEL 1
REMARK VINA RESULT:     -11.4      0.000      0.000
REMARK  Name = 70798655
REMARK  2 active torsions:
REMARK  status: ('A' for Active; 'I' for Inactive)
REMARK    1  A    between atoms: C_3  and  C_29
REMARK    2  A    between atoms: C_5  and  C_13
REMARK                            x       y       z     vdW  Elec       q    Type
REMARK                         _______ _______ _______ _____ _____    ______ ____
ROOT
ATOM      1  N   UNL     1      33.943 -23.952 -14.867  0.00  0.00    -0.245 N 
ATOM      2  N   UNL     1      32.318 -24.931 -13.683  0.00  0.00    -0.227 NA
ATOM      3  C   UNL     1      34.519 -24.387 -13.700  0.00  0.00    +0.130 C 
ATOM      4  C   UNL     1      32.601 -24.308 -14.808  0.00  0.00    +0.139 C 
ATOM      5  C   UNL     1      33.761 -22.942 -17.005  0.00  0.00    +0.012 C 
ATOM      6  C   UNL     1      34.522 -23.282 -15.941  0.00  0.00    +0.071 C 
ATOM      7  C   UNL     1      33.502 -24.982 -12.992  0.00  0.00    +0.120 C 
ATOM      8  C   UNL     1      31.792 -23.957 -15.925  0.00  0.00    +0.035 C 
ATOM      9  C   UNL     1      32.341 -23.308 -16.970  0.00  0.00    +0.004 C 
ENDROOT
BRANCH   5  13
ATOM     10  O   UNL     1      35.925 -20.243 -21.353  0.00  0.00    -0.414 OA
ATOM     11  N   UNL     1      33.664 -20.212 -21.199  0.00  0.00    -0.356 NA
ATOM     12  N   UNL     1      34.805 -19.104 -23.004  0.00  0.00    -0.302 N 
ATOM     13  C   UNL     1      34.383 -22.239 -18.143  0.00  0.00    -0.014 C 
ATOM     14  C   UNL     1      33.566 -21.585 -19.076  0.00  0.00    +0.089 C 
ATOM     15  C   UNL     1      35.779 -22.236 -18.272  0.00  0.00    -0.001 C 
ATOM     16  C   UNL     1      34.185 -20.925 -20.148  0.00  0.00    +0.152 C 
ATOM     17  C   UNL     1      35.570 -20.947 -20.238  0.00  0.00    +0.175 C 
ATOM     18  C   UNL     1      36.412 -21.582 -19.335  0.00  0.00    +0.040 C 
ATOM     19  C   UNL     1      34.732 -19.838 -21.870  0.00  0.00    +0.341 C 
ATOM     20  H   UNL     1      35.683 -18.898 -23.401  0.00  0.00    +0.148 HD
ATOM     21  H   UNL     1      33.982 -18.778 -23.433  0.00  0.00    +0.148 HD
ENDBRANCH   5  13
BRANCH   3  29
ATOM     22  O   UNL     1      38.630 -27.287 -14.189  0.00  0.00    -0.350 OA
ATOM     23  O   UNL     1      36.186 -23.309 -12.546  0.00  0.00    -0.268 OA
ATOM     24  N   UNL     1      36.860 -25.121 -13.857  0.00  0.00    -0.270 N 
ATOM     25  C   UNL     1      38.274 -24.993 -13.509  0.00  0.00    +0.126 C 
ATOM     26  C   UNL     1      36.571 -26.176 -14.837  0.00  0.00    +0.126 C 
ATOM     27  C   UNL     1      37.231 -27.482 -14.414  0.00  0.00    +0.164 C 
ATOM     28  C   UNL     1      38.853 -26.349 -13.133  0.00  0.00    +0.164 C 
ATOM     29  C   UNL     1      35.929 -24.231 -13.318  0.00  0.00    +0.265 C 
ENDBRANCH   3  29
TORSDOF 2
ENDMDL
MODEL 2
REMARK VINA RESULT:     -10.6      1.217      1.863
REMARK  Name = 70798655
REMARK  2 active torsions:
REMARK  status: ('A' for Active; 'I' for Inactive)
REMARK    1  A    between atoms: C_3  and  C_29
REMARK    2  A    between atoms: C_5  and  C_13
REMARK                            x       y       z     vdW  Elec       q    Type
REMARK                         _______ _______ _______ _____ _____    ______ ____
ROOT
ATOM      1  N   UNL     1      33.592 -24.286 -15.183  0.00  0.00    -0.245 N 
ATOM      2  N   UNL     1      31.874 -24.946 -13.913  0.00  0.00    -0.227 NA
ATOM      3  C   UNL     1      34.121 -25.067 -14.187  0.00  0.00    +0.130 C 
ATOM      4  C   UNL     1      32.219 -24.244 -14.972  0.00  0.00    +0.139 C 
ATOM      5  C   UNL     1      33.514 -22.908 -17.111  0.00  0.00    +0.012 C 
ATOM      6  C   UNL     1      34.236 -23.634 -16.231  0.00  0.00    +0.071 C 
ATOM      7  C   UNL     1      33.049 -25.458 -13.422  0.00  0.00    +0.120 C 
ATOM      8  C   UNL     1      31.448 -23.483 -15.896  0.00  0.00    +0.035 C 
ATOM      9  C   UNL     1      32.061 -22.848 -16.914  0.00  0.00    +0.004 C 
ENDROOT
BRANCH   5  13
ATOM     10  O   UNL     1      35.935 -20.277 -21.364  0.00  0.00    -0.414 OA
ATOM     11  N   UNL     1      33.676 -20.112 -21.260  0.00  0.00    -0.356 NA
ATOM     12  N   UNL     1      34.924 -19.047 -23.021  0.00  0.00    -0.302 N 
ATOM     13  C   UNL     1      34.203 -22.226 -18.224  0.00  0.00    -0.014 C 
ATOM     14  C   UNL     1      33.447 -21.509 -19.164  0.00  0.00    +0.089 C 
ATOM     15  C   UNL     1      35.598 -22.305 -18.322  0.00  0.00    -0.001 C 
ATOM     16  C   UNL     1      34.130 -20.871 -20.209  0.00  0.00    +0.152 C 
ATOM     17  C   UNL     1      35.512 -20.975 -20.270  0.00  0.00    +0.175 C 
ATOM     18  C   UNL     1      36.294 -21.673 -19.359  0.00  0.00    +0.040 C 
ATOM     19  C   UNL     1      34.780 -19.792 -21.901  0.00  0.00    +0.341 C 
ATOM     20  H   UNL     1      35.821 -18.887 -23.394  0.00  0.00    +0.148 HD
ATOM     21  H   UNL     1      34.132 -18.665 -23.462  0.00  0.00    +0.148 HD
ENDBRANCH   5  13
BRANCH   3  29
ATOM     22  O   UNL     1      37.448 -24.304 -10.459  0.00  0.00    -0.350 OA
ATOM     23  O   UNL     1      36.151 -25.759 -15.009  0.00  0.00    -0.268 OA
ATOM     24  N   UNL     1      36.085 -25.278 -12.724  0.00  0.00    -0.270 N 
ATOM     25  C   UNL     1      37.492 -25.605 -12.499  0.00  0.00    +0.126 C 
ATOM     26  C   UNL     1      35.346 -24.915 -11.508  0.00  0.00    +0.126 C 
ATOM     27  C   UNL     1      36.114 -23.862 -10.720  0.00  0.00    +0.164 C 
ATOM     28  C   UNL     1      38.165 -24.514 -11.679  0.00  0.00    +0.164 C 
ATOM     29  C   UNL     1      35.542 -25.395 -14.004  0.00  0.00    +0.265 C 
ENDBRANCH   3  29
TORSDOF 2
ENDMDL
MODEL 3
REMARK VINA RESULT:     -10.3      1.057      1.439
REMARK  Name = 70798655
REMARK  2 active torsions:
REMARK  status: ('A' for Active; 'I' for Inactive)
REMARK    1  A    between atoms: C_3  and  C_29
REMARK    2  A    between atoms: C_5  and  C_13
REMARK                            x       y       z     vdW  Elec       q    Type
REMARK                         _______ _______ _______ _____ _____    ______ ____
ROOT
ATOM      1  N   UNL     1      34.111 -23.889 -15.196  0.00  0.00    -0.245 N 
ATOM      2  N   UNL     1      32.798 -25.025 -13.787  0.00  0.00    -0.227 NA
ATOM      3  C   UNL     1      34.925 -24.351 -14.192  0.00  0.00    +0.130 C 
ATOM      4  C   UNL     1      32.825 -24.326 -14.903  0.00  0.00    +0.139 C 
ATOM      5  C   UNL     1      33.467 -22.777 -17.189  0.00  0.00    +0.012 C 
ATOM      6  C   UNL     1      34.436 -23.128 -16.316  0.00  0.00    +0.071 C 
ATOM      7  C   UNL     1      34.095 -25.043 -13.342  0.00  0.00    +0.120 C 
ATOM      8  C   UNL     1      31.797 -23.963 -15.818  0.00  0.00    +0.035 C 
ATOM      9  C   UNL     1      32.100 -23.227 -16.905  0.00  0.00    +0.004 C 
ENDROOT
BRANCH   5  13
ATOM     10  O   UNL     1      34.984 -19.776 -21.612  0.00  0.00    -0.414 OA
ATOM     11  N   UNL     1      36.665 -20.417 -20.232  0.00  0.00    -0.356 NA
ATOM     12  N   UNL     1      37.102 -19.112 -22.205  0.00  0.00    -0.302 N 
ATOM     13  C   UNL     1      33.820 -21.977 -18.378  0.00  0.00    -0.014 C 
ATOM     14  C   UNL     1      35.164 -21.648 -18.609  0.00  0.00    +0.089 C 
ATOM     15  C   UNL     1      32.809 -21.562 -19.254  0.00  0.00    -0.001 C 
ATOM     16  C   UNL     1      35.469 -20.887 -19.747  0.00  0.00    +0.152 C 
ATOM     17  C   UNL     1      34.437 -20.496 -20.589  0.00  0.00    +0.175 C 
ATOM     18  C   UNL     1      33.097 -20.803 -20.394  0.00  0.00    +0.040 C 
ATOM     19  C   UNL     1      36.317 -19.774 -21.326  0.00  0.00    +0.341 C 
ATOM     20  H   UNL     1      36.701 -18.671 -22.990  0.00  0.00    +0.148 HD
ATOM     21  H   UNL     1      38.075 -19.070 -22.061  0.00  0.00    +0.148 HD
ENDBRANCH   5  13
BRANCH   3  29
ATOM     22  O   UNL     1      38.953 -27.403 -14.304  0.00  0.00    -0.350 OA
ATOM     23  O   UNL     1      36.728 -23.024 -13.682  0.00  0.00    -0.268 OA
ATOM     24  N   UNL     1      37.226 -25.180 -14.433  0.00  0.00    -0.270 N 
ATOM     25  C   UNL     1      38.674 -24.999 -14.343  0.00  0.00    +0.126 C 
ATOM     26  C   UNL     1      36.811 -26.479 -14.977  0.00  0.00    +0.126 C 
ATOM     27  C   UNL     1      37.538 -27.608 -14.258  0.00  0.00    +0.164 C 
ATOM     28  C   UNL     1      39.315 -26.188 -13.642  0.00  0.00    +0.164 C 
ATOM     29  C   UNL     1      36.373 -24.133 -14.079  0.00  0.00    +0.265 C 
ENDBRANCH   3  29
TORSDOF 2
ENDMDL
MODEL 4
REMARK VINA RESULT:     -10.3      5.126     11.131
REMARK  Name = 70798655
REMARK  2 active torsions:
REMARK  status: ('A' for Active; 'I' for Inactive)
REMARK    1  A    between atoms: C_3  and  C_29
REMARK    2  A    between atoms: C_5  and  C_13
REMARK                            x       y       z     vdW  Elec       q    Type
REMARK                         _______ _______ _______ _____ _____    ______ ____
ROOT
ATOM      1  N   UNL     1      34.263 -15.972 -22.332  0.00  0.00    -0.245 N 
ATOM      2  N   UNL     1      34.340 -14.811 -24.242  0.00  0.00    -0.227 NA
ATOM      3  C   UNL     1      33.815 -14.710 -22.038  0.00  0.00    +0.130 C 
ATOM      4  C   UNL     1      34.570 -15.984 -23.688  0.00  0.00    +0.139 C 
ATOM      5  C   UNL     1      34.875 -18.239 -21.997  0.00  0.00    +0.012 C 
ATOM      6  C   UNL     1      34.409 -17.075 -21.495  0.00  0.00    +0.071 C 
ATOM      7  C   UNL     1      33.873 -14.018 -23.225  0.00  0.00    +0.120 C 
ATOM      8  C   UNL     1      35.060 -17.206 -24.227  0.00  0.00    +0.035 C 
ATOM      9  C   UNL     1      35.205 -18.279 -23.426  0.00  0.00    +0.004 C 
ENDROOT
BRANCH   5  13
ATOM     10  O   UNL     1      35.226 -22.655 -18.644  0.00  0.00    -0.414 OA
ATOM     11  N   UNL     1      33.137 -22.096 -19.323  0.00  0.00    -0.356 NA
ATOM     12  N   UNL     1      33.513 -23.976 -17.869  0.00  0.00    -0.302 N 
ATOM     13  C   UNL     1      35.020 -19.405 -21.105  0.00  0.00    -0.014 C 
ATOM     14  C   UNL     1      33.876 -20.117 -20.714  0.00  0.00    +0.089 C 
ATOM     15  C   UNL     1      36.295 -19.782 -20.664  0.00  0.00    -0.001 C 
ATOM     16  C   UNL     1      34.045 -21.221 -19.866  0.00  0.00    +0.152 C 
ATOM     17  C   UNL     1      35.325 -21.560 -19.453  0.00  0.00    +0.175 C 
ATOM     18  C   UNL     1      36.480 -20.881 -19.818  0.00  0.00    +0.040 C 
ATOM     19  C   UNL     1      33.888 -22.914 -18.618  0.00  0.00    +0.341 C 
ATOM     20  H   UNL     1      34.192 -24.504 -17.389  0.00  0.00    +0.148 HD
ATOM     21  H   UNL     1      32.562 -24.221 -17.804  0.00  0.00    +0.148 HD
ENDBRANCH   5  13
BRANCH   3  29
ATOM     22  O   UNL     1      31.201 -10.680 -20.465  0.00  0.00    -0.350 OA
ATOM     23  O   UNL     1      33.883 -14.777 -19.744  0.00  0.00    -0.268 OA
ATOM     24  N   UNL     1      32.424 -13.209 -20.676  0.00  0.00    -0.270 N 
ATOM     25  C   UNL     1      31.954 -12.710 -19.385  0.00  0.00    +0.126 C 
ATOM     26  C   UNL     1      31.761 -12.603 -21.838  0.00  0.00    +0.126 C 
ATOM     27  C   UNL     1      31.767 -11.084 -21.714  0.00  0.00    +0.164 C 
ATOM     28  C   UNL     1      31.964 -11.189 -19.368  0.00  0.00    +0.164 C 
ATOM     29  C   UNL     1      33.376 -14.229 -20.722  0.00  0.00    +0.265 C 
ENDBRANCH   3  29
TORSDOF 2
ENDMDL
MODEL 5
REMARK VINA RESULT:     -10.0      3.069      5.426
REMARK  Name = 70798655
REMARK  2 active torsions:
REMARK  status: ('A' for Active; 'I' for Inactive)
REMARK    1  A    between atoms: C_3  and  C_29
REMARK    2  A    between atoms: C_5  and  C_13
REMARK                            x       y       z     vdW  Elec       q    Type
REMARK                         _______ _______ _______ _____ _____    ______ ____
ROOT
ATOM      1  N   UNL     1      35.778 -23.003 -16.020  0.00  0.00    -0.245 N 
ATOM      2  N   UNL     1      37.417 -22.455 -17.439  0.00  0.00    -0.227 NA
ATOM      3  C   UNL     1      36.950 -23.089 -15.313  0.00  0.00    +0.130 C 
ATOM      4  C   UNL     1      36.116 -22.613 -17.311  0.00  0.00    +0.139 C 
ATOM      5  C   UNL     1      33.452 -23.098 -16.471  0.00  0.00    +0.012 C 
ATOM      6  C   UNL     1      34.473 -23.243 -15.599  0.00  0.00    +0.071 C 
ATOM      7  C   UNL     1      37.939 -22.749 -16.205  0.00  0.00    +0.120 C 
ATOM      8  C   UNL     1      35.047 -22.455 -18.236  0.00  0.00    +0.035 C 
ATOM      9  C   UNL     1      33.780 -22.684 -17.840  0.00  0.00    +0.004 C 
ENDROOT
BRANCH   5  13
ATOM     10  O   UNL     1      28.188 -23.901 -14.883  0.00  0.00    -0.414 OA
ATOM     11  N   UNL     1      28.502 -22.353 -16.509  0.00  0.00    -0.356 NA
ATOM     12  N   UNL     1      26.302 -22.856 -15.676  0.00  0.00    -0.302 N 
ATOM     13  C   UNL     1      32.071 -23.347 -16.015  0.00  0.00    -0.014 C 
ATOM     14  C   UNL     1      31.016 -22.628 -16.596  0.00  0.00    +0.089 C 
ATOM     15  C   UNL     1      31.836 -24.296 -15.012  0.00  0.00    -0.001 C 
ATOM     16  C   UNL     1      29.714 -22.886 -16.143  0.00  0.00    +0.152 C 
ATOM     17  C   UNL     1      29.526 -23.834 -15.147  0.00  0.00    +0.175 C 
ATOM     18  C   UNL     1      30.544 -24.565 -14.549  0.00  0.00    +0.040 C 
ATOM     19  C   UNL     1      27.647 -22.988 -15.737  0.00  0.00    +0.341 C 
ATOM     20  H   UNL     1      25.782 -23.403 -15.042  0.00  0.00    +0.148 HD
ATOM     21  H   UNL     1      25.843 -22.214 -16.264  0.00  0.00    +0.148 HD
ENDBRANCH   5  13
BRANCH   3  29
ATOM     22  O   UNL     1      37.443 -27.502 -12.897  0.00  0.00    -0.350 OA
ATOM     23  O   UNL     1      36.843 -22.592 -13.073  0.00  0.00    -0.268 OA
ATOM     24  N   UNL     1      37.481 -24.775 -13.604  0.00  0.00    -0.270 N 
ATOM     25  C   UNL     1      37.636 -25.190 -12.211  0.00  0.00    +0.126 C 
ATOM     26  C   UNL     1      37.844 -25.805 -14.587  0.00  0.00    +0.126 C 
ATOM     27  C   UNL     1      37.159 -27.122 -14.246  0.00  0.00    +0.164 C 
ATOM     28  C   UNL     1      36.949 -26.527 -11.976  0.00  0.00    +0.164 C 
ATOM     29  C   UNL     1      37.086 -23.470 -13.900  0.00  0.00    +0.265 C 
ENDBRANCH   3  29
TORSDOF 2
ENDMDL
MODEL 6
REMARK VINA RESULT:      -9.5      2.858      4.720
REMARK  Name = 70798655
REMARK  2 active torsions:
REMARK  status: ('A' for Active; 'I' for Inactive)
REMARK    1  A    between atoms: C_3  and  C_29
REMARK    2  A    between atoms: C_5  and  C_13
REMARK                            x       y       z     vdW  Elec       q    Type
REMARK                         _______ _______ _______ _____ _____    ______ ____
ROOT
ATOM      1  N   UNL     1      34.890 -23.030 -16.657  0.00  0.00    -0.245 N 
ATOM      2  N   UNL     1      35.688 -24.133 -14.883  0.00  0.00    -0.227 NA
ATOM      3  C   UNL     1      33.811 -23.618 -16.046  0.00  0.00    +0.130 C 
ATOM      4  C   UNL     1      36.010 -23.374 -15.909  0.00  0.00    +0.139 C 
ATOM      5  C   UNL     1      36.118 -21.754 -18.234  0.00  0.00    +0.012 C 
ATOM      6  C   UNL     1      34.933 -22.235 -17.799  0.00  0.00    +0.071 C 
ATOM      7  C   UNL     1      34.327 -24.288 -14.963  0.00  0.00    +0.120 C 
ATOM      8  C   UNL     1      37.263 -22.870 -16.358  0.00  0.00    +0.035 C 
ATOM      9  C   UNL     1      37.317 -22.099 -17.462  0.00  0.00    +0.004 C 
ENDROOT
BRANCH   5  13
ATOM     10  O   UNL     1      36.078 -18.621 -22.822  0.00  0.00    -0.414 OA
ATOM     11  N   UNL     1      34.213 -19.855 -22.455  0.00  0.00    -0.356 NA
ATOM     12  N   UNL     1      34.403 -18.428 -24.383  0.00  0.00    -0.302 N 
ATOM     13  C   UNL     1      36.155 -20.905 -19.440  0.00  0.00    -0.014 C 
ATOM     14  C   UNL     1      35.051 -20.891 -20.305  0.00  0.00    +0.089 C 
ATOM     15  C   UNL     1      37.292 -20.128 -19.701  0.00  0.00    -0.001 C 
ATOM     16  C   UNL     1      35.115 -20.075 -21.443  0.00  0.00    +0.152 C 
ATOM     17  C   UNL     1      36.259 -19.322 -21.664  0.00  0.00    +0.175 C 
ATOM     18  C   UNL     1      37.371 -19.308 -20.832  0.00  0.00    +0.040 C 
ATOM     19  C   UNL     1      34.833 -18.993 -23.232  0.00  0.00    +0.341 C 
ATOM     20  H   UNL     1      34.981 -17.792 -24.865  0.00  0.00    +0.148 HD
ATOM     21  H   UNL     1      33.514 -18.652 -24.738  0.00  0.00    +0.148 HD
ENDBRANCH   5  13
BRANCH   3  29
ATOM     22  O   UNL     1      29.419 -25.200 -14.108  0.00  0.00    -0.350 OA
ATOM     23  O   UNL     1      32.226 -23.181 -17.650  0.00  0.00    -0.268 OA
ATOM     24  N   UNL     1      31.411 -23.838 -15.561  0.00  0.00    -0.270 N 
ATOM     25  C   UNL     1      30.006 -23.754 -15.957  0.00  0.00    +0.126 C 
ATOM     26  C   UNL     1      31.624 -24.183 -14.150  0.00  0.00    +0.126 C 
ATOM     27  C   UNL     1      30.795 -25.406 -13.777  0.00  0.00    +0.164 C 
ATOM     28  C   UNL     1      29.255 -25.001 -15.515  0.00  0.00    +0.164 C 
ATOM     29  C   UNL     1      32.412 -23.530 -16.485  0.00  0.00    +0.265 C 
ENDBRANCH   3  29
TORSDOF 2
ENDMDL
MODEL 7
REMARK VINA RESULT:      -9.3      3.014      5.308
REMARK  Name = 70798655
REMARK  2 active torsions:
REMARK  status: ('A' for Active; 'I' for Inactive)
REMARK    1  A    between atoms: C_3  and  C_29
REMARK    2  A    between atoms: C_5  and  C_13
REMARK                            x       y       z     vdW  Elec       q    Type
REMARK                         _______ _______ _______ _____ _____    ______ ____
ROOT
ATOM      1  N   UNL     1      32.422 -23.991 -14.607  0.00  0.00    -0.245 N 
ATOM      2  N   UNL     1      32.501 -25.474 -12.936  0.00  0.00    -0.227 NA
ATOM      3  C   UNL     1      31.211 -23.920 -13.967  0.00  0.00    +0.130 C 
ATOM      4  C   UNL     1      33.173 -24.952 -13.941  0.00  0.00    +0.139 C 
ATOM      5  C   UNL     1      34.124 -23.506 -16.186  0.00  0.00    +0.012 C 
ATOM      6  C   UNL     1      32.881 -23.276 -15.710  0.00  0.00    +0.071 C 
ATOM      7  C   UNL     1      31.285 -24.839 -12.947  0.00  0.00    +0.120 C 
ATOM      8  C   UNL     1      34.485 -25.200 -14.433  0.00  0.00    +0.035 C 
ATOM      9  C   UNL     1      34.939 -24.514 -15.499  0.00  0.00    +0.004 C 
ENDROOT
BRANCH   5  13
ATOM     10  O   UNL     1      35.755 -20.597 -20.630  0.00  0.00    -0.414 OA
ATOM     11  N   UNL     1      33.523 -20.945 -20.444  0.00  0.00    -0.356 NA
ATOM     12  N   UNL     1      34.442 -19.708 -22.293  0.00  0.00    -0.302 N 
ATOM     13  C   UNL     1      34.606 -22.738 -17.350  0.00  0.00    -0.014 C 
ATOM     14  C   UNL     1      33.680 -22.257 -18.287  0.00  0.00    +0.089 C 
ATOM     15  C   UNL     1      35.980 -22.503 -17.500  0.00  0.00    -0.001 C 
ATOM     16  C   UNL     1      34.168 -21.531 -19.383  0.00  0.00    +0.152 C 
ATOM     17  C   UNL     1      35.535 -21.320 -19.493  0.00  0.00    +0.175 C 
ATOM     18  C   UNL     1      36.482 -21.779 -18.587  0.00  0.00    +0.040 C 
ATOM     19  C   UNL     1      34.505 -20.413 -21.140  0.00  0.00    +0.341 C 
ATOM     20  H   UNL     1      35.268 -19.367 -22.707  0.00  0.00    +0.148 HD
ATOM     21  H   UNL     1      33.571 -19.538 -22.718  0.00  0.00    +0.148 HD
ENDBRANCH   5  13
BRANCH   3  29
ATOM     22  O   UNL     1      27.340 -24.290 -17.195  0.00  0.00    -0.350 OA
ATOM     23  O   UNL     1      30.166 -21.876 -13.927  0.00  0.00    -0.268 OA
ATOM     24  N   UNL     1      29.039 -23.576 -15.065  0.00  0.00    -0.270 N 
ATOM     25  C   UNL     1      27.902 -22.733 -15.431  0.00  0.00    +0.126 C 
ATOM     26  C   UNL     1      28.909 -24.980 -15.476  0.00  0.00    +0.126 C 
ATOM     27  C   UNL     1      28.516 -25.064 -16.946  0.00  0.00    +0.164 C 
ATOM     28  C   UNL     1      27.564 -22.908 -16.904  0.00  0.00    +0.164 C 
ATOM     29  C   UNL     1      30.092 -23.038 -14.323  0.00  0.00    +0.265 C 
ENDBRANCH   3  29
TORSDOF 2
ENDMDL
MODEL 8
REMARK VINA RESULT:      -9.2      4.367     10.664
REMARK  Name = 70798655
REMARK  2 active torsions:
REMARK  status: ('A' for Active; 'I' for Inactive)
REMARK    1  A    between atoms: C_3  and  C_29
REMARK    2  A    between atoms: C_5  and  C_13
REMARK                            x       y       z     vdW  Elec       q    Type
REMARK                         _______ _______ _______ _____ _____    ______ ____
ROOT
ATOM      1  N   UNL     1      34.684 -17.291 -22.135  0.00  0.00    -0.245 N 
ATOM      2  N   UNL     1      35.137 -16.517 -24.184  0.00  0.00    -0.227 NA
ATOM      3  C   UNL     1      34.383 -15.953 -22.121  0.00  0.00    +0.130 C 
ATOM      4  C   UNL     1      35.139 -17.586 -23.415  0.00  0.00    +0.139 C 
ATOM      5  C   UNL     1      34.936 -19.513 -21.345  0.00  0.00    +0.012 C 
ATOM      6  C   UNL     1      34.581 -18.230 -21.113  0.00  0.00    +0.071 C 
ATOM      7  C   UNL     1      34.670 -15.502 -23.387  0.00  0.00    +0.120 C 
ATOM      8  C   UNL     1      35.514 -18.935 -23.670  0.00  0.00    +0.035 C 
ATOM      9  C   UNL     1      35.418 -19.852 -22.689  0.00  0.00    +0.004 C 
ENDROOT
BRANCH   5  13
ATOM     10  O   UNL     1      34.676 -23.224 -17.219  0.00  0.00    -0.414 OA
ATOM     11  N   UNL     1      36.717 -22.316 -17.601  0.00  0.00    -0.356 NA
ATOM     12  N   UNL     1      36.383 -23.943 -15.860  0.00  0.00    -0.302 N 
ATOM     13  C   UNL     1      34.817 -20.504 -20.259  0.00  0.00    -0.014 C 
ATOM     14  C   UNL     1      35.953 -20.845 -19.511  0.00  0.00    +0.089 C 
ATOM     15  C   UNL     1      33.571 -21.088 -19.993  0.00  0.00    -0.001 C 
ATOM     16  C   UNL     1      35.809 -21.790 -18.485  0.00  0.00    +0.152 C 
ATOM     17  C   UNL     1      34.557 -22.344 -18.255  0.00  0.00    +0.175 C 
ATOM     18  C   UNL     1      33.410 -22.032 -18.973  0.00  0.00    +0.040 C 
ATOM     19  C   UNL     1      35.995 -23.150 -16.884  0.00  0.00    +0.341 C 
ATOM     20  H   UNL     1      35.726 -24.524 -15.410  0.00  0.00    +0.148 HD
ATOM     21  H   UNL     1      37.322 -23.941 -15.564  0.00  0.00    +0.148 HD
ENDBRANCH   5  13
BRANCH   3  29
ATOM     22  O   UNL     1      31.736 -11.672 -21.657  0.00  0.00    -0.350 OA
ATOM     23  O   UNL     1      34.301 -15.510 -19.869  0.00  0.00    -0.268 OA
ATOM     24  N   UNL     1      32.930 -14.186 -21.221  0.00  0.00    -0.270 N 
ATOM     25  C   UNL     1      32.385 -13.413 -20.106  0.00  0.00    +0.126 C 
ATOM     26  C   UNL     1      32.354 -13.852 -22.529  0.00  0.00    +0.126 C 
ATOM     27  C   UNL     1      32.376 -12.344 -22.745  0.00  0.00    +0.164 C 
ATOM     28  C   UNL     1      32.419 -11.926 -20.426  0.00  0.00    +0.164 C 
ATOM     29  C   UNL     1      33.867 -15.192 -20.975  0.00  0.00    +0.265 C 
ENDBRANCH   3  29
TORSDOF 2
ENDMDL
MODEL 9
REMARK VINA RESULT:      -9.1      1.807      2.548
REMARK  Name = 70798655
REMARK  2 active torsions:
REMARK  status: ('A' for Active; 'I' for Inactive)
REMARK    1  A    between atoms: C_3  and  C_29
REMARK    2  A    between atoms: C_5  and  C_13
REMARK                            x       y       z     vdW  Elec       q    Type
REMARK                         _______ _______ _______ _____ _____    ______ ____
ROOT
ATOM      1  N   UNL     1      35.579 -24.399 -13.126  0.00  0.00    -0.245 N 
ATOM      2  N   UNL     1      34.554 -25.265 -11.338  0.00  0.00    -0.227 NA
ATOM      3  C   UNL     1      36.563 -24.687 -12.215  0.00  0.00    +0.130 C 
ATOM      4  C   UNL     1      34.372 -24.770 -12.544  0.00  0.00    +0.139 C 
ATOM      5  C   UNL     1      34.575 -23.642 -15.138  0.00  0.00    +0.012 C 
ATOM      6  C   UNL     1      35.688 -23.845 -14.399  0.00  0.00    +0.071 C 
ATOM      7  C   UNL     1      35.909 -25.216 -11.128  0.00  0.00    +0.120 C 
ATOM      8  C   UNL     1      33.195 -24.562 -13.315  0.00  0.00    +0.035 C 
ATOM      9  C   UNL     1      33.289 -24.027 -14.548  0.00  0.00    +0.004 C 
ENDROOT
BRANCH   5  13
ATOM     10  O   UNL     1      35.219 -21.387 -20.174  0.00  0.00    -0.414 OA
ATOM     11  N   UNL     1      36.921 -21.046 -18.717  0.00  0.00    -0.356 NA
ATOM     12  N   UNL     1      36.997 -20.156 -20.951  0.00  0.00    -0.302 N 
ATOM     13  C   UNL     1      34.700 -23.062 -16.489  0.00  0.00    -0.014 C 
ATOM     14  C   UNL     1      35.851 -22.332 -16.819  0.00  0.00    +0.089 C 
ATOM     15  C   UNL     1      33.668 -23.251 -17.418  0.00  0.00    -0.001 C 
ATOM     16  C   UNL     1      35.941 -21.793 -18.111  0.00  0.00    +0.152 C 
ATOM     17  C   UNL     1      34.897 -22.003 -18.999  0.00  0.00    +0.175 C 
ATOM     18  C   UNL     1      33.743 -22.720 -18.710  0.00  0.00    +0.040 C 
ATOM     19  C   UNL     1      36.441 -20.839 -19.924  0.00  0.00    +0.341 C 
ATOM     20  H   UNL     1      36.519 -20.082 -21.809  0.00  0.00    +0.148 HD
ATOM     21  H   UNL     1      37.879 -19.734 -20.841  0.00  0.00    +0.148 HD
ENDBRANCH   5  13
BRANCH   3  29
ATOM     22  O   UNL     1      40.220 -27.162 -14.675  0.00  0.00    -0.350 OA
ATOM     23  O   UNL     1      38.521 -23.623 -11.660  0.00  0.00    -0.268 OA
ATOM     24  N   UNL     1      38.669 -25.203 -13.375  0.00  0.00    -0.270 N 
ATOM     25  C   UNL     1      40.101 -25.002 -13.590  0.00  0.00    +0.126 C 
ATOM     26  C   UNL     1      38.043 -26.153 -14.304  0.00  0.00    +0.126 C 
ATOM     27  C   UNL     1      38.853 -27.442 -14.362  0.00  0.00    +0.164 C 
ATOM     28  C   UNL     1      40.818 -26.342 -13.667  0.00  0.00    +0.164 C 
ATOM     29  C   UNL     1      38.004 -24.463 -12.395  0.00  0.00    +0.265 C 
ENDBRANCH   3  29
TORSDOF 2
ENDMDL
