MODEL 1
REMARK VINA RESULT:     -11.8      0.000      0.000
REMARK  Name = 11974440
REMARK  4 active torsions:
REMARK  status: ('A' for Active; 'I' for Inactive)
REMARK    1  A    between atoms: C_1  and  C_25
REMARK    2  A    between atoms: C_2  and  N_31
REMARK    3  A    between atoms: C_5  and  C_12
REMARK    4  A    between atoms: C_17  and  C_21
REMARK                            x       y       z     vdW  Elec       q    Type
REMARK                         _______ _______ _______ _____ _____    ______ ____
ROOT
ATOM      1  C   UNL     1      34.595 -20.079 -20.157  0.00  0.00    +0.009 C 
ATOM      2  C   UNL     1      35.685 -21.168 -19.981  0.00  0.00    -0.057 C 
ATOM      3  C   UNL     1      35.494 -21.912 -18.643  0.00  0.00    +0.009 C 
ATOM      4  C   UNL     1      33.184 -20.711 -20.109  0.00  0.00    +0.028 C 
ATOM      5  C   UNL     1      34.064 -22.279 -18.381  0.00  0.00    +0.025 C 
ATOM      6  C   UNL     1      33.024 -21.753 -19.042  0.00  0.00    -0.026 C 
ENDROOT
BRANCH   5  12
ATOM      7  O   UNL     1      32.785 -24.007 -17.501  0.00  0.00    -0.270 OA
ATOM      8  N   UNL     1      34.653 -23.379 -16.267  0.00  0.00    -0.267 N 
ATOM      9  N   UNL     1      36.900 -24.483 -15.116  0.00  0.00    -0.292 N 
ATOM     10  N   UNL     1      35.867 -26.076 -14.041  0.00  0.00    -0.132 NA
ATOM     11  N   UNL     1      37.232 -26.246 -13.887  0.00  0.00    -0.125 NA
ATOM     12  C   UNL     1      33.777 -23.292 -17.346  0.00  0.00    +0.245 C 
ATOM     13  C   UNL     1      35.805 -22.492 -16.010  0.00  0.00    +0.119 C 
ATOM     14  C   UNL     1      34.401 -24.386 -15.225  0.00  0.00    +0.160 C 
ATOM     15  C   UNL     1      37.089 -23.316 -15.949  0.00  0.00    +0.130 C 
ATOM     16  C   UNL     1      35.679 -25.008 -14.788  0.00  0.00    +0.164 A 
ATOM     17  C   UNL     1      37.834 -25.278 -14.542  0.00  0.00    +0.238 A 
BRANCH  17  21
ATOM     18  F   UNL     1      39.971 -26.113 -15.220  0.00  0.00    -0.163 F 
ATOM     19  F   UNL     1      39.629 -23.983 -15.447  0.00  0.00    -0.163 F 
ATOM     20  F   UNL     1      39.907 -24.831 -13.465  0.00  0.00    -0.163 F 
ATOM     21  C   UNL     1      39.286 -25.059 -14.667  0.00  0.00    +0.452 C 
ENDBRANCH  17  21
ENDBRANCH   5  12
BRANCH   1  25
ATOM     22  F   UNL     1      35.324 -17.337 -20.123  0.00  0.00    -0.204 F 
ATOM     23  F   UNL     1      34.465 -19.616 -25.020  0.00  0.00    -0.202 F 
ATOM     24  F   UNL     1      35.174 -16.982 -24.839  0.00  0.00    -0.202 F 
ATOM     25  C   UNL     1      34.753 -19.242 -21.418  0.00  0.00    +0.006 C 
ATOM     26  C   UNL     1      35.114 -17.903 -21.320  0.00  0.00    +0.138 C 
ATOM     27  C   UNL     1      34.533 -19.826 -22.662  0.00  0.00    +0.030 C 
ATOM     28  C   UNL     1      34.676 -19.061 -23.819  0.00  0.00    +0.167 C 
ATOM     29  C   UNL     1      35.258 -17.138 -22.477  0.00  0.00    +0.061 C 
ATOM     30  C   UNL     1      35.039 -17.718 -23.727  0.00  0.00    +0.170 C 
ENDBRANCH   1  25
BRANCH   2  31
ATOM     31  N   UNL     1      37.032 -20.592 -20.026  0.00  0.00    +0.382 N 
ATOM     32  H   UNL     1      37.616 -21.040 -19.320  0.00  0.00    -0.089 HD
ATOM     33  H   UNL     1      36.979 -19.591 -19.840  0.00  0.00    -0.089 HD
ATOM     34  H   UNL     1      37.436 -20.747 -20.950  0.00  0.00    -0.089 HD
ENDBRANCH   2  31
TORSDOF 4
ENDMDL
MODEL 2
REMARK VINA RESULT:     -11.7      3.694      4.638
REMARK  Name = 11974440
REMARK  4 active torsions:
REMARK  status: ('A' for Active; 'I' for Inactive)
REMARK    1  A    between atoms: C_1  and  C_25
REMARK    2  A    between atoms: C_2  and  N_31
REMARK    3  A    between atoms: C_5  and  C_12
REMARK    4  A    between atoms: C_17  and  C_21
REMARK                            x       y       z     vdW  Elec       q    Type
REMARK                         _______ _______ _______ _____ _____    ______ ____
ROOT
ATOM      1  C   UNL     1      35.249 -20.376 -21.014  0.00  0.00    +0.009 C 
ATOM      2  C   UNL     1      34.070 -20.513 -20.016  0.00  0.00    -0.057 C 
ATOM      3  C   UNL     1      34.297 -21.714 -19.074  0.00  0.00    +0.009 C 
ATOM      4  C   UNL     1      36.584 -20.196 -20.255  0.00  0.00    +0.028 C 
ATOM      5  C   UNL     1      35.697 -21.780 -18.544  0.00  0.00    +0.025 C 
ATOM      6  C   UNL     1      36.726 -21.094 -19.061  0.00  0.00    -0.026 C 
ENDROOT
BRANCH   5  12
ATOM      7  O   UNL     1      37.075 -22.554 -16.842  0.00  0.00    -0.270 OA
ATOM      8  N   UNL     1      34.941 -23.473 -16.936  0.00  0.00    -0.267 N 
ATOM      9  N   UNL     1      32.746 -23.900 -15.326  0.00  0.00    -0.292 N 
ATOM     10  N   UNL     1      33.828 -24.836 -13.680  0.00  0.00    -0.132 NA
ATOM     11  N   UNL     1      32.505 -24.669 -13.307  0.00  0.00    -0.125 NA
ATOM     12  C   UNL     1      35.965 -22.637 -17.371  0.00  0.00    +0.245 C 
ATOM     13  C   UNL     1      33.629 -23.653 -17.589  0.00  0.00    +0.119 C 
ATOM     14  C   UNL     1      35.172 -24.330 -15.763  0.00  0.00    +0.160 C 
ATOM     15  C   UNL     1      32.512 -23.286 -16.615  0.00  0.00    +0.130 C 
ATOM     16  C   UNL     1      33.961 -24.365 -14.902  0.00  0.00    +0.164 A 
ATOM     17  C   UNL     1      31.873 -24.104 -14.311  0.00  0.00    +0.238 A 
BRANCH  17  21
ATOM     18  F   UNL     1      30.227 -22.379 -14.509  0.00  0.00    -0.163 F 
ATOM     19  F   UNL     1      29.753 -24.298 -15.400  0.00  0.00    -0.163 F 
ATOM     20  F   UNL     1      29.751 -24.077 -13.237  0.00  0.00    -0.163 F 
ATOM     21  C   UNL     1      30.450 -23.726 -14.365  0.00  0.00    +0.452 C 
ENDBRANCH  17  21
ENDBRANCH   5  12
BRANCH   1  25
ATOM     22  F   UNL     1      34.845 -20.847 -23.783  0.00  0.00    -0.204 F 
ATOM     23  F   UNL     1      34.977 -15.630 -22.148  0.00  0.00    -0.202 F 
ATOM     24  F   UNL     1      34.594 -16.231 -24.788  0.00  0.00    -0.202 F 
ATOM     25  C   UNL     1      35.071 -19.260 -22.033  0.00  0.00    +0.006 C 
ATOM     26  C   UNL     1      34.876 -19.571 -23.375  0.00  0.00    +0.138 C 
ATOM     27  C   UNL     1      35.106 -17.934 -21.614  0.00  0.00    +0.030 C 
ATOM     28  C   UNL     1      34.944 -16.909 -22.546  0.00  0.00    +0.167 C 
ATOM     29  C   UNL     1      34.714 -18.547 -24.307  0.00  0.00    +0.061 C 
ATOM     30  C   UNL     1      34.747 -17.215 -23.892  0.00  0.00    +0.170 C 
ENDBRANCH   1  25
BRANCH   2  31
ATOM     31  N   UNL     1      32.792 -20.680 -20.714  0.00  0.00    +0.382 N 
ATOM     32  H   UNL     1      32.609 -21.675 -20.854  0.00  0.00    -0.089 HD
ATOM     33  H   UNL     1      32.836 -20.213 -21.619  0.00  0.00    -0.089 HD
ATOM     34  H   UNL     1      32.043 -20.273 -20.155  0.00  0.00    -0.089 HD
ENDBRANCH   2  31
TORSDOF 4
ENDMDL
MODEL 3
REMARK VINA RESULT:     -11.5      3.835      9.968
REMARK  Name = 11974440
REMARK  4 active torsions:
REMARK  status: ('A' for Active; 'I' for Inactive)
REMARK    1  A    between atoms: C_1  and  C_25
REMARK    2  A    between atoms: C_2  and  N_31
REMARK    3  A    between atoms: C_5  and  C_12
REMARK    4  A    between atoms: C_17  and  C_21
REMARK                            x       y       z     vdW  Elec       q    Type
REMARK                         _______ _______ _______ _____ _____    ______ ____
ROOT
ATOM      1  C   UNL     1      34.703 -22.128 -18.926  0.00  0.00    +0.009 C 
ATOM      2  C   UNL     1      35.992 -21.279 -19.077  0.00  0.00    -0.057 C 
ATOM      3  C   UNL     1      36.165 -20.815 -20.538  0.00  0.00    +0.009 C 
ATOM      4  C   UNL     1      33.463 -21.315 -19.365  0.00  0.00    +0.028 C 
ATOM      5  C   UNL     1      34.892 -20.301 -21.140  0.00  0.00    +0.025 C 
ATOM      6  C   UNL     1      33.678 -20.511 -20.614  0.00  0.00    -0.026 C 
ENDROOT
BRANCH   5  12
ATOM      7  O   UNL     1      34.902 -20.095 -23.453  0.00  0.00    -0.270 OA
ATOM      8  N   UNL     1      35.115 -18.121 -22.245  0.00  0.00    -0.267 N 
ATOM      9  N   UNL     1      33.967 -15.623 -22.048  0.00  0.00    -0.292 N 
ATOM     10  N   UNL     1      34.057 -15.144 -24.174  0.00  0.00    -0.132 NA
ATOM     11  N   UNL     1      33.369 -14.138 -23.519  0.00  0.00    -0.125 NA
ATOM     12  C   UNL     1      34.974 -19.499 -22.377  0.00  0.00    +0.245 C 
ATOM     13  C   UNL     1      35.280 -17.381 -20.977  0.00  0.00    +0.119 C 
ATOM     14  C   UNL     1      35.187 -17.292 -23.459  0.00  0.00    +0.160 C 
ATOM     15  C   UNL     1      34.150 -16.366 -20.820  0.00  0.00    +0.130 C 
ATOM     16  C   UNL     1      34.411 -16.037 -23.274  0.00  0.00    +0.164 A 
ATOM     17  C   UNL     1      33.325 -14.446 -22.242  0.00  0.00    +0.238 A 
BRANCH  17  21
ATOM     18  F   UNL     1      32.056 -12.528 -21.583  0.00  0.00    -0.163 F 
ATOM     19  F   UNL     1      31.717 -14.360 -20.474  0.00  0.00    -0.163 F 
ATOM     20  F   UNL     1      33.568 -13.254 -20.199  0.00  0.00    -0.163 F 
ATOM     21  C   UNL     1      32.686 -13.674 -21.163  0.00  0.00    +0.452 C 
ENDBRANCH  17  21
ENDBRANCH   5  12
BRANCH   1  25
ATOM     22  F   UNL     1      32.185 -23.021 -17.972  0.00  0.00    -0.204 F 
ATOM     23  F   UNL     1      36.417 -23.392 -14.528  0.00  0.00    -0.202 F 
ATOM     24  F   UNL     1      33.933 -24.216 -13.740  0.00  0.00    -0.202 F 
ATOM     25  C   UNL     1      34.493 -22.693 -17.529  0.00  0.00    +0.006 C 
ATOM     26  C   UNL     1      33.227 -23.111 -17.134  0.00  0.00    +0.138 C 
ATOM     27  C   UNL     1      35.572 -22.785 -16.656  0.00  0.00    +0.030 C 
ATOM     28  C   UNL     1      35.383 -23.301 -15.374  0.00  0.00    +0.167 C 
ATOM     29  C   UNL     1      33.037 -23.627 -15.852  0.00  0.00    +0.061 C 
ATOM     30  C   UNL     1      34.116 -23.723 -14.972  0.00  0.00    +0.170 C 
ENDBRANCH   1  25
BRANCH   2  31
ATOM     31  N   UNL     1      37.181 -22.029 -18.663  0.00  0.00    +0.382 N 
ATOM     32  H   UNL     1      37.884 -21.985 -19.401  0.00  0.00    -0.089 HD
ATOM     33  H   UNL     1      36.927 -23.001 -18.493  0.00  0.00    -0.089 HD
ATOM     34  H   UNL     1      37.560 -21.621 -17.808  0.00  0.00    -0.089 HD
ENDBRANCH   2  31
TORSDOF 4
ENDMDL
MODEL 4
REMARK VINA RESULT:     -11.3      3.624      4.450
REMARK  Name = 11974440
REMARK  4 active torsions:
REMARK  status: ('A' for Active; 'I' for Inactive)
REMARK    1  A    between atoms: C_1  and  C_25
REMARK    2  A    between atoms: C_2  and  N_31
REMARK    3  A    between atoms: C_5  and  C_12
REMARK    4  A    between atoms: C_17  and  C_21
REMARK                            x       y       z     vdW  Elec       q    Type
REMARK                         _______ _______ _______ _____ _____    ______ ____
ROOT
ATOM      1  C   UNL     1      35.207 -20.614 -20.814  0.00  0.00    +0.009 C 
ATOM      2  C   UNL     1      34.030 -20.655 -19.805  0.00  0.00    -0.057 C 
ATOM      3  C   UNL     1      34.208 -21.822 -18.813  0.00  0.00    +0.009 C 
ATOM      4  C   UNL     1      36.554 -20.463 -20.069  0.00  0.00    +0.028 C 
ATOM      5  C   UNL     1      35.608 -21.929 -18.287  0.00  0.00    +0.025 C 
ATOM      6  C   UNL     1      36.663 -21.313 -18.837  0.00  0.00    -0.026 C 
ENDROOT
BRANCH   5  12
ATOM      7  O   UNL     1      36.920 -22.606 -16.494  0.00  0.00    -0.270 OA
ATOM      8  N   UNL     1      34.831 -23.611 -16.677  0.00  0.00    -0.267 N 
ATOM      9  N   UNL     1      32.570 -24.086 -15.176  0.00  0.00    -0.292 N 
ATOM     10  N   UNL     1      33.596 -24.938 -13.450  0.00  0.00    -0.132 NA
ATOM     11  N   UNL     1      32.250 -24.814 -13.152  0.00  0.00    -0.125 NA
ATOM     12  C   UNL     1      35.844 -22.745 -17.079  0.00  0.00    +0.245 C 
ATOM     13  C   UNL     1      33.565 -23.859 -17.394  0.00  0.00    +0.119 C 
ATOM     14  C   UNL     1      35.031 -24.430 -15.471  0.00  0.00    +0.160 C 
ATOM     15  C   UNL     1      32.383 -23.514 -16.491  0.00  0.00    +0.130 C 
ATOM     16  C   UNL     1      33.777 -24.492 -14.675  0.00  0.00    +0.164 A 
ATOM     17  C   UNL     1      31.651 -24.299 -14.203  0.00  0.00    +0.238 A 
BRANCH  17  21
ATOM     18  F   UNL     1      29.931 -22.639 -14.284  0.00  0.00    -0.163 F 
ATOM     19  F   UNL     1      29.661 -24.396 -15.526  0.00  0.00    -0.163 F 
ATOM     20  F   UNL     1      29.438 -24.549 -13.369  0.00  0.00    -0.163 F 
ATOM     21  C   UNL     1      30.220 -23.980 -14.343  0.00  0.00    +0.452 C 
ENDBRANCH  17  21
ENDBRANCH   5  12
BRANCH   1  25
ATOM     22  F   UNL     1      35.795 -17.878 -20.343  0.00  0.00    -0.204 F 
ATOM     23  F   UNL     1      34.099 -19.223 -25.365  0.00  0.00    -0.202 F 
ATOM     24  F   UNL     1      34.702 -16.624 -24.772  0.00  0.00    -0.202 F 
ATOM     25  C   UNL     1      35.073 -19.536 -21.879  0.00  0.00    +0.006 C 
ATOM     26  C   UNL     1      35.381 -18.215 -21.572  0.00  0.00    +0.138 C 
ATOM     27  C   UNL     1      34.640 -19.882 -23.156  0.00  0.00    +0.030 C 
ATOM     28  C   UNL     1      34.516 -18.897 -24.135  0.00  0.00    +0.167 C 
ATOM     29  C   UNL     1      35.257 -17.230 -22.551  0.00  0.00    +0.061 C 
ATOM     30  C   UNL     1      34.824 -17.571 -23.833  0.00  0.00    +0.170 C 
ENDBRANCH   1  25
BRANCH   2  31
ATOM     31  N   UNL     1      32.741 -20.794 -20.490  0.00  0.00    +0.382 N 
ATOM     32  H   UNL     1      32.570 -21.779 -20.693  0.00  0.00    -0.089 HD
ATOM     33  H   UNL     1      32.761 -20.265 -21.361  0.00  0.00    -0.089 HD
ATOM     34  H   UNL     1      31.997 -20.437 -19.890  0.00  0.00    -0.089 HD
ENDBRANCH   2  31
TORSDOF 4
ENDMDL
MODEL 5
REMARK VINA RESULT:     -11.3      3.786     10.026
REMARK  Name = 11974440
REMARK  4 active torsions:
REMARK  status: ('A' for Active; 'I' for Inactive)
REMARK    1  A    between atoms: C_1  and  C_25
REMARK    2  A    between atoms: C_2  and  N_31
REMARK    3  A    between atoms: C_5  and  C_12
REMARK    4  A    between atoms: C_17  and  C_21
REMARK                            x       y       z     vdW  Elec       q    Type
REMARK                         _______ _______ _______ _____ _____    ______ ____
ROOT
ATOM      1  C   UNL     1      35.122 -21.404 -18.579  0.00  0.00    +0.009 C 
ATOM      2  C   UNL     1      33.876 -21.653 -19.468  0.00  0.00    -0.057 C 
ATOM      3  C   UNL     1      33.752 -20.556 -20.545  0.00  0.00    +0.009 C 
ATOM      4  C   UNL     1      36.406 -21.373 -19.441  0.00  0.00    +0.028 C 
ATOM      5  C   UNL     1      35.059 -20.247 -21.211  0.00  0.00    +0.025 C 
ATOM      6  C   UNL     1      36.252 -20.619 -20.729  0.00  0.00    -0.026 C 
ENDROOT
BRANCH   5  12
ATOM      7  O   UNL     1      34.890 -20.146 -23.526  0.00  0.00    -0.270 OA
ATOM      8  N   UNL     1      35.175 -18.117 -22.427  0.00  0.00    -0.267 N 
ATOM      9  N   UNL     1      34.021 -15.621 -22.255  0.00  0.00    -0.292 N 
ATOM     10  N   UNL     1      33.944 -15.238 -24.401  0.00  0.00    -0.132 NA
ATOM     11  N   UNL     1      33.298 -14.207 -23.740  0.00  0.00    -0.125 NA
ATOM     12  C   UNL     1      35.038 -19.501 -22.486  0.00  0.00    +0.245 C 
ATOM     13  C   UNL     1      35.429 -17.320 -21.210  0.00  0.00    +0.119 C 
ATOM     14  C   UNL     1      35.146 -17.344 -23.679  0.00  0.00    +0.160 C 
ATOM     15  C   UNL     1      34.305 -16.305 -21.012  0.00  0.00    +0.130 C 
ATOM     16  C   UNL     1      34.375 -16.087 -23.491  0.00  0.00    +0.164 A 
ATOM     17  C   UNL     1      33.355 -14.458 -22.451  0.00  0.00    +0.238 A 
BRANCH  17  21
ATOM     18  F   UNL     1      31.719 -14.211 -20.723  0.00  0.00    -0.163 F 
ATOM     19  F   UNL     1      33.679 -13.360 -20.351  0.00  0.00    -0.163 F 
ATOM     20  F   UNL     1      32.340 -12.415 -21.779  0.00  0.00    -0.163 F 
ATOM     21  C   UNL     1      32.793 -13.641 -21.362  0.00  0.00    +0.452 C 
ENDBRANCH  17  21
ENDBRANCH   5  12
BRANCH   1  25
ATOM     22  F   UNL     1      37.558 -21.789 -17.176  0.00  0.00    -0.204 F 
ATOM     23  F   UNL     1      33.289 -24.831 -15.618  0.00  0.00    -0.202 F 
ATOM     24  F   UNL     1      35.697 -25.099 -14.352  0.00  0.00    -0.202 F 
ATOM     25  C   UNL     1      35.279 -22.398 -17.438  0.00  0.00    +0.006 C 
ATOM     26  C   UNL     1      36.507 -22.530 -16.798  0.00  0.00    +0.138 C 
ATOM     27  C   UNL     1      34.191 -23.171 -17.045  0.00  0.00    +0.030 C 
ATOM     28  C   UNL     1      34.332 -24.084 -16.001  0.00  0.00    +0.167 C 
ATOM     29  C   UNL     1      36.648 -23.443 -15.753  0.00  0.00    +0.061 C 
ATOM     30  C   UNL     1      35.560 -24.220 -15.354  0.00  0.00    +0.170 C 
ENDBRANCH   1  25
BRANCH   2  31
ATOM     31  N   UNL     1      32.647 -21.690 -18.670  0.00  0.00    +0.382 N 
ATOM     32  H   UNL     1      32.884 -21.638 -17.679  0.00  0.00    -0.089 HD
ATOM     33  H   UNL     1      32.148 -22.559 -18.856  0.00  0.00    -0.089 HD
ATOM     34  H   UNL     1      32.056 -20.897 -18.920  0.00  0.00    -0.089 HD
ENDBRANCH   2  31
TORSDOF 4
ENDMDL
MODEL 6
REMARK VINA RESULT:     -11.3      0.728      1.518
REMARK  Name = 11974440
REMARK  4 active torsions:
REMARK  status: ('A' for Active; 'I' for Inactive)
REMARK    1  A    between atoms: C_1  and  C_25
REMARK    2  A    between atoms: C_2  and  N_31
REMARK    3  A    between atoms: C_5  and  C_12
REMARK    4  A    between atoms: C_17  and  C_21
REMARK                            x       y       z     vdW  Elec       q    Type
REMARK                         _______ _______ _______ _____ _____    ______ ____
ROOT
ATOM      1  C   UNL     1      34.635 -19.924 -20.147  0.00  0.00    +0.009 C 
ATOM      2  C   UNL     1      35.710 -21.036 -20.039  0.00  0.00    -0.057 C 
ATOM      3  C   UNL     1      35.496 -21.871 -18.759  0.00  0.00    +0.009 C 
ATOM      4  C   UNL     1      33.216 -20.540 -20.158  0.00  0.00    +0.028 C 
ATOM      5  C   UNL     1      34.060 -22.237 -18.538  0.00  0.00    +0.025 C 
ATOM      6  C   UNL     1      33.033 -21.653 -19.169  0.00  0.00    -0.026 C 
ENDROOT
BRANCH   5  12
ATOM      7  O   UNL     1      32.803 -24.062 -17.841  0.00  0.00    -0.270 OA
ATOM      8  N   UNL     1      34.556 -23.430 -16.451  0.00  0.00    -0.267 N 
ATOM      9  N   UNL     1      36.769 -24.506 -15.210  0.00  0.00    -0.292 N 
ATOM     10  N   UNL     1      35.739 -26.197 -14.295  0.00  0.00    -0.132 NA
ATOM     11  N   UNL     1      37.097 -26.321 -14.058  0.00  0.00    -0.125 NA
ATOM     12  C   UNL     1      33.750 -23.318 -17.580  0.00  0.00    +0.245 C 
ATOM     13  C   UNL     1      35.649 -22.513 -16.068  0.00  0.00    +0.119 C 
ATOM     14  C   UNL     1      34.281 -24.504 -15.483  0.00  0.00    +0.160 C 
ATOM     15  C   UNL     1      36.961 -23.287 -15.965  0.00  0.00    +0.130 C 
ATOM     16  C   UNL     1      35.554 -25.097 -14.995  0.00  0.00    +0.164 A 
ATOM     17  C   UNL     1      37.698 -25.294 -14.617  0.00  0.00    +0.238 A 
BRANCH  17  21
ATOM     18  F   UNL     1      39.919 -26.045 -15.094  0.00  0.00    -0.163 F 
ATOM     19  F   UNL     1      39.501 -23.941 -15.415  0.00  0.00    -0.163 F 
ATOM     20  F   UNL     1      39.653 -24.719 -13.391  0.00  0.00    -0.163 F 
ATOM     21  C   UNL     1      39.143 -25.010 -14.631  0.00  0.00    +0.452 C 
ENDBRANCH  17  21
ENDBRANCH   5  12
BRANCH   1  25
ATOM     22  F   UNL     1      34.860 -20.862 -22.815  0.00  0.00    -0.204 F 
ATOM     23  F   UNL     1      35.108 -15.452 -22.059  0.00  0.00    -0.202 F 
ATOM     24  F   UNL     1      35.310 -16.494 -24.578  0.00  0.00    -0.202 F 
ATOM     25  C   UNL     1      34.815 -19.001 -21.343  0.00  0.00    +0.006 C 
ATOM     26  C   UNL     1      34.918 -19.537 -22.623  0.00  0.00    +0.138 C 
ATOM     27  C   UNL     1      34.879 -17.625 -21.147  0.00  0.00    +0.030 C 
ATOM     28  C   UNL     1      35.045 -16.777 -22.242  0.00  0.00    +0.167 C 
ATOM     29  C   UNL     1      35.084 -18.690 -23.718  0.00  0.00    +0.061 C 
ATOM     30  C   UNL     1      35.148 -17.309 -23.527  0.00  0.00    +0.170 C 
ENDBRANCH   1  25
BRANCH   2  31
ATOM     31  N   UNL     1      37.064 -20.475 -20.030  0.00  0.00    +0.382 N 
ATOM     32  H   UNL     1      37.487 -20.624 -19.114  0.00  0.00    -0.089 HD
ATOM     33  H   UNL     1      37.018 -19.475 -20.225  0.00  0.00    -0.089 HD
ATOM     34  H   UNL     1      37.628 -20.936 -20.744  0.00  0.00    -0.089 HD
ENDBRANCH   2  31
TORSDOF 4
ENDMDL
MODEL 7
REMARK VINA RESULT:     -11.0      1.661      2.194
REMARK  Name = 11974440
REMARK  4 active torsions:
REMARK  status: ('A' for Active; 'I' for Inactive)
REMARK    1  A    between atoms: C_1  and  C_25
REMARK    2  A    between atoms: C_2  and  N_31
REMARK    3  A    between atoms: C_5  and  C_12
REMARK    4  A    between atoms: C_17  and  C_21
REMARK                            x       y       z     vdW  Elec       q    Type
REMARK                         _______ _______ _______ _____ _____    ______ ____
ROOT
ATOM      1  C   UNL     1      35.217 -21.689 -19.562  0.00  0.00    +0.009 C 
ATOM      2  C   UNL     1      33.805 -21.636 -18.924  0.00  0.00    -0.057 C 
ATOM      3  C   UNL     1      33.617 -22.800 -17.929  0.00  0.00    +0.009 C 
ATOM      4  C   UNL     1      36.309 -21.621 -18.468  0.00  0.00    +0.028 C 
ATOM      5  C   UNL     1      34.803 -22.994 -17.033  0.00  0.00    +0.025 C 
ATOM      6  C   UNL     1      36.010 -22.460 -17.261  0.00  0.00    -0.026 C 
ENDROOT
BRANCH   5  12
ATOM      7  O   UNL     1      33.556 -24.383 -15.650  0.00  0.00    -0.270 OA
ATOM      8  N   UNL     1      35.710 -23.883 -14.932  0.00  0.00    -0.267 N 
ATOM      9  N   UNL     1      38.010 -25.147 -14.093  0.00  0.00    -0.292 N 
ATOM     10  N   UNL     1      37.060 -26.414 -12.593  0.00  0.00    -0.132 NA
ATOM     11  N   UNL     1      38.396 -26.764 -12.690  0.00  0.00    -0.125 NA
ATOM     12  C   UNL     1      34.634 -23.809 -15.812  0.00  0.00    +0.245 C 
ATOM     13  C   UNL     1      36.986 -23.150 -15.055  0.00  0.00    +0.119 C 
ATOM     14  C   UNL     1      35.578 -24.696 -13.713  0.00  0.00    +0.160 C 
ATOM     15  C   UNL     1      38.146 -24.141 -15.123  0.00  0.00    +0.130 C 
ATOM     16  C   UNL     1      36.839 -25.437 -13.448  0.00  0.00    +0.164 A 
ATOM     17  C   UNL     1      38.948 -25.990 -13.598  0.00  0.00    +0.238 A 
BRANCH  17  21
ATOM     18  F   UNL     1      41.108 -27.013 -13.496  0.00  0.00    -0.163 F 
ATOM     19  F   UNL     1      40.511 -26.163 -15.400  0.00  0.00    -0.163 F 
ATOM     20  F   UNL     1      41.032 -24.854 -13.745  0.00  0.00    -0.163 F 
ATOM     21  C   UNL     1      40.352 -26.007 -14.045  0.00  0.00    +0.452 C 
ENDBRANCH  17  21
ENDBRANCH   5  12
BRANCH   1  25
ATOM     22  F   UNL     1      37.429 -19.913 -19.492  0.00  0.00    -0.204 F 
ATOM     23  F   UNL     1      33.939 -19.366 -23.666  0.00  0.00    -0.202 F 
ATOM     24  F   UNL     1      36.115 -17.722 -23.474  0.00  0.00    -0.202 F 
ATOM     25  C   UNL     1      35.462 -20.620 -20.616  0.00  0.00    +0.006 C 
ATOM     26  C   UNL     1      36.571 -19.786 -20.513  0.00  0.00    +0.138 C 
ATOM     27  C   UNL     1      34.572 -20.483 -21.676  0.00  0.00    +0.030 C 
ATOM     28  C   UNL     1      34.793 -19.503 -22.643  0.00  0.00    +0.167 C 
ATOM     29  C   UNL     1      36.793 -18.806 -21.480  0.00  0.00    +0.061 C 
ATOM     30  C   UNL     1      35.903 -18.665 -22.546  0.00  0.00    +0.170 C 
ENDBRANCH   1  25
BRANCH   2  31
ATOM     31  N   UNL     1      32.753 -21.696 -19.943  0.00  0.00    +0.382 N 
ATOM     32  H   UNL     1      31.846 -21.806 -19.489  0.00  0.00    -0.089 HD
ATOM     33  H   UNL     1      32.923 -22.489 -20.560  0.00  0.00    -0.089 HD
ATOM     34  H   UNL     1      32.758 -20.833 -20.487  0.00  0.00    -0.089 HD
ENDBRANCH   2  31
TORSDOF 4
ENDMDL
MODEL 8
REMARK VINA RESULT:     -10.9     10.394     16.153
REMARK  Name = 11974440
REMARK  4 active torsions:
REMARK  status: ('A' for Active; 'I' for Inactive)
REMARK    1  A    between atoms: C_1  and  C_25
REMARK    2  A    between atoms: C_2  and  N_31
REMARK    3  A    between atoms: C_5  and  C_12
REMARK    4  A    between atoms: C_17  and  C_21
REMARK                            x       y       z     vdW  Elec       q    Type
REMARK                         _______ _______ _______ _____ _____    ______ ____
ROOT
ATOM      1  C   UNL     1      32.948 -12.347 -23.280  0.00  0.00    +0.009 C 
ATOM      2  C   UNL     1      34.015 -11.222 -23.250  0.00  0.00    -0.057 C 
ATOM      3  C   UNL     1      33.349  -9.850 -23.021  0.00  0.00    +0.009 C 
ATOM      4  C   UNL     1      32.148 -12.371 -21.955  0.00  0.00    +0.028 C 
ATOM      5  C   UNL     1      32.310  -9.882 -21.941  0.00  0.00    +0.025 C 
ATOM      6  C   UNL     1      31.775 -11.008 -21.450  0.00  0.00    -0.026 C 
ENDROOT
BRANCH   5  12
ATOM      7  O   UNL     1      31.939  -8.456 -20.145  0.00  0.00    -0.270 OA
ATOM      8  N   UNL     1      31.371  -7.634 -22.244  0.00  0.00    -0.267 N 
ATOM      9  N   UNL     1      31.830  -5.448 -23.858  0.00  0.00    -0.292 N 
ATOM     10  N   UNL     1      31.335  -3.935 -22.367  0.00  0.00    -0.132 NA
ATOM     11  N   UNL     1      31.811  -3.303 -23.503  0.00  0.00    -0.125 NA
ATOM     12  C   UNL     1      31.855  -8.600 -21.366  0.00  0.00    +0.245 C 
ATOM     13  C   UNL     1      31.185  -7.798 -23.700  0.00  0.00    +0.119 C 
ATOM     14  C   UNL     1      30.922  -6.341 -21.704  0.00  0.00    +0.160 C 
ATOM     15  C   UNL     1      32.014  -6.756 -24.448  0.00  0.00    +0.130 C 
ATOM     16  C   UNL     1      31.353  -5.232 -22.594  0.00  0.00    +0.164 A 
ATOM     17  C   UNL     1      32.104  -4.231 -24.386  0.00  0.00    +0.238 A 
BRANCH  17  21
ATOM     18  F   UNL     1      33.757  -3.216 -25.786  0.00  0.00    -0.163 F 
ATOM     19  F   UNL     1      33.053  -5.184 -26.364  0.00  0.00    -0.163 F 
ATOM     20  F   UNL     1      31.758  -3.455 -26.608  0.00  0.00    -0.163 F 
ATOM     21  C   UNL     1      32.652  -4.029 -25.739  0.00  0.00    +0.452 C 
ENDBRANCH  17  21
ENDBRANCH   5  12
BRANCH   1  25
ATOM     22  F   UNL     1      32.734 -13.600 -25.816  0.00  0.00    -0.204 F 
ATOM     23  F   UNL     1      35.312 -16.388 -21.880  0.00  0.00    -0.202 F 
ATOM     24  F   UNL     1      35.035 -17.475 -24.373  0.00  0.00    -0.202 F 
ATOM     25  C   UNL     1      33.510 -13.728 -23.577  0.00  0.00    +0.006 C 
ATOM     26  C   UNL     1      33.367 -14.277 -24.847  0.00  0.00    +0.138 C 
ATOM     27  C   UNL     1      34.165 -14.435 -22.573  0.00  0.00    +0.030 C 
ATOM     28  C   UNL     1      34.682 -15.702 -22.843  0.00  0.00    +0.167 C 
ATOM     29  C   UNL     1      33.883 -15.544 -25.117  0.00  0.00    +0.061 C 
ATOM     30  C   UNL     1      34.541 -16.256 -24.114  0.00  0.00    +0.170 C 
ENDBRANCH   1  25
BRANCH   2  31
ATOM     31  N   UNL     1      34.788 -11.184 -24.495  0.00  0.00    +0.382 N 
ATOM     32  H   UNL     1      35.388 -10.358 -24.496  0.00  0.00    -0.089 HD
ATOM     33  H   UNL     1      34.151 -11.143 -25.289  0.00  0.00    -0.089 HD
ATOM     34  H   UNL     1      35.365 -12.022 -24.562  0.00  0.00    -0.089 HD
ENDBRANCH   2  31
TORSDOF 4
ENDMDL
MODEL 9
REMARK VINA RESULT:     -10.7     10.351     16.079
REMARK  Name = 11974440
REMARK  4 active torsions:
REMARK  status: ('A' for Active; 'I' for Inactive)
REMARK    1  A    between atoms: C_1  and  C_25
REMARK    2  A    between atoms: C_2  and  N_31
REMARK    3  A    between atoms: C_5  and  C_12
REMARK    4  A    between atoms: C_17  and  C_21
REMARK                            x       y       z     vdW  Elec       q    Type
REMARK                         _______ _______ _______ _____ _____    ______ ____
ROOT
ATOM      1  C   UNL     1      33.358 -12.326 -22.402  0.00  0.00    +0.009 C 
ATOM      2  C   UNL     1      31.933 -12.294 -21.791  0.00  0.00    -0.057 C 
ATOM      3  C   UNL     1      31.719 -10.997 -20.985  0.00  0.00    +0.009 C 
ATOM      4  C   UNL     1      33.583 -11.100 -23.318  0.00  0.00    +0.028 C 
ATOM      5  C   UNL     1      32.221  -9.779 -21.700  0.00  0.00    +0.025 C 
ATOM      6  C   UNL     1      33.048  -9.817 -22.753  0.00  0.00    -0.026 C 
ENDROOT
BRANCH   5  12
ATOM      7  O   UNL     1      31.808  -8.228 -20.021  0.00  0.00    -0.270 OA
ATOM      8  N   UNL     1      31.336  -7.543 -22.192  0.00  0.00    -0.267 N 
ATOM      9  N   UNL     1      31.897  -5.480 -23.932  0.00  0.00    -0.292 N 
ATOM     10  N   UNL     1      31.372  -3.861 -22.568  0.00  0.00    -0.132 NA
ATOM     11  N   UNL     1      31.904  -3.316 -23.724  0.00  0.00    -0.125 NA
ATOM     12  C   UNL     1      31.768  -8.453 -21.232  0.00  0.00    +0.245 C 
ATOM     13  C   UNL     1      31.203  -7.804 -23.639  0.00  0.00    +0.119 C 
ATOM     14  C   UNL     1      30.890  -6.209 -21.759  0.00  0.00    +0.160 C 
ATOM     15  C   UNL     1      32.080  -6.829 -24.423  0.00  0.00    +0.130 C 
ATOM     16  C   UNL     1      31.376  -5.170 -22.705  0.00  0.00    +0.164 A 
ATOM     17  C   UNL     1      32.213  -4.308 -24.530  0.00  0.00    +0.238 A 
BRANCH  17  21
ATOM     18  F   UNL     1      33.968  -3.463 -25.919  0.00  0.00    -0.163 F 
ATOM     19  F   UNL     1      33.168  -5.415 -26.423  0.00  0.00    -0.163 F 
ATOM     20  F   UNL     1      31.987  -3.629 -26.798  0.00  0.00    -0.163 F 
ATOM     21  C   UNL     1      32.816  -4.208 -25.871  0.00  0.00    +0.452 C 
ENDBRANCH  17  21
ENDBRANCH   5  12
BRANCH   1  25
ATOM     22  F   UNL     1      34.875 -14.445 -21.279  0.00  0.00    -0.204 F 
ATOM     23  F   UNL     1      33.087 -15.117 -26.404  0.00  0.00    -0.202 F 
ATOM     24  F   UNL     1      34.559 -17.079 -25.197  0.00  0.00    -0.202 F 
ATOM     25  C   UNL     1      33.682 -13.609 -23.153  0.00  0.00    +0.006 C 
ATOM     26  C   UNL     1      34.432 -14.604 -22.534  0.00  0.00    +0.138 C 
ATOM     27  C   UNL     1      33.226 -13.776 -24.457  0.00  0.00    +0.030 C 
ATOM     28  C   UNL     1      33.522 -14.950 -25.148  0.00  0.00    +0.167 C 
ATOM     29  C   UNL     1      34.728 -15.778 -23.225  0.00  0.00    +0.061 C 
ATOM     30  C   UNL     1      34.273 -15.952 -24.532  0.00  0.00    +0.170 C 
ENDBRANCH   1  25
BRANCH   2  31
ATOM     31  N   UNL     1      31.695 -13.450 -20.922  0.00  0.00    +0.382 N 
ATOM     32  H   UNL     1      32.548 -13.665 -20.404  0.00  0.00    -0.089 HD
ATOM     33  H   UNL     1      31.430 -14.254 -21.490  0.00  0.00    -0.089 HD
ATOM     34  H   UNL     1      30.945 -13.233 -20.266  0.00  0.00    -0.089 HD
ENDBRANCH   2  31
TORSDOF 4
ENDMDL
