MODEL 1
REMARK VINA RESULT:     -11.6      0.000      0.000
REMARK  Name = 23650961
REMARK  5 active torsions:
REMARK  status: ('A' for Active; 'I' for Inactive)
REMARK    1  A    between atoms: N_1  and  C_23
REMARK    2  A    between atoms: C_5  and  C_12
REMARK    3  A    between atoms: C_23  and  C_24
REMARK    4  A    between atoms: C_24  and  C_25
REMARK    5  A    between atoms: C_25  and  C_27
REMARK                            x       y       z     vdW  Elec       q    Type
REMARK                         _______ _______ _______ _____ _____    ______ ____
ROOT
ATOM      1  N   UNL     1      35.301 -20.766 -20.476  0.00  0.00    -0.268 N 
ATOM      2  N   UNL     1      34.395 -22.187 -18.842  0.00  0.00    -0.342 NA
ATOM      3  N   UNL     1      36.623 -21.298 -18.612  0.00  0.00    -0.170 NA
ATOM      4  C   UNL     1      35.444 -21.438 -19.272  0.00  0.00    +0.144 C 
ATOM      5  C   UNL     1      35.725 -22.755 -16.918  0.00  0.00    +0.061 C 
ATOM      6  C   UNL     1      34.569 -22.828 -17.669  0.00  0.00    +0.123 C 
ATOM      7  C   UNL     1      36.729 -21.967 -17.444  0.00  0.00    +0.113 C 
ATOM      8  C   UNL     1      33.408 -23.649 -17.207  0.00  0.00    +0.067 C 
ATOM      9  H   UNL     1      34.450 -20.861 -20.961  0.00  0.00    +0.159 HD
ENDROOT
BRANCH   5  12
ATOM     10  N   UNL     1      35.352 -22.983 -14.500  0.00  0.00    -0.314 N 
ATOM     11  N   UNL     1      36.577 -24.557 -15.482  0.00  0.00    -0.315 N 
ATOM     12  C   UNL     1      35.901 -23.443 -15.667  0.00  0.00    +0.171 C 
ATOM     13  C   UNL     1      35.699 -23.854 -13.500  0.00  0.00    +0.059 C 
ATOM     14  C   UNL     1      36.462 -24.828 -14.137  0.00  0.00    +0.055 C 
ATOM     15  C   UNL     1      36.985 -25.892 -13.383  0.00  0.00    -0.008 C 
ATOM     16  C   UNL     1      35.418 -23.875 -12.132  0.00  0.00    +0.011 C 
ATOM     17  C   UNL     1      35.946 -24.940 -11.396  0.00  0.00    -0.021 C 
ATOM     18  C   UNL     1      36.716 -25.932 -12.008  0.00  0.00    -0.007 C 
ATOM     19  C   UNL     1      37.814 -26.976 -13.990  0.00  0.00    +0.032 C 
ATOM     20  C   UNL     1      35.679 -25.018  -9.929  0.00  0.00    +0.031 C 
ATOM     21  H   UNL     1      34.807 -22.171 -14.397  0.00  0.00    +0.149 HD
ATOM     22  H   UNL     1      37.062 -25.083 -16.159  0.00  0.00    +0.149 HD
ENDBRANCH   5  12
BRANCH   1  23
ATOM     23  C   UNL     1      36.327 -19.934 -21.056  0.00  0.00    +0.098 C 
BRANCH  23  24
ATOM     24  C   UNL     1      35.746 -19.036 -22.144  0.00  0.00    +0.022 C 
BRANCH  24  25
ATOM     25  C   UNL     1      35.370 -17.650 -21.620  0.00  0.00    +0.002 C 
BRANCH  25  27
ATOM     26  N   UNL     1      33.521 -15.273 -24.716  0.00  0.00    +0.385 N 
ATOM     27  C   UNL     1      35.219 -16.649 -22.762  0.00  0.00    -0.004 C 
ATOM     28  C   UNL     1      34.275 -15.507 -22.372  0.00  0.00    -0.023 C 
ATOM     29  C   UNL     1      34.704 -17.335 -24.031  0.00  0.00    -0.023 C 
ATOM     30  C   UNL     1      34.038 -14.554 -23.544  0.00  0.00    -0.077 C 
ATOM     31  C   UNL     1      34.454 -16.321 -25.149  0.00  0.00    -0.077 C 
ATOM     32  C   UNL     1      33.251 -14.342 -25.812  0.00  0.00    -0.101 C 
ATOM     33  H   UNL     1      32.645 -15.724 -24.447  0.00  0.00    -0.080 HD
ENDBRANCH  25  27
ENDBRANCH  24  25
ENDBRANCH  23  24
ENDBRANCH   1  23
TORSDOF 5
ENDMDL
MODEL 2
REMARK VINA RESULT:     -11.3      3.066     12.401
REMARK  Name = 23650961
REMARK  5 active torsions:
REMARK  status: ('A' for Active; 'I' for Inactive)
REMARK    1  A    between atoms: N_1  and  C_23
REMARK    2  A    between atoms: C_5  and  C_12
REMARK    3  A    between atoms: C_23  and  C_24
REMARK    4  A    between atoms: C_24  and  C_25
REMARK    5  A    between atoms: C_25  and  C_27
REMARK                            x       y       z     vdW  Elec       q    Type
REMARK                         _______ _______ _______ _____ _____    ______ ____
ROOT
ATOM      1  N   UNL     1      35.817 -18.867 -22.265  0.00  0.00    -0.268 N 
ATOM      2  N   UNL     1      34.871 -17.100 -23.486  0.00  0.00    -0.342 NA
ATOM      3  N   UNL     1      35.127 -16.954 -21.095  0.00  0.00    -0.170 NA
ATOM      4  C   UNL     1      35.254 -17.600 -22.282  0.00  0.00    +0.144 C 
ATOM      5  C   UNL     1      34.152 -15.123 -22.316  0.00  0.00    +0.061 C 
ATOM      6  C   UNL     1      34.327 -15.867 -23.467  0.00  0.00    +0.123 C 
ATOM      7  C   UNL     1      34.575 -15.724 -21.148  0.00  0.00    +0.113 C 
ATOM      8  C   UNL     1      33.909 -15.328 -24.797  0.00  0.00    +0.067 C 
ATOM      9  H   UNL     1      35.913 -19.344 -23.120  0.00  0.00    +0.159 HD
ENDROOT
BRANCH   5  12
ATOM     10  N   UNL     1      34.052 -12.792 -23.088  0.00  0.00    -0.314 N 
ATOM     11  N   UNL     1      32.541 -13.419 -21.582  0.00  0.00    -0.315 N 
ATOM     12  C   UNL     1      33.569 -13.808 -22.306  0.00  0.00    +0.171 C 
ATOM     13  C   UNL     1      33.287 -11.679 -22.850  0.00  0.00    +0.059 C 
ATOM     14  C   UNL     1      32.351 -12.095 -21.908  0.00  0.00    +0.055 C 
ATOM     15  C   UNL     1      31.396 -11.178 -21.439  0.00  0.00    -0.008 C 
ATOM     16  C   UNL     1      33.332 -10.382 -23.365  0.00  0.00    +0.011 C 
ATOM     17  C   UNL     1      32.375  -9.481 -22.887  0.00  0.00    -0.021 C 
ATOM     18  C   UNL     1      31.423  -9.869 -21.942  0.00  0.00    -0.007 C 
ATOM     19  C   UNL     1      30.359 -11.544 -20.429  0.00  0.00    +0.032 C 
ATOM     20  C   UNL     1      32.371  -8.079 -23.400  0.00  0.00    +0.031 C 
ATOM     21  H   UNL     1      34.813 -12.851 -23.708  0.00  0.00    +0.149 HD
ATOM     22  H   UNL     1      32.020 -13.958 -20.944  0.00  0.00    +0.149 HD
ENDBRANCH   5  12
BRANCH   1  23
ATOM     23  C   UNL     1      36.270 -19.526 -21.063  0.00  0.00    +0.098 C 
BRANCH  23  24
ATOM     24  C   UNL     1      35.219 -20.509 -20.555  0.00  0.00    +0.022 C 
BRANCH  24  25
ATOM     25  C   UNL     1      35.841 -21.741 -19.897  0.00  0.00    +0.002 C 
BRANCH  25  27
ATOM     26  N   UNL     1      34.667 -23.837 -16.307  0.00  0.00    +0.385 N 
ATOM     27  C   UNL     1      35.228 -22.002 -18.523  0.00  0.00    -0.004 C 
ATOM     28  C   UNL     1      36.300 -22.424 -17.514  0.00  0.00    -0.023 C 
ATOM     29  C   UNL     1      34.139 -23.077 -18.601  0.00  0.00    -0.023 C 
ATOM     30  C   UNL     1      35.682 -22.785 -16.162  0.00  0.00    -0.077 C 
ATOM     31  C   UNL     1      33.591 -23.415 -17.213  0.00  0.00    -0.077 C 
ATOM     32  C   UNL     1      34.122 -24.208 -15.002  0.00  0.00    -0.101 C 
ATOM     33  H   UNL     1      35.120 -24.656 -16.716  0.00  0.00    -0.080 HD
ENDBRANCH  25  27
ENDBRANCH  24  25
ENDBRANCH  23  24
ENDBRANCH   1  23
TORSDOF 5
ENDMDL
MODEL 3
REMARK VINA RESULT:     -11.0      1.708      2.477
REMARK  Name = 23650961
REMARK  5 active torsions:
REMARK  status: ('A' for Active; 'I' for Inactive)
REMARK    1  A    between atoms: N_1  and  C_23
REMARK    2  A    between atoms: C_5  and  C_12
REMARK    3  A    between atoms: C_23  and  C_24
REMARK    4  A    between atoms: C_24  and  C_25
REMARK    5  A    between atoms: C_25  and  C_27
REMARK                            x       y       z     vdW  Elec       q    Type
REMARK                         _______ _______ _______ _____ _____    ______ ____
ROOT
ATOM      1  N   UNL     1      34.691 -19.972 -21.537  0.00  0.00    -0.268 N 
ATOM      2  N   UNL     1      33.929 -21.374 -19.817  0.00  0.00    -0.342 NA
ATOM      3  N   UNL     1      36.226 -20.653 -19.898  0.00  0.00    -0.170 NA
ATOM      4  C   UNL     1      34.957 -20.689 -20.381  0.00  0.00    +0.144 C 
ATOM      5  C   UNL     1      35.478 -22.092 -18.119  0.00  0.00    +0.061 C 
ATOM      6  C   UNL     1      34.222 -22.061 -18.694  0.00  0.00    +0.123 C 
ATOM      7  C   UNL     1      36.450 -21.362 -18.772  0.00  0.00    +0.113 C 
ATOM      8  C   UNL     1      33.083 -22.810 -18.083  0.00  0.00    +0.067 C 
ATOM      9  H   UNL     1      33.774 -19.991 -21.894  0.00  0.00    +0.159 HD
ENDROOT
BRANCH   5  12
ATOM     10  N   UNL     1      37.065 -23.139 -16.564  0.00  0.00    -0.314 N 
ATOM     11  N   UNL     1      34.908 -23.282 -16.046  0.00  0.00    -0.315 N 
ATOM     12  C   UNL     1      35.781 -22.829 -16.922  0.00  0.00    +0.171 C 
ATOM     13  C   UNL     1      37.017 -23.837 -15.385  0.00  0.00    +0.059 C 
ATOM     14  C   UNL     1      35.660 -23.913 -15.082  0.00  0.00    +0.055 C 
ATOM     15  C   UNL     1      35.255 -24.577 -13.912  0.00  0.00    -0.008 C 
ATOM     16  C   UNL     1      38.014 -24.392 -14.580  0.00  0.00    +0.011 C 
ATOM     17  C   UNL     1      37.593 -25.050 -13.420  0.00  0.00    -0.021 C 
ATOM     18  C   UNL     1      36.239 -25.142 -13.089  0.00  0.00    -0.007 C 
ATOM     19  C   UNL     1      33.820 -24.703 -13.516  0.00  0.00    +0.032 C 
ATOM     20  C   UNL     1      38.612 -25.663 -12.517  0.00  0.00    +0.031 C 
ATOM     21  H   UNL     1      37.879 -22.904 -17.064  0.00  0.00    +0.149 HD
ATOM     22  H   UNL     1      33.928 -23.189 -16.075  0.00  0.00    +0.149 HD
ENDBRANCH   5  12
BRANCH   1  23
ATOM     23  C   UNL     1      35.682 -19.198 -22.246  0.00  0.00    +0.098 C 
BRANCH  23  24
ATOM     24  C   UNL     1      35.282 -17.726 -22.300  0.00  0.00    +0.022 C 
BRANCH  24  25
ATOM     25  C   UNL     1      34.916 -17.169 -20.924  0.00  0.00    +0.002 C 
BRANCH  25  27
ATOM     26  N   UNL     1      32.700 -13.606 -21.952  0.00  0.00    +0.385 N 
ATOM     27  C   UNL     1      34.529 -15.694 -21.010  0.00  0.00    -0.004 C 
ATOM     28  C   UNL     1      33.163 -15.445 -20.363  0.00  0.00    -0.023 C 
ATOM     29  C   UNL     1      34.508 -15.214 -22.465  0.00  0.00    -0.023 C 
ATOM     30  C   UNL     1      32.723 -13.991 -20.534  0.00  0.00    -0.077 C 
ATOM     31  C   UNL     1      34.025 -13.767 -22.566  0.00  0.00    -0.077 C 
ATOM     32  C   UNL     1      32.229 -12.230 -22.103  0.00  0.00    -0.101 C 
ATOM     33  H   UNL     1      32.052 -14.229 -22.436  0.00  0.00    -0.080 HD
ENDBRANCH  25  27
ENDBRANCH  24  25
ENDBRANCH  23  24
ENDBRANCH   1  23
TORSDOF 5
ENDMDL
MODEL 4
REMARK VINA RESULT:     -10.9      3.374     12.727
REMARK  Name = 23650961
REMARK  5 active torsions:
REMARK  status: ('A' for Active; 'I' for Inactive)
REMARK    1  A    between atoms: N_1  and  C_23
REMARK    2  A    between atoms: C_5  and  C_12
REMARK    3  A    between atoms: C_23  and  C_24
REMARK    4  A    between atoms: C_24  and  C_25
REMARK    5  A    between atoms: C_25  and  C_27
REMARK                            x       y       z     vdW  Elec       q    Type
REMARK                         _______ _______ _______ _____ _____    ______ ____
ROOT
ATOM      1  N   UNL     1      34.940 -18.339 -24.390  0.00  0.00    -0.268 N 
ATOM      2  N   UNL     1      34.009 -16.309 -25.112  0.00  0.00    -0.342 NA
ATOM      3  N   UNL     1      34.970 -16.517 -22.912  0.00  0.00    -0.170 NA
ATOM      4  C   UNL     1      34.630 -17.013 -24.130  0.00  0.00    +0.144 C 
ATOM      5  C   UNL     1      34.023 -14.420 -23.621  0.00  0.00    +0.061 C 
ATOM      6  C   UNL     1      33.722 -15.023 -24.826  0.00  0.00    +0.123 C 
ATOM      7  C   UNL     1      34.653 -15.224 -22.692  0.00  0.00    +0.113 C 
ATOM      8  C   UNL     1      33.039 -14.260 -25.914  0.00  0.00    +0.067 C 
ATOM      9  H   UNL     1      34.698 -18.708 -25.270  0.00  0.00    +0.159 HD
ENDROOT
BRANCH   5  12
ATOM     10  N   UNL     1      34.386 -12.007 -23.904  0.00  0.00    -0.314 N 
ATOM     11  N   UNL     1      32.779 -12.623 -22.498  0.00  0.00    -0.315 N 
ATOM     12  C   UNL     1      33.711 -13.048 -23.325  0.00  0.00    +0.171 C 
ATOM     13  C   UNL     1      33.855 -10.839 -23.419  0.00  0.00    +0.059 C 
ATOM     14  C   UNL     1      32.854 -11.250 -22.544  0.00  0.00    +0.055 C 
ATOM     15  C   UNL     1      32.098 -10.281 -21.864  0.00  0.00    -0.008 C 
ATOM     16  C   UNL     1      34.156  -9.498 -23.664  0.00  0.00    +0.011 C 
ATOM     17  C   UNL     1      33.394  -8.546 -22.978  0.00  0.00    -0.021 C 
ATOM     18  C   UNL     1      32.383  -8.928 -22.094  0.00  0.00    -0.007 C 
ATOM     19  C   UNL     1      31.007 -10.638 -20.908  0.00  0.00    +0.032 C 
ATOM     20  C   UNL     1      33.667  -7.094 -23.199  0.00  0.00    +0.031 C 
ATOM     21  H   UNL     1      35.121 -12.083 -24.553  0.00  0.00    +0.149 HD
ATOM     22  H   UNL     1      32.160 -13.171 -21.961  0.00  0.00    +0.149 HD
ENDBRANCH   5  12
BRANCH   1  23
ATOM     23  C   UNL     1      35.598 -19.209 -23.445  0.00  0.00    +0.098 C 
BRANCH  23  24
ATOM     24  C   UNL     1      34.595 -19.782 -22.447  0.00  0.00    +0.022 C 
BRANCH  24  25
ATOM     25  C   UNL     1      35.121 -19.758 -21.012  0.00  0.00    +0.002 C 
BRANCH  25  27
ATOM     26  N   UNL     1      34.153 -22.509 -17.825  0.00  0.00    +0.385 N 
ATOM     27  C   UNL     1      34.818 -21.069 -20.290  0.00  0.00    -0.004 C 
ATOM     28  C   UNL     1      33.413 -21.050 -19.680  0.00  0.00    -0.023 C 
ATOM     29  C   UNL     1      35.854 -21.348 -19.196  0.00  0.00    -0.023 C 
ATOM     30  C   UNL     1      33.139 -22.318 -18.871  0.00  0.00    -0.077 C 
ATOM     31  C   UNL     1      35.500 -22.607 -18.404  0.00  0.00    -0.077 C 
ATOM     32  C   UNL     1      33.850 -23.697 -17.028  0.00  0.00    -0.101 C 
ATOM     33  H   UNL     1      34.132 -21.691 -17.215  0.00  0.00    -0.080 HD
ENDBRANCH  25  27
ENDBRANCH  24  25
ENDBRANCH  23  24
ENDBRANCH   1  23
TORSDOF 5
ENDMDL
MODEL 5
REMARK VINA RESULT:     -10.9      2.276      3.773
REMARK  Name = 23650961
REMARK  5 active torsions:
REMARK  status: ('A' for Active; 'I' for Inactive)
REMARK    1  A    between atoms: N_1  and  C_23
REMARK    2  A    between atoms: C_5  and  C_12
REMARK    3  A    between atoms: C_23  and  C_24
REMARK    4  A    between atoms: C_24  and  C_25
REMARK    5  A    between atoms: C_25  and  C_27
REMARK                            x       y       z     vdW  Elec       q    Type
REMARK                         _______ _______ _______ _____ _____    ______ ____
ROOT
ATOM      1  N   UNL     1      35.737 -19.672 -21.849  0.00  0.00    -0.268 N 
ATOM      2  N   UNL     1      36.052 -20.962 -19.914  0.00  0.00    -0.342 NA
ATOM      3  N   UNL     1      33.838 -20.486 -20.737  0.00  0.00    -0.170 NA
ATOM      4  C   UNL     1      35.192 -20.397 -20.800  0.00  0.00    +0.144 C 
ATOM      5  C   UNL     1      34.125 -21.812 -18.748  0.00  0.00    +0.061 C 
ATOM      6  C   UNL     1      35.488 -21.659 -18.906  0.00  0.00    +0.123 C 
ATOM      7  C   UNL     1      33.341 -21.198 -19.703  0.00  0.00    +0.113 C 
ATOM      8  C   UNL     1      36.445 -22.277 -17.938  0.00  0.00    +0.067 C 
ATOM      9  H   UNL     1      36.717 -19.602 -21.904  0.00  0.00    +0.159 HD
ENDROOT
BRANCH   5  12
ATOM     10  N   UNL     1      32.181 -22.743 -17.569  0.00  0.00    -0.314 N 
ATOM     11  N   UNL     1      34.180 -23.135 -16.678  0.00  0.00    -0.315 N 
ATOM     12  C   UNL     1      33.534 -22.557 -17.669  0.00  0.00    +0.171 C 
ATOM     13  C   UNL     1      31.941 -23.487 -16.442  0.00  0.00    +0.059 C 
ATOM     14  C   UNL     1      33.203 -23.720 -15.904  0.00  0.00    +0.055 C 
ATOM     15  C   UNL     1      33.317 -24.469 -14.721  0.00  0.00    -0.008 C 
ATOM     16  C   UNL     1      30.762 -23.963 -15.865  0.00  0.00    +0.011 C 
ATOM     17  C   UNL     1      30.893 -24.706 -14.688  0.00  0.00    -0.021 C 
ATOM     18  C   UNL     1      32.146 -24.957 -14.124  0.00  0.00    -0.007 C 
ATOM     19  C   UNL     1      34.633 -24.763 -14.079  0.00  0.00    +0.032 C 
ATOM     20  C   UNL     1      29.668 -25.244 -14.023  0.00  0.00    +0.031 C 
ATOM     21  H   UNL     1      31.502 -22.403 -18.194  0.00  0.00    +0.149 HD
ATOM     22  H   UNL     1      35.152 -23.148 -16.524  0.00  0.00    +0.149 HD
ENDBRANCH   5  12
BRANCH   1  23
ATOM     23  C   UNL     1      34.950 -19.017 -22.865  0.00  0.00    +0.098 C 
BRANCH  23  24
ATOM     24  C   UNL     1      35.058 -17.500 -22.739  0.00  0.00    +0.022 C 
BRANCH  24  25
ATOM     25  C   UNL     1      34.919 -17.022 -21.294  0.00  0.00    +0.002 C 
BRANCH  25  27
ATOM     26  N   UNL     1      32.521 -13.471 -21.840  0.00  0.00    +0.385 N 
ATOM     27  C   UNL     1      34.488 -15.558 -21.235  0.00  0.00    -0.004 C 
ATOM     28  C   UNL     1      33.186 -15.400 -20.442  0.00  0.00    -0.023 C 
ATOM     29  C   UNL     1      34.311 -14.979 -22.642  0.00  0.00    -0.023 C 
ATOM     30  C   UNL     1      32.694 -13.952 -20.463  0.00  0.00    -0.077 C 
ATOM     31  C   UNL     1      33.782 -13.544 -22.590  0.00  0.00    -0.077 C 
ATOM     32  C   UNL     1      32.002 -12.103 -21.845  0.00  0.00    -0.101 C 
ATOM     33  H   UNL     1      31.845 -14.079 -22.303  0.00  0.00    -0.080 HD
ENDBRANCH  25  27
ENDBRANCH  24  25
ENDBRANCH  23  24
ENDBRANCH   1  23
TORSDOF 5
ENDMDL
MODEL 6
REMARK VINA RESULT:     -10.4      5.319     14.182
REMARK  Name = 23650961
REMARK  5 active torsions:
REMARK  status: ('A' for Active; 'I' for Inactive)
REMARK    1  A    between atoms: N_1  and  C_23
REMARK    2  A    between atoms: C_5  and  C_12
REMARK    3  A    between atoms: C_23  and  C_24
REMARK    4  A    between atoms: C_24  and  C_25
REMARK    5  A    between atoms: C_25  and  C_27
REMARK                            x       y       z     vdW  Elec       q    Type
REMARK                         _______ _______ _______ _____ _____    ______ ____
ROOT
ATOM      1  N   UNL     1      33.611 -15.268 -23.082  0.00  0.00    -0.268 N 
ATOM      2  N   UNL     1      32.418 -13.590 -21.956  0.00  0.00    -0.342 NA
ATOM      3  N   UNL     1      33.972 -13.037 -23.712  0.00  0.00    -0.170 NA
ATOM      4  C   UNL     1      33.325 -13.922 -22.912  0.00  0.00    +0.144 C 
ATOM      5  C   UNL     1      32.766 -11.290 -22.577  0.00  0.00    +0.061 C 
ATOM      6  C   UNL     1      32.164 -12.273 -21.817  0.00  0.00    +0.123 C 
ATOM      7  C   UNL     1      33.671 -11.736 -23.519  0.00  0.00    +0.113 C 
ATOM      8  C   UNL     1      31.164 -11.920 -20.763  0.00  0.00    +0.067 C 
ATOM      9  H   UNL     1      33.146 -15.918 -22.507  0.00  0.00    +0.159 HD
ENDROOT
BRANCH   5  12
ATOM     10  N   UNL     1      31.911  -9.144 -23.414  0.00  0.00    -0.314 N 
ATOM     11  N   UNL     1      32.736  -9.162 -21.350  0.00  0.00    -0.315 N 
ATOM     12  C   UNL     1      32.488  -9.888 -22.420  0.00  0.00    +0.171 C 
ATOM     13  C   UNL     1      31.781  -7.858 -22.956  0.00  0.00    +0.059 C 
ATOM     14  C   UNL     1      32.302  -7.895 -21.666  0.00  0.00    +0.055 C 
ATOM     15  C   UNL     1      32.320  -6.717 -20.900  0.00  0.00    -0.008 C 
ATOM     16  C   UNL     1      31.266  -6.700 -23.542  0.00  0.00    +0.011 C 
ATOM     17  C   UNL     1      31.292  -5.537 -22.766  0.00  0.00    -0.021 C 
ATOM     18  C   UNL     1      31.809  -5.542 -21.469  0.00  0.00    -0.007 C 
ATOM     19  C   UNL     1      32.862  -6.671 -19.509  0.00  0.00    +0.032 C 
ATOM     20  C   UNL     1      30.754  -4.266 -23.337  0.00  0.00    +0.031 C 
ATOM     21  H   UNL     1      31.639  -9.473 -24.300  0.00  0.00    +0.149 HD
ATOM     22  H   UNL     1      33.145  -9.461 -20.505  0.00  0.00    +0.149 HD
ENDBRANCH   5  12
BRANCH   1  23
ATOM     23  C   UNL     1      34.550 -15.771 -24.055  0.00  0.00    +0.098 C 
BRANCH  23  24
ATOM     24  C   UNL     1      35.020 -17.173 -23.681  0.00  0.00    +0.022 C 
BRANCH  24  25
ATOM     25  C   UNL     1      35.489 -17.264 -22.228  0.00  0.00    +0.002 C 
BRANCH  25  27
ATOM     26  N   UNL     1      35.829 -20.715 -19.653  0.00  0.00    +0.385 N 
ATOM     27  C   UNL     1      35.657 -18.717 -21.791  0.00  0.00    -0.004 C 
ATOM     28  C   UNL     1      34.426 -19.205 -21.020  0.00  0.00    -0.023 C 
ATOM     29  C   UNL     1      36.910 -18.892 -20.928  0.00  0.00    -0.023 C 
ATOM     30  C   UNL     1      34.627 -20.627 -20.492  0.00  0.00    -0.077 C 
ATOM     31  C   UNL     1      37.030 -20.324 -20.404  0.00  0.00    -0.077 C 
ATOM     32  C   UNL     1      35.981 -22.067 -19.114  0.00  0.00    -0.101 C 
ATOM     33  H   UNL     1      35.719 -20.064 -18.875  0.00  0.00    -0.080 HD
ENDBRANCH  25  27
ENDBRANCH  24  25
ENDBRANCH  23  24
ENDBRANCH   1  23
TORSDOF 5
ENDMDL
MODEL 7
REMARK VINA RESULT:     -10.4      7.567     16.265
REMARK  Name = 23650961
REMARK  5 active torsions:
REMARK  status: ('A' for Active; 'I' for Inactive)
REMARK    1  A    between atoms: N_1  and  C_23
REMARK    2  A    between atoms: C_5  and  C_12
REMARK    3  A    between atoms: C_23  and  C_24
REMARK    4  A    between atoms: C_24  and  C_25
REMARK    5  A    between atoms: C_25  and  C_27
REMARK                            x       y       z     vdW  Elec       q    Type
REMARK                         _______ _______ _______ _____ _____    ______ ____
ROOT
ATOM      1  N   UNL     1      31.898 -11.824 -19.697  0.00  0.00    -0.268 N 
ATOM      2  N   UNL     1      32.292  -9.512 -19.778  0.00  0.00    -0.342 NA
ATOM      3  N   UNL     1      31.606 -10.720 -21.747  0.00  0.00    -0.170 NA
ATOM      4  C   UNL     1      31.933 -10.648 -20.431  0.00  0.00    +0.144 C 
ATOM      5  C   UNL     1      32.003  -8.349 -21.866  0.00  0.00    +0.061 C 
ATOM      6  C   UNL     1      32.317  -8.387 -20.522  0.00  0.00    +0.123 C 
ATOM      7  C   UNL     1      31.652  -9.558 -22.431  0.00  0.00    +0.113 C 
ATOM      8  C   UNL     1      32.713  -7.144 -19.793  0.00  0.00    +0.067 C 
ATOM      9  H   UNL     1      32.133 -11.782 -18.742  0.00  0.00    +0.159 HD
ENDROOT
BRANCH   5  12
ATOM     10  N   UNL     1      31.118  -6.140 -22.477  0.00  0.00    -0.314 N 
ATOM     11  N   UNL     1      32.902  -6.852 -23.595  0.00  0.00    -0.315 N 
ATOM     12  C   UNL     1      32.033  -7.143 -22.650  0.00  0.00    +0.171 C 
ATOM     13  C   UNL     1      31.416  -5.140 -23.367  0.00  0.00    +0.059 C 
ATOM     14  C   UNL     1      32.534  -5.608 -24.052  0.00  0.00    +0.055 C 
ATOM     15  C   UNL     1      33.107  -4.809 -25.056  0.00  0.00    -0.008 C 
ATOM     16  C   UNL     1      30.823  -3.903 -23.623  0.00  0.00    +0.011 C 
ATOM     17  C   UNL     1      31.405  -3.120 -24.626  0.00  0.00    -0.021 C 
ATOM     18  C   UNL     1      32.526  -3.563 -25.331  0.00  0.00    -0.007 C 
ATOM     19  C   UNL     1      34.305  -5.237 -25.838  0.00  0.00    +0.032 C 
ATOM     20  C   UNL     1      30.816  -1.786 -24.946  0.00  0.00    +0.031 C 
ATOM     21  H   UNL     1      30.377  -6.136 -21.830  0.00  0.00    +0.149 HD
ATOM     22  H   UNL     1      33.655  -7.406 -23.907  0.00  0.00    +0.149 HD
ENDBRANCH   5  12
BRANCH   1  23
ATOM     23  C   UNL     1      31.536 -13.105 -20.254  0.00  0.00    +0.098 C 
BRANCH  23  24
ATOM     24  C   UNL     1      32.755 -14.019 -20.346  0.00  0.00    +0.022 C 
BRANCH  24  25
ATOM     25  C   UNL     1      33.488 -13.882 -21.681  0.00  0.00    +0.002 C 
BRANCH  25  27
ATOM     26  N   UNL     1      34.971 -17.868 -22.436  0.00  0.00    +0.385 N 
ATOM     27  C   UNL     1      34.471 -15.031 -21.893  0.00  0.00    -0.004 C 
ATOM     28  C   UNL     1      34.310 -15.642 -23.289  0.00  0.00    -0.023 C 
ATOM     29  C   UNL     1      34.286 -16.117 -20.828  0.00  0.00    -0.023 C 
ATOM     30  C   UNL     1      35.220 -16.858 -23.473  0.00  0.00    -0.077 C 
ATOM     31  C   UNL     1      35.198 -17.316 -21.093  0.00  0.00    -0.077 C 
ATOM     32  C   UNL     1      35.812 -19.045 -22.654  0.00  0.00    -0.101 C 
ATOM     33  H   UNL     1      33.992 -18.149 -22.499  0.00  0.00    -0.080 HD
ENDBRANCH  25  27
ENDBRANCH  24  25
ENDBRANCH  23  24
ENDBRANCH   1  23
TORSDOF 5
ENDMDL
MODEL 8
REMARK VINA RESULT:     -10.3      2.677     12.345
REMARK  Name = 23650961
REMARK  5 active torsions:
REMARK  status: ('A' for Active; 'I' for Inactive)
REMARK    1  A    between atoms: N_1  and  C_23
REMARK    2  A    between atoms: C_5  and  C_12
REMARK    3  A    between atoms: C_23  and  C_24
REMARK    4  A    between atoms: C_24  and  C_25
REMARK    5  A    between atoms: C_25  and  C_27
REMARK                            x       y       z     vdW  Elec       q    Type
REMARK                         _______ _______ _______ _____ _____    ______ ____
ROOT
ATOM      1  N   UNL     1      35.647 -19.431 -21.685  0.00  0.00    -0.268 N 
ATOM      2  N   UNL     1      34.971 -17.757 -23.183  0.00  0.00    -0.342 NA
ATOM      3  N   UNL     1      35.166 -17.302 -20.825  0.00  0.00    -0.170 NA
ATOM      4  C   UNL     1      35.249 -18.122 -21.904  0.00  0.00    +0.144 C 
ATOM      5  C   UNL     1      34.468 -15.561 -22.335  0.00  0.00    +0.061 C 
ATOM      6  C   UNL     1      34.585 -16.477 -23.361  0.00  0.00    +0.123 C 
ATOM      7  C   UNL     1      34.774 -16.034 -21.075  0.00  0.00    +0.113 C 
ATOM      8  C   UNL     1      34.282 -16.087 -24.772  0.00  0.00    +0.067 C 
ATOM      9  H   UNL     1      35.711 -20.033 -22.461  0.00  0.00    +0.159 HD
ENDROOT
BRANCH   5  12
ATOM     10  N   UNL     1      32.974 -13.662 -21.888  0.00  0.00    -0.314 N 
ATOM     11  N   UNL     1      34.633 -13.319 -23.327  0.00  0.00    -0.315 N 
ATOM     12  C   UNL     1      34.055 -14.198 -22.535  0.00  0.00    +0.171 C 
ATOM     13  C   UNL     1      32.846 -12.357 -22.290  0.00  0.00    +0.059 C 
ATOM     14  C   UNL     1      33.893 -12.167 -23.188  0.00  0.00    +0.055 C 
ATOM     15  C   UNL     1      34.054 -10.911 -23.797  0.00  0.00    -0.008 C 
ATOM     16  C   UNL     1      31.933 -11.356 -21.955  0.00  0.00    +0.011 C 
ATOM     17  C   UNL     1      32.107 -10.113 -22.571  0.00  0.00    -0.021 C 
ATOM     18  C   UNL     1      33.147  -9.892 -23.476  0.00  0.00    -0.007 C 
ATOM     19  C   UNL     1      35.150 -10.625 -24.771  0.00  0.00    +0.032 C 
ATOM     20  C   UNL     1      31.162  -9.001 -22.253  0.00  0.00    +0.031 C 
ATOM     21  H   UNL     1      32.391 -14.130 -21.249  0.00  0.00    +0.149 HD
ATOM     22  H   UNL     1      35.424 -13.457 -23.898  0.00  0.00    +0.149 HD
ENDBRANCH   5  12
BRANCH   1  23
ATOM     23  C   UNL     1      35.975 -19.961 -20.383  0.00  0.00    +0.098 C 
BRANCH  23  24
ATOM     24  C   UNL     1      35.665 -21.454 -20.312  0.00  0.00    +0.022 C 
BRANCH  24  25
ATOM     25  C   UNL     1      34.524 -21.768 -19.345  0.00  0.00    +0.002 C 
BRANCH  25  27
ATOM     26  N   UNL     1      35.546 -22.937 -15.314  0.00  0.00    +0.385 N 
ATOM     27  C   UNL     1      35.009 -22.627 -18.179  0.00  0.00    -0.004 C 
ATOM     28  C   UNL     1      33.892 -22.839 -17.151  0.00  0.00    -0.023 C 
ATOM     29  C   UNL     1      36.226 -21.994 -17.497  0.00  0.00    -0.023 C 
ATOM     30  C   UNL     1      34.397 -23.613 -15.932  0.00  0.00    -0.077 C 
ATOM     31  C   UNL     1      36.654 -22.797 -16.267  0.00  0.00    -0.077 C 
ATOM     32  C   UNL     1      35.986 -23.661 -14.121  0.00  0.00    -0.101 C 
ATOM     33  H   UNL     1      35.249 -22.001 -15.037  0.00  0.00    -0.080 HD
ENDBRANCH  25  27
ENDBRANCH  24  25
ENDBRANCH  23  24
ENDBRANCH   1  23
TORSDOF 5
ENDMDL
MODEL 9
REMARK VINA RESULT:     -10.2      7.698     16.613
REMARK  Name = 23650961
REMARK  5 active torsions:
REMARK  status: ('A' for Active; 'I' for Inactive)
REMARK    1  A    between atoms: N_1  and  C_23
REMARK    2  A    between atoms: C_5  and  C_12
REMARK    3  A    between atoms: C_23  and  C_24
REMARK    4  A    between atoms: C_24  and  C_25
REMARK    5  A    between atoms: C_25  and  C_27
REMARK                            x       y       z     vdW  Elec       q    Type
REMARK                         _______ _______ _______ _____ _____    ______ ____
ROOT
ATOM      1  N   UNL     1      31.578 -11.186 -19.779  0.00  0.00    -0.268 N 
ATOM      2  N   UNL     1      32.157  -8.927 -20.039  0.00  0.00    -0.342 NA
ATOM      3  N   UNL     1      31.679 -10.311 -21.953  0.00  0.00    -0.170 NA
ATOM      4  C   UNL     1      31.812 -10.107 -20.617  0.00  0.00    +0.144 C 
ATOM      5  C   UNL     1      32.271  -7.997 -22.257  0.00  0.00    +0.061 C 
ATOM      6  C   UNL     1      32.378  -7.899 -20.883  0.00  0.00    +0.123 C 
ATOM      7  C   UNL     1      31.916  -9.240 -22.740  0.00  0.00    +0.113 C 
ATOM      8  C   UNL     1      32.757  -6.606 -20.236  0.00  0.00    +0.067 C 
ATOM      9  H   UNL     1      31.671 -11.049 -18.809  0.00  0.00    +0.159 HD
ENDROOT
BRANCH   5  12
ATOM     10  N   UNL     1      33.586  -6.863 -23.995  0.00  0.00    -0.314 N 
ATOM     11  N   UNL     1      31.764  -5.817 -23.269  0.00  0.00    -0.315 N 
ATOM     12  C   UNL     1      32.511  -6.894 -23.148  0.00  0.00    +0.171 C 
ATOM     13  C   UNL     1      33.529  -5.691 -24.705  0.00  0.00    +0.059 C 
ATOM     14  C   UNL     1      32.383  -5.056 -24.235  0.00  0.00    +0.055 C 
ATOM     15  C   UNL     1      32.026  -3.805 -24.766  0.00  0.00    -0.008 C 
ATOM     16  C   UNL     1      34.356  -5.149 -25.690  0.00  0.00    +0.011 C 
ATOM     17  C   UNL     1      33.987  -3.903 -26.207  0.00  0.00    -0.021 C 
ATOM     18  C   UNL     1      32.843  -3.241 -25.755  0.00  0.00    -0.007 C 
ATOM     19  C   UNL     1      30.814  -3.057 -24.315  0.00  0.00    +0.032 C 
ATOM     20  C   UNL     1      34.831  -3.271 -27.265  0.00  0.00    +0.031 C 
ATOM     21  H   UNL     1      34.277  -7.558 -24.079  0.00  0.00    +0.149 HD
ATOM     22  H   UNL     1      30.940  -5.600 -22.775  0.00  0.00    +0.149 HD
ENDBRANCH   5  12
BRANCH   1  23
ATOM     23  C   UNL     1      31.204 -12.499 -20.248  0.00  0.00    +0.098 C 
BRANCH  23  24
ATOM     24  C   UNL     1      32.424 -13.412 -20.329  0.00  0.00    +0.022 C 
BRANCH  24  25
ATOM     25  C   UNL     1      32.916 -13.603 -21.764  0.00  0.00    +0.002 C 
BRANCH  25  27
ATOM     26  N   UNL     1      34.938 -17.386 -22.273  0.00  0.00    +0.385 N 
ATOM     27  C   UNL     1      34.045 -14.630 -21.829  0.00  0.00    -0.004 C 
ATOM     28  C   UNL     1      34.147 -15.246 -23.228  0.00  0.00    -0.023 C 
ATOM     29  C   UNL     1      33.843 -15.736 -20.790  0.00  0.00    -0.023 C 
ATOM     30  C   UNL     1      35.208 -16.347 -23.276  0.00  0.00    -0.077 C 
ATOM     31  C   UNL     1      34.915 -16.821 -20.917  0.00  0.00    -0.077 C 
ATOM     32  C   UNL     1      35.931 -18.457 -22.364  0.00  0.00    -0.101 C 
ATOM     33  H   UNL     1      34.016 -17.778 -22.466  0.00  0.00    -0.080 HD
ENDBRANCH  25  27
ENDBRANCH  24  25
ENDBRANCH  23  24
ENDBRANCH   1  23
TORSDOF 5
ENDMDL
