MODEL 1
REMARK VINA RESULT:     -11.4      0.000      0.000
REMARK  Name = 9810927
REMARK  6 active torsions:
REMARK  status: ('A' for Active; 'I' for Inactive)
REMARK    1  A    between atoms: N_1  and  C_13
REMARK    2  A    between atoms: C_11  and  O_24
REMARK    3  A    between atoms: C_12  and  O_26
REMARK    4  A    between atoms: C_14  and  C_18
REMARK    5  A    between atoms: C_19  and  C_20
REMARK    6  A    between atoms: N_28  and  C_32
REMARK                            x       y       z     vdW  Elec       q    Type
REMARK                         _______ _______ _______ _____ _____    ______ ____
ROOT
ATOM      1  N   UNL     1      36.285 -23.820 -15.571  0.00  0.00    -0.247 N 
ATOM      2  N   UNL     1      37.472 -22.319 -16.718  0.00  0.00    -0.242 NA
ATOM      3  N   UNL     1      34.236 -23.813 -16.877  0.00  0.00    -0.228 NA
ATOM      4  N   UNL     1      34.383 -22.259 -18.753  0.00  0.00    -0.228 NA
ATOM      5  C   UNL     1      35.484 -23.408 -16.600  0.00  0.00    +0.152 C 
ATOM      6  C   UNL     1      37.467 -23.137 -15.686  0.00  0.00    +0.223 C 
ATOM      7  C   UNL     1      36.239 -22.479 -17.299  0.00  0.00    +0.140 C 
ATOM      8  C   UNL     1      35.644 -21.896 -18.413  0.00  0.00    +0.150 C 
ATOM      9  C   UNL     1      33.766 -23.181 -17.974  0.00  0.00    +0.253 C 
ATOM     10  N   UNL     1      36.337 -20.945 -19.182  0.00  0.00    -0.295 N 
ATOM     11  H   UNL     1      37.245 -20.755 -18.850  0.00  0.00    +0.154 HD
ENDROOT
BRANCH  10  14
ATOM     12 CL   UNL     1      34.877 -17.857 -24.018  0.00  0.00    -0.082 Cl
ATOM     13  F   UNL     1      37.933 -18.861 -20.107  0.00  0.00    -0.203 F 
ATOM     14  C   UNL     1      35.991 -20.208 -20.334  0.00  0.00    +0.077 C 
ATOM     15  C   UNL     1      36.811 -19.169 -20.773  0.00  0.00    +0.154 C 
ATOM     16  C   UNL     1      34.826 -20.520 -21.034  0.00  0.00    +0.018 C 
ATOM     17  C   UNL     1      36.467 -18.442 -21.912  0.00  0.00    +0.042 C 
ATOM     18  C   UNL     1      34.481 -19.792 -22.172  0.00  0.00    +0.013 C 
ATOM     19  C   UNL     1      35.301 -18.754 -22.612  0.00  0.00    +0.060 C 
ENDBRANCH  10  14
BRANCH   1  23
ATOM     20  O   UNL     1      34.525 -25.005 -14.494  0.00  0.00    -0.326 OA
ATOM     21  C   UNL     1      36.391 -24.394 -13.136  0.00  0.00    +0.187 C 
ATOM     22  C   UNL     1      35.111 -23.838 -12.542  0.00  0.00    +0.178 C 
ATOM     23  C   UNL     1      35.952 -24.803 -14.537  0.00  0.00    +0.225 C 
ATOM     24  C   UNL     1      34.050 -24.744 -13.153  0.00  0.00    +0.223 C 
BRANCH  24  28
ATOM     25  O   UNL     1      32.034 -24.338 -14.472  0.00  0.00    -0.421 OA
ATOM     26  N   UNL     1      31.915 -23.593 -12.366  0.00  0.00    -0.109 NA
ATOM     27  N   UNL     1      30.717 -23.298 -12.992  0.00  0.00    -0.112 NA
ATOM     28  C   UNL     1      32.644 -24.196 -13.268  0.00  0.00    +0.255 A 
ATOM     29  C   UNL     1      30.833 -23.751 -14.218  0.00  0.00    +0.225 A 
BRANCH  29  30
ATOM     30  C   UNL     1      29.867 -23.715 -15.324  0.00  0.00    +0.070 C 
ATOM     31  C   UNL     1      29.310 -25.141 -15.685  0.00  0.00    +0.009 C 
ATOM     32  C   UNL     1      30.483 -23.127 -16.646  0.00  0.00    +0.009 C 
ATOM     33  C   UNL     1      28.572 -22.845 -15.080  0.00  0.00    +0.009 C 
ENDBRANCH  29  30
ENDBRANCH  24  28
BRANCH  21  34
ATOM     34  O   UNL     1      36.796 -25.573 -12.442  0.00  0.00    -0.378 OA
ATOM     35  H   UNL     1      37.200 -26.194 -13.069  0.00  0.00    +0.211 HD
ENDBRANCH  21  34
BRANCH  22  36
ATOM     36  O   UNL     1      35.103 -23.887 -11.130  0.00  0.00    -0.379 OA
ATOM     37  H   UNL     1      34.663 -24.701 -10.837  0.00  0.00    +0.211 HD
ENDBRANCH  22  36
ENDBRANCH   1  23
TORSDOF 6
ENDMDL
MODEL 2
REMARK VINA RESULT:     -11.1     11.699     15.553
REMARK  Name = 9810927
REMARK  6 active torsions:
REMARK  status: ('A' for Active; 'I' for Inactive)
REMARK    1  A    between atoms: N_1  and  C_13
REMARK    2  A    between atoms: C_11  and  O_24
REMARK    3  A    between atoms: C_12  and  O_26
REMARK    4  A    between atoms: C_14  and  C_18
REMARK    5  A    between atoms: C_19  and  C_20
REMARK    6  A    between atoms: N_28  and  C_32
REMARK                            x       y       z     vdW  Elec       q    Type
REMARK                         _______ _______ _______ _____ _____    ______ ____
ROOT
ATOM      1  N   UNL     1      32.255 -10.512 -21.799  0.00  0.00    -0.247 N 
ATOM      2  N   UNL     1      33.427 -11.500 -23.421  0.00  0.00    -0.242 NA
ATOM      3  N   UNL     1      31.726 -12.450 -20.433  0.00  0.00    -0.228 NA
ATOM      4  N   UNL     1      32.660 -14.493 -21.387  0.00  0.00    -0.228 NA
ATOM      5  C   UNL     1      32.284 -11.844 -21.491  0.00  0.00    +0.152 C 
ATOM      6  C   UNL     1      32.955 -10.357 -22.968  0.00  0.00    +0.223 C 
ATOM      7  C   UNL     1      33.016 -12.437 -22.508  0.00  0.00    +0.140 C 
ATOM      8  C   UNL     1      33.197 -13.814 -22.431  0.00  0.00    +0.150 C 
ATOM      9  C   UNL     1      31.968 -13.778 -20.467  0.00  0.00    +0.253 C 
ATOM     10  N   UNL     1      33.927 -14.499 -23.418  0.00  0.00    -0.295 N 
ATOM     11  H   UNL     1      34.274 -13.913 -24.130  0.00  0.00    +0.154 HD
ENDROOT
BRANCH  10  14
ATOM     12 CL   UNL     1      35.333 -20.204 -24.143  0.00  0.00    -0.082 Cl
ATOM     13  F   UNL     1      33.259 -15.872 -25.746  0.00  0.00    -0.203 F 
ATOM     14  C   UNL     1      34.261 -15.859 -23.593  0.00  0.00    +0.077 C 
ATOM     15  C   UNL     1      33.913 -16.519 -24.771  0.00  0.00    +0.154 C 
ATOM     16  C   UNL     1      34.940 -16.541 -22.585  0.00  0.00    +0.018 C 
ATOM     17  C   UNL     1      34.244 -17.863 -24.941  0.00  0.00    +0.042 C 
ATOM     18  C   UNL     1      35.271 -17.885 -22.754  0.00  0.00    +0.013 C 
ATOM     19  C   UNL     1      34.924 -18.546 -23.932  0.00  0.00    +0.060 C 
ENDBRANCH  10  14
BRANCH   1  23
ATOM     20  O   UNL     1      31.320  -8.327 -21.899  0.00  0.00    -0.326 OA
ATOM     21  C   UNL     1      32.441  -8.919 -19.876  0.00  0.00    +0.187 C 
ATOM     22  C   UNL     1      33.054  -7.661 -20.462  0.00  0.00    +0.178 C 
ATOM     23  C   UNL     1      31.603  -9.446 -21.035  0.00  0.00    +0.225 C 
ATOM     24  C   UNL     1      31.932  -7.137 -21.349  0.00  0.00    +0.223 C 
BRANCH  24  28
ATOM     25  O   UNL     1      31.646  -5.073 -22.624  0.00  0.00    -0.421 OA
ATOM     26  N   UNL     1      33.217  -6.441 -23.439  0.00  0.00    -0.109 NA
ATOM     27  N   UNL     1      33.161  -5.323 -24.251  0.00  0.00    -0.112 NA
ATOM     28  C   UNL     1      32.318  -6.246 -22.511  0.00  0.00    +0.255 A 
ATOM     29  C   UNL     1      32.231  -4.553 -23.738  0.00  0.00    +0.225 A 
BRANCH  29  30
ATOM     30  C   UNL     1      31.750  -3.240 -24.187  0.00  0.00    +0.070 C 
ATOM     31  C   UNL     1      32.556  -2.693 -25.422  0.00  0.00    +0.009 C 
ATOM     32  C   UNL     1      31.852  -2.143 -23.065  0.00  0.00    +0.009 C 
ATOM     33  C   UNL     1      30.243  -3.179 -24.651  0.00  0.00    +0.009 C 
ENDBRANCH  29  30
ENDBRANCH  24  28
BRANCH  21  34
ATOM     34  O   UNL     1      31.555  -8.595 -18.807  0.00  0.00    -0.378 OA
ATOM     35  H   UNL     1      32.066  -8.253 -18.056  0.00  0.00    +0.211 HD
ENDBRANCH  21  34
BRANCH  22  36
ATOM     36  O   UNL     1      33.427  -6.727 -19.469  0.00  0.00    -0.379 OA
ATOM     37  H   UNL     1      34.190  -6.214 -19.778  0.00  0.00    +0.211 HD
ENDBRANCH  22  36
ENDBRANCH   1  23
TORSDOF 6
ENDMDL
MODEL 3
REMARK VINA RESULT:     -11.0     11.632     15.491
REMARK  Name = 9810927
REMARK  6 active torsions:
REMARK  status: ('A' for Active; 'I' for Inactive)
REMARK    1  A    between atoms: N_1  and  C_13
REMARK    2  A    between atoms: C_11  and  O_24
REMARK    3  A    between atoms: C_12  and  O_26
REMARK    4  A    between atoms: C_14  and  C_18
REMARK    5  A    between atoms: C_19  and  C_20
REMARK    6  A    between atoms: N_28  and  C_32
REMARK                            x       y       z     vdW  Elec       q    Type
REMARK                         _______ _______ _______ _____ _____    ______ ____
ROOT
ATOM      1  N   UNL     1      32.255 -10.526 -21.791  0.00  0.00    -0.247 N 
ATOM      2  N   UNL     1      33.446 -11.514 -23.398  0.00  0.00    -0.242 NA
ATOM      3  N   UNL     1      31.689 -12.466 -20.443  0.00  0.00    -0.228 NA
ATOM      4  N   UNL     1      32.623 -14.511 -21.393  0.00  0.00    -0.228 NA
ATOM      5  C   UNL     1      32.269 -11.859 -21.489  0.00  0.00    +0.152 C 
ATOM      6  C   UNL     1      32.975 -10.370 -22.946  0.00  0.00    +0.223 C 
ATOM      7  C   UNL     1      33.012 -12.453 -22.497  0.00  0.00    +0.140 C 
ATOM      8  C   UNL     1      33.182 -13.832 -22.424  0.00  0.00    +0.150 C 
ATOM      9  C   UNL     1      31.921 -13.796 -20.480  0.00  0.00    +0.253 C 
ATOM     10  N   UNL     1      33.922 -14.517 -23.403  0.00  0.00    -0.295 N 
ATOM     11  H   UNL     1      34.285 -13.930 -24.106  0.00  0.00    +0.154 HD
ENDROOT
BRANCH  10  14
ATOM     12 CL   UNL     1      35.291 -20.228 -24.152  0.00  0.00    -0.082 Cl
ATOM     13  F   UNL     1      35.193 -15.977 -21.403  0.00  0.00    -0.203 F 
ATOM     14  C   UNL     1      34.249 -15.878 -23.579  0.00  0.00    +0.077 C 
ATOM     15  C   UNL     1      34.886 -16.583 -22.558  0.00  0.00    +0.154 C 
ATOM     16  C   UNL     1      33.935 -16.518 -24.778  0.00  0.00    +0.018 C 
ATOM     17  C   UNL     1      35.208 -17.928 -22.735  0.00  0.00    +0.042 C 
ATOM     18  C   UNL     1      34.258 -17.863 -24.956  0.00  0.00    +0.013 C 
ATOM     19  C   UNL     1      34.893 -18.568 -23.934  0.00  0.00    +0.060 C 
ENDBRANCH  10  14
BRANCH   1  23
ATOM     20  O   UNL     1      31.318  -8.342 -21.899  0.00  0.00    -0.326 OA
ATOM     21  C   UNL     1      32.432  -8.928 -19.870  0.00  0.00    +0.187 C 
ATOM     22  C   UNL     1      33.045  -7.671 -20.457  0.00  0.00    +0.178 C 
ATOM     23  C   UNL     1      31.599  -9.459 -21.031  0.00  0.00    +0.225 C 
ATOM     24  C   UNL     1      31.927  -7.150 -21.349  0.00  0.00    +0.223 C 
BRANCH  24  28
ATOM     25  O   UNL     1      31.653  -5.083 -22.622  0.00  0.00    -0.421 OA
ATOM     26  N   UNL     1      33.209  -6.463 -23.444  0.00  0.00    -0.109 NA
ATOM     27  N   UNL     1      33.160  -5.344 -24.255  0.00  0.00    -0.112 NA
ATOM     28  C   UNL     1      32.316  -6.262 -22.512  0.00  0.00    +0.255 A 
ATOM     29  C   UNL     1      32.238  -4.567 -23.737  0.00  0.00    +0.225 A 
BRANCH  29  30
ATOM     30  C   UNL     1      31.767  -3.249 -24.184  0.00  0.00    +0.070 C 
ATOM     31  C   UNL     1      32.591  -2.695 -25.403  0.00  0.00    +0.009 C 
ATOM     32  C   UNL     1      31.857  -2.160 -23.053  0.00  0.00    +0.009 C 
ATOM     33  C   UNL     1      30.267  -3.181 -24.668  0.00  0.00    +0.009 C 
ENDBRANCH  29  30
ENDBRANCH  24  28
BRANCH  21  34
ATOM     34  O   UNL     1      31.541  -8.602 -18.805  0.00  0.00    -0.378 OA
ATOM     35  H   UNL     1      31.582  -9.294 -18.126  0.00  0.00    +0.211 HD
ENDBRANCH  21  34
BRANCH  22  36
ATOM     36  O   UNL     1      33.413  -6.734 -19.465  0.00  0.00    -0.379 OA
ATOM     37  H   UNL     1      34.140  -7.095 -18.932  0.00  0.00    +0.211 HD
ENDBRANCH  22  36
ENDBRANCH   1  23
TORSDOF 6
ENDMDL
MODEL 4
REMARK VINA RESULT:     -10.9      6.576      9.222
REMARK  Name = 9810927
REMARK  6 active torsions:
REMARK  status: ('A' for Active; 'I' for Inactive)
REMARK    1  A    between atoms: N_1  and  C_13
REMARK    2  A    between atoms: C_11  and  O_24
REMARK    3  A    between atoms: C_12  and  O_26
REMARK    4  A    between atoms: C_14  and  C_18
REMARK    5  A    between atoms: C_19  and  C_20
REMARK    6  A    between atoms: N_28  and  C_32
REMARK                            x       y       z     vdW  Elec       q    Type
REMARK                         _______ _______ _______ _____ _____    ______ ____
ROOT
ATOM      1  N   UNL     1      34.879 -16.801 -21.943  0.00  0.00    -0.247 N 
ATOM      2  N   UNL     1      34.040 -15.205 -20.629  0.00  0.00    -0.242 NA
ATOM      3  N   UNL     1      34.589 -15.745 -24.112  0.00  0.00    -0.228 NA
ATOM      4  N   UNL     1      33.570 -13.538 -23.896  0.00  0.00    -0.228 NA
ATOM      5  C   UNL     1      34.491 -15.787 -22.775  0.00  0.00    +0.152 C 
ATOM      6  C   UNL     1      34.586 -16.403 -20.665  0.00  0.00    +0.223 C 
ATOM      7  C   UNL     1      33.976 -14.809 -21.940  0.00  0.00    +0.140 C 
ATOM      8  C   UNL     1      33.503 -13.649 -22.547  0.00  0.00    +0.150 C 
ATOM      9  C   UNL     1      34.101 -14.578 -24.585  0.00  0.00    +0.253 C 
ATOM     10  N   UNL     1      32.963 -12.604 -21.778  0.00  0.00    -0.295 N 
ATOM     11  H   UNL     1      32.963 -12.786 -20.810  0.00  0.00    +0.154 HD
ENDROOT
BRANCH  10  14
ATOM     12 CL   UNL     1      30.700  -7.322 -23.201  0.00  0.00    -0.082 Cl
ATOM     13  F   UNL     1      30.474 -11.792 -20.833  0.00  0.00    -0.203 F 
ATOM     14  C   UNL     1      32.422 -11.346 -22.115  0.00  0.00    +0.077 C 
ATOM     15  C   UNL     1      31.172 -10.968 -21.627  0.00  0.00    +0.154 C 
ATOM     16  C   UNL     1      33.140 -10.480 -22.941  0.00  0.00    +0.018 C 
ATOM     17  C   UNL     1      30.640  -9.723 -21.962  0.00  0.00    +0.042 C 
ATOM     18  C   UNL     1      32.607  -9.236 -23.277  0.00  0.00    +0.013 C 
ATOM     19  C   UNL     1      31.358  -8.857 -22.787  0.00  0.00    +0.060 C 
ENDBRANCH  10  14
BRANCH   1  23
ATOM     20  O   UNL     1      34.604 -19.163 -22.007  0.00  0.00    -0.326 OA
ATOM     21  C   UNL     1      36.820 -18.354 -21.642  0.00  0.00    +0.187 C 
ATOM     22  C   UNL     1      36.412 -19.283 -20.515  0.00  0.00    +0.178 C 
ATOM     23  C   UNL     1      35.490 -18.074 -22.333  0.00  0.00    +0.225 C 
ATOM     24  C   UNL     1      35.300 -20.102 -21.156  0.00  0.00    +0.223 C 
BRANCH  24  28
ATOM     25  O   UNL     1      34.716 -21.712 -19.413  0.00  0.00    -0.421 OA
ATOM     26  N   UNL     1      33.000 -20.459 -20.112  0.00  0.00    -0.109 NA
ATOM     27  N   UNL     1      32.531 -21.319 -19.136  0.00  0.00    -0.112 NA
ATOM     28  C   UNL     1      34.273 -20.728 -20.235  0.00  0.00    +0.255 A 
ATOM     29  C   UNL     1      33.567 -22.030 -18.757  0.00  0.00    +0.225 A 
BRANCH  29  30
ATOM     30  C   UNL     1      33.653 -23.093 -17.747  0.00  0.00    +0.070 C 
ATOM     31  C   UNL     1      33.812 -24.522 -18.386  0.00  0.00    +0.009 C 
ATOM     32  C   UNL     1      32.381 -23.155 -16.825  0.00  0.00    +0.009 C 
ATOM     33  C   UNL     1      34.859 -22.986 -16.735  0.00  0.00    +0.009 C 
ENDBRANCH  29  30
ENDBRANCH  24  28
BRANCH  21  34
ATOM     34  O   UNL     1      37.662 -19.033 -22.572  0.00  0.00    -0.378 OA
ATOM     35  H   UNL     1      37.156 -19.241 -23.374  0.00  0.00    +0.211 HD
ENDBRANCH  21  34
BRANCH  22  36
ATOM     36  O   UNL     1      37.480 -20.095 -20.068  0.00  0.00    -0.379 OA
ATOM     37  H   UNL     1      38.191 -19.532 -19.722  0.00  0.00    +0.211 HD
ENDBRANCH  22  36
ENDBRANCH   1  23
TORSDOF 6
ENDMDL
MODEL 5
REMARK VINA RESULT:     -10.9      2.388      3.253
REMARK  Name = 9810927
REMARK  6 active torsions:
REMARK  status: ('A' for Active; 'I' for Inactive)
REMARK    1  A    between atoms: N_1  and  C_13
REMARK    2  A    between atoms: C_11  and  O_24
REMARK    3  A    between atoms: C_12  and  O_26
REMARK    4  A    between atoms: C_14  and  C_18
REMARK    5  A    between atoms: C_19  and  C_20
REMARK    6  A    between atoms: N_28  and  C_32
REMARK                            x       y       z     vdW  Elec       q    Type
REMARK                         _______ _______ _______ _____ _____    ______ ____
ROOT
ATOM      1  N   UNL     1      35.770 -22.296 -18.427  0.00  0.00    -0.247 N 
ATOM      2  N   UNL     1      36.894 -20.638 -19.411  0.00  0.00    -0.242 NA
ATOM      3  N   UNL     1      33.571 -21.936 -19.396  0.00  0.00    -0.228 NA
ATOM      4  N   UNL     1      33.574 -20.034 -20.925  0.00  0.00    -0.228 NA
ATOM      5  C   UNL     1      34.870 -21.647 -19.227  0.00  0.00    +0.152 C 
ATOM      6  C   UNL     1      36.971 -21.651 -18.572  0.00  0.00    +0.223 C 
ATOM      7  C   UNL     1      35.587 -20.624 -19.827  0.00  0.00    +0.140 C 
ATOM      8  C   UNL     1      34.891 -19.800 -20.706  0.00  0.00    +0.150 C 
ATOM      9  C   UNL     1      33.004 -21.072 -20.266  0.00  0.00    +0.253 C 
ATOM     10  N   UNL     1      35.539 -18.738 -21.360  0.00  0.00    -0.295 N 
ATOM     11  H   UNL     1      36.494 -18.658 -21.132  0.00  0.00    +0.154 HD
ENDROOT
BRANCH  10  14
ATOM     12 CL   UNL     1      33.673 -14.661 -25.227  0.00  0.00    -0.082 Cl
ATOM     13  F   UNL     1      34.788 -16.190 -20.530  0.00  0.00    -0.203 F 
ATOM     14  C   UNL     1      35.094 -17.765 -22.280  0.00  0.00    +0.077 C 
ATOM     15  C   UNL     1      34.725 -16.497 -21.833  0.00  0.00    +0.154 C 
ATOM     16  C   UNL     1      35.024 -18.074 -23.638  0.00  0.00    +0.018 C 
ATOM     17  C   UNL     1      34.286 -15.537 -22.744  0.00  0.00    +0.042 C 
ATOM     18  C   UNL     1      34.584 -17.115 -24.549  0.00  0.00    +0.013 C 
ATOM     19  C   UNL     1      34.216 -15.846 -24.103  0.00  0.00    +0.060 C 
ENDBRANCH  10  14
BRANCH   1  23
ATOM     20  O   UNL     1      34.115 -23.810 -17.637  0.00  0.00    -0.326 OA
ATOM     21  C   UNL     1      35.851 -23.229 -16.105  0.00  0.00    +0.187 C 
ATOM     22  C   UNL     1      34.496 -22.909 -15.503  0.00  0.00    +0.178 C 
ATOM     23  C   UNL     1      35.511 -23.457 -17.574  0.00  0.00    +0.225 C 
ATOM     24  C   UNL     1      33.565 -23.814 -16.299  0.00  0.00    +0.223 C 
BRANCH  24  28
ATOM     25  O   UNL     1      31.213 -24.185 -15.753  0.00  0.00    -0.421 OA
ATOM     26  N   UNL     1      31.582 -22.392 -17.039  0.00  0.00    -0.109 NA
ATOM     27  N   UNL     1      30.221 -22.482 -16.812  0.00  0.00    -0.112 NA
ATOM     28  C   UNL     1      32.112 -23.403 -16.404  0.00  0.00    +0.255 A 
ATOM     29  C   UNL     1      30.052 -23.542 -16.057  0.00  0.00    +0.225 A 
BRANCH  29  30
ATOM     30  C   UNL     1      28.816 -24.112 -15.508  0.00  0.00    +0.070 C 
ATOM     31  C   UNL     1      28.009 -24.943 -16.572  0.00  0.00    +0.009 C 
ATOM     32  C   UNL     1      27.833 -23.012 -14.962  0.00  0.00    +0.009 C 
ATOM     33  C   UNL     1      28.994 -25.107 -14.295  0.00  0.00    +0.009 C 
ENDBRANCH  29  30
ENDBRANCH  24  28
BRANCH  21  34
ATOM     34  O   UNL     1      36.358 -24.453 -15.577  0.00  0.00    -0.378 OA
ATOM     35  H   UNL     1      36.712 -24.299 -14.686  0.00  0.00    +0.211 HD
ENDBRANCH  21  34
BRANCH  22  36
ATOM     36  O   UNL     1      34.442 -23.179 -14.116  0.00  0.00    -0.379 OA
ATOM     37  H   UNL     1      34.481 -22.344 -13.622  0.00  0.00    +0.211 HD
ENDBRANCH  22  36
ENDBRANCH   1  23
TORSDOF 6
ENDMDL
MODEL 6
REMARK VINA RESULT:     -10.3      1.679      2.666
REMARK  Name = 9810927
REMARK  6 active torsions:
REMARK  status: ('A' for Active; 'I' for Inactive)
REMARK    1  A    between atoms: N_1  and  C_13
REMARK    2  A    between atoms: C_11  and  O_24
REMARK    3  A    between atoms: C_12  and  O_26
REMARK    4  A    between atoms: C_14  and  C_18
REMARK    5  A    between atoms: C_19  and  C_20
REMARK    6  A    between atoms: N_28  and  C_32
REMARK                            x       y       z     vdW  Elec       q    Type
REMARK                         _______ _______ _______ _____ _____    ______ ____
ROOT
ATOM      1  N   UNL     1      34.740 -22.967 -17.882  0.00  0.00    -0.247 N 
ATOM      2  N   UNL     1      33.307 -21.937 -19.247  0.00  0.00    -0.242 NA
ATOM      3  N   UNL     1      36.811 -21.905 -18.578  0.00  0.00    -0.228 NA
ATOM      4  N   UNL     1      36.422 -20.277 -20.354  0.00  0.00    -0.228 NA
ATOM      5  C   UNL     1      35.486 -22.104 -18.635  0.00  0.00    +0.152 C 
ATOM      6  C   UNL     1      33.438 -22.830 -18.288  0.00  0.00    +0.223 C 
ATOM      7  C   UNL     1      34.579 -21.475 -19.473  0.00  0.00    +0.140 C 
ATOM      8  C   UNL     1      35.090 -20.530 -20.357  0.00  0.00    +0.150 C 
ATOM      9  C   UNL     1      37.188 -20.971 -19.478  0.00  0.00    +0.253 C 
ATOM     10  N   UNL     1      34.243 -19.842 -21.243  0.00  0.00    -0.295 N 
ATOM     11  H   UNL     1      33.295 -20.099 -21.162  0.00  0.00    +0.154 HD
ENDROOT
BRANCH  10  14
ATOM     12 CL   UNL     1      35.229 -15.714 -25.370  0.00  0.00    -0.082 Cl
ATOM     13  F   UNL     1      34.919 -17.233 -20.549  0.00  0.00    -0.203 F 
ATOM     14  C   UNL     1      34.478 -18.857 -22.225  0.00  0.00    +0.077 C 
ATOM     15  C   UNL     1      34.815 -17.558 -21.846  0.00  0.00    +0.154 C 
ATOM     16  C   UNL     1      34.372 -19.184 -23.576  0.00  0.00    +0.018 C 
ATOM     17  C   UNL     1      35.048 -16.586 -22.818  0.00  0.00    +0.042 C 
ATOM     18  C   UNL     1      34.604 -18.212 -24.549  0.00  0.00    +0.013 C 
ATOM     19  C   UNL     1      34.942 -16.914 -24.171  0.00  0.00    +0.060 C 
ENDBRANCH  10  14
BRANCH   1  23
ATOM     20  O   UNL     1      34.113 -24.461 -16.140  0.00  0.00    -0.326 OA
ATOM     21  C   UNL     1      36.104 -23.190 -15.794  0.00  0.00    +0.187 C 
ATOM     22  C   UNL     1      35.130 -22.951 -14.657  0.00  0.00    +0.178 C 
ATOM     23  C   UNL     1      35.228 -23.872 -16.839  0.00  0.00    +0.225 C 
ATOM     24  C   UNL     1      34.242 -24.186 -14.725  0.00  0.00    +0.223 C 
BRANCH  24  28
ATOM     25  O   UNL     1      31.835 -23.917 -15.051  0.00  0.00    -0.421 OA
ATOM     26  N   UNL     1      32.453 -24.105 -12.909  0.00  0.00    -0.109 NA
ATOM     27  N   UNL     1      31.078 -23.959 -12.946  0.00  0.00    -0.112 NA
ATOM     28  C   UNL     1      32.843 -24.074 -14.156  0.00  0.00    +0.255 A 
ATOM     29  C   UNL     1      30.763 -23.853 -14.215  0.00  0.00    +0.225 A 
BRANCH  29  30
ATOM     30  C   UNL     1      29.445 -23.682 -14.840  0.00  0.00    +0.070 C 
ATOM     31  C   UNL     1      28.594 -25.005 -14.826  0.00  0.00    +0.009 C 
ATOM     32  C   UNL     1      29.543 -23.230 -16.344  0.00  0.00    +0.009 C 
ATOM     33  C   UNL     1      28.500 -22.607 -14.174  0.00  0.00    +0.009 C 
ENDBRANCH  29  30
ENDBRANCH  24  28
BRANCH  21  34
ATOM     34  O   UNL     1      37.117 -24.115 -15.401  0.00  0.00    -0.378 OA
ATOM     35  H   UNL     1      37.091 -24.232 -14.437  0.00  0.00    +0.211 HD
ENDBRANCH  21  34
BRANCH  22  36
ATOM     36  O   UNL     1      35.776 -22.830 -13.405  0.00  0.00    -0.379 OA
ATOM     37  H   UNL     1      36.616 -23.316 -13.427  0.00  0.00    +0.211 HD
ENDBRANCH  22  36
ENDBRANCH   1  23
TORSDOF 6
ENDMDL
MODEL 7
REMARK VINA RESULT:     -10.2      7.536     11.664
REMARK  Name = 9810927
REMARK  6 active torsions:
REMARK  status: ('A' for Active; 'I' for Inactive)
REMARK    1  A    between atoms: N_1  and  C_13
REMARK    2  A    between atoms: C_11  and  O_24
REMARK    3  A    between atoms: C_12  and  O_26
REMARK    4  A    between atoms: C_14  and  C_18
REMARK    5  A    between atoms: C_19  and  C_20
REMARK    6  A    between atoms: N_28  and  C_32
REMARK                            x       y       z     vdW  Elec       q    Type
REMARK                         _______ _______ _______ _____ _____    ______ ____
ROOT
ATOM      1  N   UNL     1      34.709 -16.906 -24.293  0.00  0.00    -0.247 N 
ATOM      2  N   UNL     1      34.476 -19.107 -24.016  0.00  0.00    -0.242 NA
ATOM      3  N   UNL     1      35.006 -16.227 -21.979  0.00  0.00    -0.228 NA
ATOM      4  N   UNL     1      34.923 -18.146 -20.472  0.00  0.00    -0.228 NA
ATOM      5  C   UNL     1      34.808 -17.133 -22.948  0.00  0.00    +0.152 C 
ATOM      6  C   UNL     1      34.509 -18.123 -24.890  0.00  0.00    +0.223 C 
ATOM      7  C   UNL     1      34.662 -18.503 -22.799  0.00  0.00    +0.140 C 
ATOM      8  C   UNL     1      34.725 -19.004 -21.502  0.00  0.00    +0.150 C 
ATOM      9  C   UNL     1      35.048 -16.830 -20.771  0.00  0.00    +0.253 C 
ATOM     10  N   UNL     1      34.588 -20.382 -21.257  0.00  0.00    -0.295 N 
ATOM     11  H   UNL     1      34.450 -20.916 -22.074  0.00  0.00    +0.154 HD
ENDROOT
BRANCH  10  14
ATOM     12 CL   UNL     1      34.666 -23.615 -16.299  0.00  0.00    -0.082 Cl
ATOM     13  F   UNL     1      36.976 -21.004 -19.971  0.00  0.00    -0.203 F 
ATOM     14  C   UNL     1      34.608 -21.152 -20.075  0.00  0.00    +0.077 C 
ATOM     15  C   UNL     1      35.821 -21.447 -19.454  0.00  0.00    +0.154 C 
ATOM     16  C   UNL     1      33.413 -21.619 -19.530  0.00  0.00    +0.018 C 
ATOM     17  C   UNL     1      35.839 -22.209 -18.286  0.00  0.00    +0.042 C 
ATOM     18  C   UNL     1      33.430 -22.382 -18.363  0.00  0.00    +0.013 C 
ATOM     19  C   UNL     1      34.643 -22.676 -17.740  0.00  0.00    +0.060 C 
ENDBRANCH  10  14
BRANCH   1  23
ATOM     20  O   UNL     1      34.685 -14.543 -24.015  0.00  0.00    -0.326 OA
ATOM     21  C   UNL     1      33.708 -15.394 -26.020  0.00  0.00    +0.187 C 
ATOM     22  C   UNL     1      32.699 -14.547 -25.267  0.00  0.00    +0.178 C 
ATOM     23  C   UNL     1      34.797 -15.613 -24.975  0.00  0.00    +0.225 C 
ATOM     24  C   UNL     1      33.594 -13.675 -24.397  0.00  0.00    +0.223 C 
BRANCH  24  28
ATOM     25  O   UNL     1      32.807 -11.767 -23.089  0.00  0.00    -0.421 OA
ATOM     26  N   UNL     1      32.629 -13.733 -22.037  0.00  0.00    -0.109 NA
ATOM     27  N   UNL     1      32.153 -12.750 -21.188  0.00  0.00    -0.112 NA
ATOM     28  C   UNL     1      32.996 -13.110 -23.125  0.00  0.00    +0.255 A 
ATOM     29  C   UNL     1      32.277 -11.620 -21.844  0.00  0.00    +0.225 A 
BRANCH  29  30
ATOM     30  C   UNL     1      31.926 -10.255 -21.430  0.00  0.00    +0.070 C 
ATOM     31  C   UNL     1      31.623 -10.150 -19.891  0.00  0.00    +0.009 C 
ATOM     32  C   UNL     1      30.654  -9.706 -22.174  0.00  0.00    +0.009 C 
ATOM     33  C   UNL     1      33.027  -9.153 -21.683  0.00  0.00    +0.009 C 
ENDBRANCH  29  30
ENDBRANCH  24  28
BRANCH  21  34
ATOM     34  O   UNL     1      34.279 -14.655 -27.098  0.00  0.00    -0.378 OA
ATOM     35  H   UNL     1      33.607 -14.066 -27.477  0.00  0.00    +0.211 HD
ENDBRANCH  21  34
BRANCH  22  36
ATOM     36  O   UNL     1      31.886 -13.779 -26.131  0.00  0.00    -0.379 OA
ATOM     37  H   UNL     1      31.659 -12.939 -25.700  0.00  0.00    +0.211 HD
ENDBRANCH  22  36
ENDBRANCH   1  23
TORSDOF 6
ENDMDL
MODEL 8
REMARK VINA RESULT:     -10.1      5.821     10.226
REMARK  Name = 9810927
REMARK  6 active torsions:
REMARK  status: ('A' for Active; 'I' for Inactive)
REMARK    1  A    between atoms: N_1  and  C_13
REMARK    2  A    between atoms: C_11  and  O_24
REMARK    3  A    between atoms: C_12  and  O_26
REMARK    4  A    between atoms: C_14  and  C_18
REMARK    5  A    between atoms: C_19  and  C_20
REMARK    6  A    between atoms: N_28  and  C_32
REMARK                            x       y       z     vdW  Elec       q    Type
REMARK                         _______ _______ _______ _____ _____    ______ ____
ROOT
ATOM      1  N   UNL     1      34.372 -20.420 -20.943  0.00  0.00    -0.247 N 
ATOM      2  N   UNL     1      32.405 -20.815 -19.966  0.00  0.00    -0.242 NA
ATOM      3  N   UNL     1      35.832 -21.662 -19.450  0.00  0.00    -0.228 NA
ATOM      4  N   UNL     1      34.568 -22.728 -17.654  0.00  0.00    -0.228 NA
ATOM      5  C   UNL     1      34.637 -21.209 -19.858  0.00  0.00    +0.152 C 
ATOM      6  C   UNL     1      33.018 -20.211 -20.964  0.00  0.00    +0.223 C 
ATOM      7  C   UNL     1      33.405 -21.443 -19.268  0.00  0.00    +0.140 C 
ATOM      8  C   UNL     1      33.396 -22.235 -18.124  0.00  0.00    +0.150 C 
ATOM      9  C   UNL     1      35.696 -22.414 -18.336  0.00  0.00    +0.253 C 
ATOM     10  N   UNL     1      32.191 -22.525 -17.461  0.00  0.00    -0.295 N 
ATOM     11  H   UNL     1      31.400 -22.120 -17.886  0.00  0.00    +0.154 HD
ENDROOT
BRANCH  10  14
ATOM     12 CL   UNL     1      30.932 -25.698 -12.624  0.00  0.00    -0.082 Cl
ATOM     13  F   UNL     1      29.562 -23.099 -16.748  0.00  0.00    -0.203 F 
ATOM     14  C   UNL     1      31.889 -23.281 -16.309  0.00  0.00    +0.077 C 
ATOM     15  C   UNL     1      30.562 -23.552 -15.978  0.00  0.00    +0.154 C 
ATOM     16  C   UNL     1      32.921 -23.756 -15.500  0.00  0.00    +0.018 C 
ATOM     17  C   UNL     1      30.266 -24.299 -14.838  0.00  0.00    +0.042 C 
ATOM     18  C   UNL     1      32.625 -24.503 -14.360  0.00  0.00    +0.013 C 
ATOM     19  C   UNL     1      31.298 -24.776 -14.029  0.00  0.00    +0.060 C 
ENDBRANCH  10  14
BRANCH   1  23
ATOM     20  O   UNL     1      35.606 -18.502 -21.621  0.00  0.00    -0.326 OA
ATOM     21  C   UNL     1      34.879 -19.974 -23.354  0.00  0.00    +0.187 C 
ATOM     22  C   UNL     1      34.365 -18.570 -23.613  0.00  0.00    +0.178 C 
ATOM     23  C   UNL     1      35.342 -19.891 -21.904  0.00  0.00    +0.225 C 
ATOM     24  C   UNL     1      35.333 -17.717 -22.804  0.00  0.00    +0.223 C 
BRANCH  24  28
ATOM     25  O   UNL     1      34.283 -15.565 -23.290  0.00  0.00    -0.421 OA
ATOM     26  N   UNL     1      34.901 -15.820 -21.156  0.00  0.00    -0.109 NA
ATOM     27  N   UNL     1      34.327 -14.568 -21.288  0.00  0.00    -0.112 NA
ATOM     28  C   UNL     1      34.851 -16.357 -22.346  0.00  0.00    +0.255 A 
ATOM     29  C   UNL     1      33.982 -14.464 -22.550  0.00  0.00    +0.225 A 
BRANCH  29  30
ATOM     30  C   UNL     1      33.330 -13.351 -23.252  0.00  0.00    +0.070 C 
ATOM     31  C   UNL     1      32.161 -12.712 -22.415  0.00  0.00    +0.009 C 
ATOM     32  C   UNL     1      32.707 -13.787 -24.629  0.00  0.00    +0.009 C 
ATOM     33  C   UNL     1      34.257 -12.127 -23.617  0.00  0.00    +0.009 C 
ENDBRANCH  29  30
ENDBRANCH  24  28
BRANCH  21  34
ATOM     34  O   UNL     1      36.021 -20.248 -24.164  0.00  0.00    -0.378 OA
ATOM     35  H   UNL     1      36.656 -20.779 -23.657  0.00  0.00    +0.211 HD
ENDBRANCH  21  34
BRANCH  22  36
ATOM     36  O   UNL     1      34.379 -18.233 -24.986  0.00  0.00    -0.379 OA
ATOM     37  H   UNL     1      34.019 -18.971 -25.504  0.00  0.00    +0.211 HD
ENDBRANCH  22  36
ENDBRANCH   1  23
TORSDOF 6
ENDMDL
MODEL 9
REMARK VINA RESULT:     -10.1     12.426     16.658
REMARK  Name = 9810927
REMARK  6 active torsions:
REMARK  status: ('A' for Active; 'I' for Inactive)
REMARK    1  A    between atoms: N_1  and  C_13
REMARK    2  A    between atoms: C_11  and  O_24
REMARK    3  A    between atoms: C_12  and  O_26
REMARK    4  A    between atoms: C_14  and  C_18
REMARK    5  A    between atoms: C_19  and  C_20
REMARK    6  A    between atoms: N_28  and  C_32
REMARK                            x       y       z     vdW  Elec       q    Type
REMARK                         _______ _______ _______ _____ _____    ______ ____
ROOT
ATOM      1  N   UNL     1      32.259  -9.653 -22.738  0.00  0.00    -0.247 N 
ATOM      2  N   UNL     1      33.857 -10.945 -23.606  0.00  0.00    -0.242 NA
ATOM      3  N   UNL     1      31.211 -11.247 -21.233  0.00  0.00    -0.228 NA
ATOM      4  N   UNL     1      32.312 -13.423 -21.336  0.00  0.00    -0.228 NA
ATOM      5  C   UNL     1      32.119 -10.879 -22.149  0.00  0.00    +0.152 C 
ATOM      6  C   UNL     1      33.316  -9.744 -23.605  0.00  0.00    +0.223 C 
ATOM      7  C   UNL     1      33.120 -11.663 -22.700  0.00  0.00    +0.140 C 
ATOM      8  C   UNL     1      33.199 -12.981 -22.261  0.00  0.00    +0.150 C 
ATOM      9  C   UNL     1      31.386 -12.541 -20.887  0.00  0.00    +0.253 C 
ATOM     10  N   UNL     1      34.184 -13.849 -22.766  0.00  0.00    -0.295 N 
ATOM     11  H   UNL     1      34.777 -13.428 -23.430  0.00  0.00    +0.154 HD
ENDROOT
BRANCH  10  14
ATOM     12 CL   UNL     1      35.476 -19.523 -21.681  0.00  0.00    -0.082 Cl
ATOM     13  F   UNL     1      34.606 -15.660 -24.837  0.00  0.00    -0.203 F 
ATOM     14  C   UNL     1      34.492 -15.201 -22.510  0.00  0.00    +0.077 C 
ATOM     15  C   UNL     1      34.698 -16.085 -23.569  0.00  0.00    +0.154 C 
ATOM     16  C   UNL     1      34.589 -15.654 -21.194  0.00  0.00    +0.018 C 
ATOM     17  C   UNL     1      35.003 -17.421 -23.313  0.00  0.00    +0.042 C 
ATOM     18  C   UNL     1      34.893 -16.991 -20.938  0.00  0.00    +0.013 C 
ATOM     19  C   UNL     1      35.101 -17.874 -21.996  0.00  0.00    +0.060 C 
ENDBRANCH  10  14
BRANCH   1  23
ATOM     20  O   UNL     1      31.527  -7.571 -23.626  0.00  0.00    -0.326 OA
ATOM     21  C   UNL     1      31.858  -7.669 -21.264  0.00  0.00    +0.187 C 
ATOM     22  C   UNL     1      32.697  -6.555 -21.861  0.00  0.00    +0.178 C 
ATOM     23  C   UNL     1      31.440  -8.463 -22.496  0.00  0.00    +0.225 C 
ATOM     24  C   UNL     1      31.974  -6.272 -23.171  0.00  0.00    +0.223 C 
BRANCH  24  28
ATOM     25  O   UNL     1      32.373  -4.430 -24.726  0.00  0.00    -0.421 OA
ATOM     26  N   UNL     1      33.823  -6.122 -24.921  0.00  0.00    -0.109 NA
ATOM     27  N   UNL     1      34.163  -5.159 -25.853  0.00  0.00    -0.112 NA
ATOM     28  C   UNL     1      32.779  -5.651 -24.293  0.00  0.00    +0.255 A 
ATOM     29  C   UNL     1      33.290  -4.191 -25.703  0.00  0.00    +0.225 A 
BRANCH  29  30
ATOM     30  C   UNL     1      33.172  -2.916 -26.424  0.00  0.00    +0.070 C 
ATOM     31  C   UNL     1      32.160  -1.927 -25.738  0.00  0.00    +0.009 C 
ATOM     32  C   UNL     1      32.680  -3.103 -27.906  0.00  0.00    +0.009 C 
ATOM     33  C   UNL     1      34.502  -2.076 -26.561  0.00  0.00    +0.009 C 
ENDBRANCH  29  30
ENDBRANCH  24  28
BRANCH  21  34
ATOM     34  O   UNL     1      30.677  -7.140 -20.663  0.00  0.00    -0.378 OA
ATOM     35  H   UNL     1      30.167  -6.650 -21.328  0.00  0.00    +0.211 HD
ENDBRANCH  21  34
BRANCH  22  36
ATOM     36  O   UNL     1      32.755  -5.414 -21.029  0.00  0.00    -0.379 OA
ATOM     37  H   UNL     1      32.947  -4.630 -21.568  0.00  0.00    +0.211 HD
ENDBRANCH  22  36
ENDBRANCH   1  23
TORSDOF 6
ENDMDL
