MODEL 1
REMARK VINA RESULT:     -11.3      0.000      0.000
REMARK  Name = 10250490
REMARK  6 active torsions:
REMARK  status: ('A' for Active; 'I' for Inactive)
REMARK    1  A    between atoms: N_2  and  C_18
REMARK    2  A    between atoms: C_3  and  C_6
REMARK    3  A    between atoms: C_5  and  N_12
REMARK    4  A    between atoms: C_18  and  C_19
REMARK    5  A    between atoms: C_19  and  N_21
REMARK    6  A    between atoms: C_22  and  C_26
REMARK                            x       y       z     vdW  Elec       q    Type
REMARK                         _______ _______ _______ _____ _____    ______ ____
ROOT
ATOM      1  O   UNL     1      33.695 -23.863 -17.794  0.00  0.00    -0.270 OA
ATOM      2  N   UNL     1      35.596 -22.945 -16.837  0.00  0.00    -0.299 N 
ATOM      3  C   UNL     1      34.591 -23.001 -17.808  0.00  0.00    +0.246 C 
ATOM      4  H   UNL     1      36.275 -22.235 -16.909  0.00  0.00    +0.150 HD
ENDROOT
BRANCH   3   6
ATOM      5  C   UNL     1      34.747 -20.110 -20.913  0.00  0.00    +0.058 C 
ATOM      6  C   UNL     1      34.643 -22.010 -18.871  0.00  0.00    +0.053 C 
ATOM      7  C   UNL     1      33.515 -20.526 -20.406  0.00  0.00    +0.015 C 
ATOM      8  C   UNL     1      35.928 -20.645 -20.397  0.00  0.00    +0.015 C 
ATOM      9  C   UNL     1      33.463 -21.475 -19.386  0.00  0.00    +0.006 C 
ATOM     10  C   UNL     1      35.876 -21.596 -19.377  0.00  0.00    +0.006 C 
BRANCH   5  12
ATOM     11  O   UNL     1      35.178 -17.275 -20.540  0.00  0.00    -0.269 OA
ATOM     12  N   UNL     1      34.800 -19.124 -21.974  0.00  0.00    -0.233 N 
ATOM     13  C   UNL     1      35.059 -17.764 -21.663  0.00  0.00    +0.257 C 
ATOM     14  C   UNL     1      34.575 -19.498 -23.300  0.00  0.00    +0.072 C 
ATOM     15  C   UNL     1      35.144 -16.821 -22.822  0.00  0.00    +0.059 C 
ATOM     16  C   UNL     1      34.623 -18.630 -24.317  0.00  0.00    +0.017 C 
ATOM     17  C   UNL     1      34.923 -17.252 -24.066  0.00  0.00    +0.006 C 
ENDBRANCH   5  12
ENDBRANCH   3   6
BRANCH   2  18
ATOM     18  C   UNL     1      35.694 -23.872 -15.733  0.00  0.00    +0.111 C 
BRANCH  18  19
ATOM     19  C   UNL     1      34.835 -23.451 -14.552  0.00  0.00    +0.111 C 
BRANCH  19  21
ATOM     20  O   UNL     1      33.008 -24.987 -12.957  0.00  0.00    -0.270 OA
ATOM     21  N   UNL     1      33.434 -23.652 -14.805  0.00  0.00    -0.299 N 
ATOM     22  C   UNL     1      32.624 -24.416 -13.974  0.00  0.00    +0.252 C 
ATOM     23  H   UNL     1      33.033 -23.231 -15.601  0.00  0.00    +0.150 HD
BRANCH  22  26
ATOM     24 CL   UNL     1      27.836 -23.702 -16.535  0.00  0.00    -0.075 Cl
ATOM     25  S   UNL     1      30.655 -23.535 -15.617  0.00  0.00    -0.071 S 
ATOM     26  C   UNL     1      31.203 -24.548 -14.388  0.00  0.00    +0.084 C 
ATOM     27  C   UNL     1      30.294 -25.396 -13.884  0.00  0.00    +0.012 C 
ATOM     28  C   UNL     1      29.042 -25.220 -14.542  0.00  0.00    +0.019 C 
ATOM     29  C   UNL     1      29.098 -24.239 -15.508  0.00  0.00    +0.087 C 
ENDBRANCH  22  26
ENDBRANCH  19  21
ENDBRANCH  18  19
ENDBRANCH   2  18
TORSDOF 6
ENDMDL
MODEL 2
REMARK VINA RESULT:     -10.9      2.995      3.925
REMARK  Name = 10250490
REMARK  6 active torsions:
REMARK  status: ('A' for Active; 'I' for Inactive)
REMARK    1  A    between atoms: N_2  and  C_18
REMARK    2  A    between atoms: C_3  and  C_6
REMARK    3  A    between atoms: C_5  and  N_12
REMARK    4  A    between atoms: C_18  and  C_19
REMARK    5  A    between atoms: C_19  and  N_21
REMARK    6  A    between atoms: C_22  and  C_26
REMARK                            x       y       z     vdW  Elec       q    Type
REMARK                         _______ _______ _______ _____ _____    ______ ____
ROOT
ATOM      1  O   UNL     1      34.585 -23.586 -17.164  0.00  0.00    -0.270 OA
ATOM      2  N   UNL     1      32.338 -23.014 -17.172  0.00  0.00    -0.299 N 
ATOM      3  C   UNL     1      33.651 -22.922 -17.647  0.00  0.00    +0.246 C 
ATOM      4  H   UNL     1      31.646 -22.460 -17.602  0.00  0.00    +0.150 HD
ENDROOT
BRANCH   3   6
ATOM      5  C   UNL     1      34.368 -20.194 -20.819  0.00  0.00    +0.058 C 
ATOM      6  C   UNL     1      33.896 -21.987 -18.733  0.00  0.00    +0.053 C 
ATOM      7  C   UNL     1      33.066 -20.412 -20.366  0.00  0.00    +0.015 C 
ATOM      8  C   UNL     1      35.434 -20.873 -20.227  0.00  0.00    +0.015 C 
ATOM      9  C   UNL     1      32.831 -21.308 -19.323  0.00  0.00    +0.006 C 
ATOM     10  C   UNL     1      35.198 -21.769 -19.185  0.00  0.00    +0.006 C 
BRANCH   5  12
ATOM     11  O   UNL     1      35.181 -17.437 -20.504  0.00  0.00    -0.269 OA
ATOM     12  N   UNL     1      34.612 -19.263 -21.903  0.00  0.00    -0.233 N 
ATOM     13  C   UNL     1      35.048 -17.943 -21.618  0.00  0.00    +0.257 C 
ATOM     14  C   UNL     1      34.400 -19.649 -23.228  0.00  0.00    +0.072 C 
ATOM     15  C   UNL     1      35.322 -17.063 -22.796  0.00  0.00    +0.059 C 
ATOM     16  C   UNL     1      34.620 -18.832 -24.265  0.00  0.00    +0.017 C 
ATOM     17  C   UNL     1      35.102 -17.502 -24.038  0.00  0.00    +0.006 C 
ENDBRANCH   5  12
ENDBRANCH   3   6
BRANCH   2  18
ATOM     18  C   UNL     1      31.940 -23.879 -16.085  0.00  0.00    +0.111 C 
BRANCH  18  19
ATOM     19  C   UNL     1      32.157 -23.231 -14.727  0.00  0.00    +0.111 C 
BRANCH  19  21
ATOM     20  O   UNL     1      32.728 -25.188 -12.706  0.00  0.00    -0.270 OA
ATOM     21  N   UNL     1      33.448 -23.547 -14.179  0.00  0.00    -0.299 N 
ATOM     22  C   UNL     1      33.629 -24.514 -13.198  0.00  0.00    +0.252 C 
ATOM     23  H   UNL     1      34.235 -23.057 -14.512  0.00  0.00    +0.150 HD
BRANCH  22  26
ATOM     24 CL   UNL     1      38.990 -25.617 -13.005  0.00  0.00    -0.075 Cl
ATOM     25  S   UNL     1      36.171 -25.204 -13.843  0.00  0.00    -0.071 S 
ATOM     26  C   UNL     1      35.022 -24.704 -12.717  0.00  0.00    +0.084 C 
ATOM     27  C   UNL     1      35.474 -24.518 -11.467  0.00  0.00    +0.012 C 
ATOM     28  C   UNL     1      36.869 -24.803 -11.403  0.00  0.00    +0.019 C 
ATOM     29  C   UNL     1      37.376 -25.187 -12.625  0.00  0.00    +0.087 C 
ENDBRANCH  22  26
ENDBRANCH  19  21
ENDBRANCH  18  19
ENDBRANCH   2  18
TORSDOF 6
ENDMDL
MODEL 3
REMARK VINA RESULT:     -10.6      5.169     10.119
REMARK  Name = 10250490
REMARK  6 active torsions:
REMARK  status: ('A' for Active; 'I' for Inactive)
REMARK    1  A    between atoms: N_2  and  C_18
REMARK    2  A    between atoms: C_3  and  C_6
REMARK    3  A    between atoms: C_5  and  N_12
REMARK    4  A    between atoms: C_18  and  C_19
REMARK    5  A    between atoms: C_19  and  N_21
REMARK    6  A    between atoms: C_22  and  C_26
REMARK                            x       y       z     vdW  Elec       q    Type
REMARK                         _______ _______ _______ _____ _____    ______ ____
ROOT
ATOM      1  O   UNL     1      35.623 -15.307 -23.762  0.00  0.00    -0.270 OA
ATOM      2  N   UNL     1      34.103 -16.431 -25.104  0.00  0.00    -0.299 N 
ATOM      3  C   UNL     1      34.904 -16.301 -23.964  0.00  0.00    +0.246 C 
ATOM      4  H   UNL     1      33.557 -17.245 -25.200  0.00  0.00    +0.150 HD
ENDROOT
BRANCH   3   6
ATOM      5  C   UNL     1      34.846 -19.516 -21.192  0.00  0.00    +0.058 C 
ATOM      6  C   UNL     1      34.884 -17.402 -23.014  0.00  0.00    +0.053 C 
ATOM      7  C   UNL     1      34.957 -18.202 -20.736  0.00  0.00    +0.015 C 
ATOM      8  C   UNL     1      34.754 -19.772 -22.561  0.00  0.00    +0.015 C 
ATOM      9  C   UNL     1      34.975 -17.146 -21.646  0.00  0.00    +0.006 C 
ATOM     10  C   UNL     1      34.773 -18.715 -23.471  0.00  0.00    +0.006 C 
BRANCH   5  12
ATOM     11  O   UNL     1      32.467 -20.709 -20.061  0.00  0.00    -0.269 OA
ATOM     12  N   UNL     1      34.828 -20.614 -20.246  0.00  0.00    -0.233 N 
ATOM     13  C   UNL     1      33.589 -21.138 -19.795  0.00  0.00    +0.257 C 
ATOM     14  C   UNL     1      36.023 -21.146 -19.756  0.00  0.00    +0.072 C 
ATOM     15  C   UNL     1      33.661 -22.301 -18.856  0.00  0.00    +0.059 C 
ATOM     16  C   UNL     1      36.061 -22.165 -18.890  0.00  0.00    +0.017 C 
ATOM     17  C   UNL     1      34.841 -22.762 -18.434  0.00  0.00    +0.006 C 
ENDBRANCH   5  12
ENDBRANCH   3   6
BRANCH   2  18
ATOM     18  C   UNL     1      34.033 -15.436 -26.149  0.00  0.00    +0.111 C 
BRANCH  18  19
ATOM     19  C   UNL     1      32.910 -14.439 -25.919  0.00  0.00    +0.111 C 
BRANCH  19  21
ATOM     20  O   UNL     1      33.818 -12.357 -24.164  0.00  0.00    -0.270 OA
ATOM     21  N   UNL     1      32.595 -14.295 -24.523  0.00  0.00    -0.299 N 
ATOM     22  C   UNL     1      33.083 -13.249 -23.749  0.00  0.00    +0.252 C 
ATOM     23  H   UNL     1      32.011 -14.965 -24.099  0.00  0.00    +0.150 HD
BRANCH  22  26
ATOM     24 CL   UNL     1      31.301 -11.698 -18.809  0.00  0.00    -0.075 Cl
ATOM     25  S   UNL     1      32.124 -11.812 -21.660  0.00  0.00    -0.071 S 
ATOM     26  C   UNL     1      32.687 -13.257 -22.317  0.00  0.00    +0.084 C 
ATOM     27  C   UNL     1      32.730 -14.302 -21.476  0.00  0.00    +0.012 C 
ATOM     28  C   UNL     1      32.269 -13.910 -20.185  0.00  0.00    +0.019 C 
ATOM     29  C   UNL     1      31.907 -12.582 -20.145  0.00  0.00    +0.087 C 
ENDBRANCH  22  26
ENDBRANCH  19  21
ENDBRANCH  18  19
ENDBRANCH   2  18
TORSDOF 6
ENDMDL
MODEL 4
REMARK VINA RESULT:     -10.3      7.878     12.995
REMARK  Name = 10250490
REMARK  6 active torsions:
REMARK  status: ('A' for Active; 'I' for Inactive)
REMARK    1  A    between atoms: N_2  and  C_18
REMARK    2  A    between atoms: C_3  and  C_6
REMARK    3  A    between atoms: C_5  and  N_12
REMARK    4  A    between atoms: C_18  and  C_19
REMARK    5  A    between atoms: C_19  and  N_21
REMARK    6  A    between atoms: C_22  and  C_26
REMARK                            x       y       z     vdW  Elec       q    Type
REMARK                         _______ _______ _______ _____ _____    ______ ____
ROOT
ATOM      1  O   UNL     1      33.725 -14.516 -24.965  0.00  0.00    -0.270 OA
ATOM      2  N   UNL     1      34.334 -13.256 -23.117  0.00  0.00    -0.299 N 
ATOM      3  C   UNL     1      34.156 -14.464 -23.800  0.00  0.00    +0.246 C 
ATOM      4  H   UNL     1      34.679 -13.288 -22.195  0.00  0.00    +0.150 HD
ENDROOT
BRANCH   3   6
ATOM      5  C   UNL     1      35.089 -18.026 -21.688  0.00  0.00    +0.058 C 
ATOM      6  C   UNL     1      34.476 -15.685 -23.077  0.00  0.00    +0.053 C 
ATOM      7  C   UNL     1      35.104 -18.017 -23.083  0.00  0.00    +0.015 C 
ATOM      8  C   UNL     1      34.768 -16.863 -20.988  0.00  0.00    +0.015 C 
ATOM      9  C   UNL     1      34.798 -16.847 -23.777  0.00  0.00    +0.006 C 
ATOM     10  C   UNL     1      34.461 -15.692 -21.682  0.00  0.00    +0.006 C 
BRANCH   5  12
ATOM     11  O   UNL     1      37.750 -18.889 -20.955  0.00  0.00    -0.269 OA
ATOM     12  N   UNL     1      35.407 -19.243 -20.967  0.00  0.00    -0.233 N 
ATOM     13  C   UNL     1      36.754 -19.535 -20.631  0.00  0.00    +0.257 C 
ATOM     14  C   UNL     1      34.398 -20.143 -20.619  0.00  0.00    +0.072 C 
ATOM     15  C   UNL     1      36.988 -20.787 -19.845  0.00  0.00    +0.059 C 
ATOM     16  C   UNL     1      34.636 -21.274 -19.945  0.00  0.00    +0.017 C 
ATOM     17  C   UNL     1      35.972 -21.599 -19.542  0.00  0.00    +0.006 C 
ENDBRANCH   5  12
ENDBRANCH   3   6
BRANCH   2  18
ATOM     18  C   UNL     1      34.038 -11.963 -23.690  0.00  0.00    +0.111 C 
BRANCH  18  19
ATOM     19  C   UNL     1      33.004 -11.199 -22.880  0.00  0.00    +0.111 C 
BRANCH  19  21
ATOM     20  O   UNL     1      32.266  -8.986 -21.207  0.00  0.00    -0.270 OA
ATOM     21  N   UNL     1      32.929  -9.816 -23.269  0.00  0.00    -0.299 N 
ATOM     22  C   UNL     1      32.560  -8.808 -22.386  0.00  0.00    +0.252 C 
ATOM     23  H   UNL     1      33.148  -9.575 -24.198  0.00  0.00    +0.150 HD
BRANCH  22  26
ATOM     24 CL   UNL     1      30.919  -3.743 -23.667  0.00  0.00    -0.075 Cl
ATOM     25  S   UNL     1      31.145  -6.506 -22.601  0.00  0.00    -0.071 S 
ATOM     26  C   UNL     1      32.506  -7.434 -22.949  0.00  0.00    +0.084 C 
ATOM     27  C   UNL     1      33.435  -6.842 -23.716  0.00  0.00    +0.012 C 
ATOM     28  C   UNL     1      33.019  -5.522 -24.058  0.00  0.00    +0.019 C 
ATOM     29  C   UNL     1      31.791  -5.210 -23.516  0.00  0.00    +0.087 C 
ENDBRANCH  22  26
ENDBRANCH  19  21
ENDBRANCH  18  19
ENDBRANCH   2  18
TORSDOF 6
ENDMDL
MODEL 5
REMARK VINA RESULT:     -10.2      4.499     10.091
REMARK  Name = 10250490
REMARK  6 active torsions:
REMARK  status: ('A' for Active; 'I' for Inactive)
REMARK    1  A    between atoms: N_2  and  C_18
REMARK    2  A    between atoms: C_3  and  C_6
REMARK    3  A    between atoms: C_5  and  N_12
REMARK    4  A    between atoms: C_18  and  C_19
REMARK    5  A    between atoms: C_19  and  N_21
REMARK    6  A    between atoms: C_22  and  C_26
REMARK                            x       y       z     vdW  Elec       q    Type
REMARK                         _______ _______ _______ _____ _____    ______ ____
ROOT
ATOM      1  O   UNL     1      33.070 -22.733 -19.069  0.00  0.00    -0.270 OA
ATOM      2  N   UNL     1      34.827 -21.256 -19.393  0.00  0.00    -0.299 N 
ATOM      3  C   UNL     1      34.167 -22.278 -18.702  0.00  0.00    +0.246 C 
ATOM      4  H   UNL     1      35.694 -20.943 -19.046  0.00  0.00    +0.150 HD
ENDROOT
BRANCH   3   6
ATOM      5  C   UNL     1      36.043 -23.760 -15.194  0.00  0.00    +0.058 C 
ATOM      6  C   UNL     1      34.810 -22.785 -17.500  0.00  0.00    +0.053 C 
ATOM      7  C   UNL     1      36.752 -22.938 -16.071  0.00  0.00    +0.015 C 
ATOM      8  C   UNL     1      34.717 -24.094 -15.471  0.00  0.00    +0.015 C 
ATOM      9  C   UNL     1      36.135 -22.450 -17.223  0.00  0.00    +0.006 C 
ATOM     10  C   UNL     1      34.101 -23.607 -16.624  0.00  0.00    +0.006 C 
BRANCH   5  12
ATOM     11  O   UNL     1      37.352 -26.328 -14.960  0.00  0.00    -0.269 OA
ATOM     12  N   UNL     1      36.685 -24.267 -13.997  0.00  0.00    -0.233 N 
ATOM     13  C   UNL     1      37.330 -25.531 -14.022  0.00  0.00    +0.257 C 
ATOM     14  C   UNL     1      36.655 -23.531 -12.812  0.00  0.00    +0.072 C 
ATOM     15  C   UNL     1      38.009 -25.957 -12.759  0.00  0.00    +0.059 C 
ATOM     16  C   UNL     1      37.241 -23.949 -11.684  0.00  0.00    +0.017 C 
ATOM     17  C   UNL     1      37.943 -25.197 -11.663  0.00  0.00    +0.006 C 
ENDBRANCH   5  12
ENDBRANCH   3   6
BRANCH   2  18
ATOM     18  C   UNL     1      34.306 -20.634 -20.589  0.00  0.00    +0.111 C 
BRANCH  18  19
ATOM     19  C   UNL     1      35.350 -19.789 -21.298  0.00  0.00    +0.111 C 
BRANCH  19  21
ATOM     20  O   UNL     1      35.319 -18.002 -23.544  0.00  0.00    -0.270 OA
ATOM     21  N   UNL     1      35.017 -18.390 -21.278  0.00  0.00    -0.299 N 
ATOM     22  C   UNL     1      35.029 -17.600 -22.421  0.00  0.00    +0.252 C 
ATOM     23  H   UNL     1      34.770 -17.977 -20.419  0.00  0.00    +0.150 HD
BRANCH  22  26
ATOM     24 CL   UNL     1      33.793 -12.348 -23.357  0.00  0.00    -0.075 Cl
ATOM     25  S   UNL     1      34.483 -15.225 -23.609  0.00  0.00    -0.071 S 
ATOM     26  C   UNL     1      34.685 -16.168 -22.228  0.00  0.00    +0.084 C 
ATOM     27  C   UNL     1      34.515 -15.531 -21.059  0.00  0.00    +0.012 C 
ATOM     28  C   UNL     1      34.193 -14.162 -21.289  0.00  0.00    +0.019 C 
ATOM     29  C   UNL     1      34.143 -13.861 -22.632  0.00  0.00    +0.087 C 
ENDBRANCH  22  26
ENDBRANCH  19  21
ENDBRANCH  18  19
ENDBRANCH   2  18
TORSDOF 6
ENDMDL
MODEL 6
REMARK VINA RESULT:     -10.2      4.588     10.065
REMARK  Name = 10250490
REMARK  6 active torsions:
REMARK  status: ('A' for Active; 'I' for Inactive)
REMARK    1  A    between atoms: N_2  and  C_18
REMARK    2  A    between atoms: C_3  and  C_6
REMARK    3  A    between atoms: C_5  and  N_12
REMARK    4  A    between atoms: C_18  and  C_19
REMARK    5  A    between atoms: C_19  and  N_21
REMARK    6  A    between atoms: C_22  and  C_26
REMARK                            x       y       z     vdW  Elec       q    Type
REMARK                         _______ _______ _______ _____ _____    ______ ____
ROOT
ATOM      1  O   UNL     1      33.982 -22.247 -19.449  0.00  0.00    -0.270 OA
ATOM      2  N   UNL     1      35.854 -20.891 -19.615  0.00  0.00    -0.299 N 
ATOM      3  C   UNL     1      35.068 -21.861 -18.984  0.00  0.00    +0.246 C 
ATOM      4  H   UNL     1      36.705 -20.632 -19.192  0.00  0.00    +0.150 HD
ENDROOT
BRANCH   3   6
ATOM      5  C   UNL     1      36.518 -23.422 -15.313  0.00  0.00    +0.058 C 
ATOM      6  C   UNL     1      35.564 -22.397 -17.727  0.00  0.00    +0.053 C 
ATOM      7  C   UNL     1      35.184 -23.612 -15.674  0.00  0.00    +0.015 C 
ATOM      8  C   UNL     1      37.376 -22.720 -16.160  0.00  0.00    +0.015 C 
ATOM      9  C   UNL     1      34.708 -23.100 -16.881  0.00  0.00    +0.006 C 
ATOM     10  C   UNL     1      36.899 -22.207 -17.367  0.00  0.00    +0.006 C 
BRANCH   5  12
ATOM     11  O   UNL     1      37.376 -26.149 -14.875  0.00  0.00    -0.269 OA
ATOM     12  N   UNL     1      37.013 -23.954 -14.058  0.00  0.00    -0.233 N 
ATOM     13  C   UNL     1      37.442 -25.305 -13.983  0.00  0.00    +0.257 C 
ATOM     14  C   UNL     1      37.050 -23.153 -12.915  0.00  0.00    +0.072 C 
ATOM     15  C   UNL     1      37.982 -25.758 -12.664  0.00  0.00    +0.059 C 
ATOM     16  C   UNL     1      37.506 -23.592 -11.737  0.00  0.00    +0.017 C 
ATOM     17  C   UNL     1      37.993 -24.934 -11.613  0.00  0.00    +0.006 C 
ENDBRANCH   5  12
ENDBRANCH   3   6
BRANCH   2  18
ATOM     18  C   UNL     1      35.487 -20.248 -20.857  0.00  0.00    +0.111 C 
BRANCH  18  19
ATOM     19  C   UNL     1      36.481 -19.174 -21.264  0.00  0.00    +0.111 C 
BRANCH  19  21
ATOM     20  O   UNL     1      34.963 -16.900 -20.389  0.00  0.00    -0.270 OA
ATOM     21  N   UNL     1      35.879 -18.171 -22.100  0.00  0.00    -0.299 N 
ATOM     22  C   UNL     1      35.158 -17.100 -21.585  0.00  0.00    +0.252 C 
ATOM     23  H   UNL     1      35.981 -18.246 -23.076  0.00  0.00    +0.150 HD
BRANCH  22  26
ATOM     24 CL   UNL     1      33.531 -14.824 -26.292  0.00  0.00    -0.075 Cl
ATOM     25  S   UNL     1      34.658 -16.609 -24.204  0.00  0.00    -0.071 S 
ATOM     26  C   UNL     1      34.577 -16.164 -22.582  0.00  0.00    +0.084 C 
ATOM     27  C   UNL     1      33.986 -14.986 -22.330  0.00  0.00    +0.012 C 
ATOM     28  C   UNL     1      33.558 -14.382 -23.548  0.00  0.00    +0.019 C 
ATOM     29  C   UNL     1      33.861 -15.159 -24.645  0.00  0.00    +0.087 C 
ENDBRANCH  22  26
ENDBRANCH  19  21
ENDBRANCH  18  19
ENDBRANCH   2  18
TORSDOF 6
ENDMDL
MODEL 7
REMARK VINA RESULT:     -10.1      6.754     11.946
REMARK  Name = 10250490
REMARK  6 active torsions:
REMARK  status: ('A' for Active; 'I' for Inactive)
REMARK    1  A    between atoms: N_2  and  C_18
REMARK    2  A    between atoms: C_3  and  C_6
REMARK    3  A    between atoms: C_5  and  N_12
REMARK    4  A    between atoms: C_18  and  C_19
REMARK    5  A    between atoms: C_19  and  N_21
REMARK    6  A    between atoms: C_22  and  C_26
REMARK                            x       y       z     vdW  Elec       q    Type
REMARK                         _______ _______ _______ _____ _____    ______ ____
ROOT
ATOM      1  O   UNL     1      34.622 -16.250 -25.814  0.00  0.00    -0.270 OA
ATOM      2  N   UNL     1      33.806 -14.834 -24.170  0.00  0.00    -0.299 N 
ATOM      3  C   UNL     1      34.363 -16.037 -24.617  0.00  0.00    +0.246 C 
ATOM      4  H   UNL     1      33.627 -14.732 -23.207  0.00  0.00    +0.150 HD
ENDROOT
BRANCH   3   6
ATOM      5  C   UNL     1      35.096 -19.026 -21.693  0.00  0.00    +0.058 C 
ATOM      6  C   UNL     1      34.614 -17.061 -23.614  0.00  0.00    +0.053 C 
ATOM      7  C   UNL     1      35.068 -17.681 -21.325  0.00  0.00    +0.015 C 
ATOM      8  C   UNL     1      34.882 -19.388 -23.024  0.00  0.00    +0.015 C 
ATOM      9  C   UNL     1      34.827 -16.699 -22.285  0.00  0.00    +0.006 C 
ATOM     10  C   UNL     1      34.642 -18.406 -23.984  0.00  0.00    +0.006 C 
BRANCH   5  12
ATOM     11  O   UNL     1      37.682 -19.651 -20.558  0.00  0.00    -0.269 OA
ATOM     12  N   UNL     1      35.349 -20.046 -20.695  0.00  0.00    -0.233 N 
ATOM     13  C   UNL     1      36.661 -20.229 -20.186  0.00  0.00    +0.257 C 
ATOM     14  C   UNL     1      34.313 -20.868 -20.244  0.00  0.00    +0.072 C 
ATOM     15  C   UNL     1      36.824 -21.270 -19.125  0.00  0.00    +0.059 C 
ATOM     16  C   UNL     1      34.491 -21.816 -19.317  0.00  0.00    +0.017 C 
ATOM     17  C   UNL     1      35.785 -22.016 -18.738  0.00  0.00    +0.006 C 
ENDBRANCH   5  12
ENDBRANCH   3   6
BRANCH   2  18
ATOM     18  C   UNL     1      33.478 -13.732 -25.046  0.00  0.00    +0.111 C 
BRANCH  18  19
ATOM     19  C   UNL     1      34.305 -12.493 -24.744  0.00  0.00    +0.111 C 
BRANCH  19  21
ATOM     20  O   UNL     1      35.150  -9.841 -24.043  0.00  0.00    -0.270 OA
ATOM     21  N   UNL     1      33.589 -11.552 -23.927  0.00  0.00    -0.299 N 
ATOM     22  C   UNL     1      34.078 -10.284 -23.639  0.00  0.00    +0.252 C 
ATOM     23  H   UNL     1      32.716 -11.818 -23.556  0.00  0.00    +0.150 HD
BRANCH  22  26
ATOM     24 CL   UNL     1      32.112  -6.065 -20.755  0.00  0.00    -0.075 Cl
ATOM     25  S   UNL     1      33.723  -7.852 -22.495  0.00  0.00    -0.071 S 
ATOM     26  C   UNL     1      33.230  -9.440 -22.758  0.00  0.00    +0.084 C 
ATOM     27  C   UNL     1      32.097  -9.809 -22.140  0.00  0.00    +0.012 C 
ATOM     28  C   UNL     1      31.575  -8.718 -21.384  0.00  0.00    +0.019 C 
ATOM     29  C   UNL     1      32.362  -7.593 -21.489  0.00  0.00    +0.087 C 
ENDBRANCH  22  26
ENDBRANCH  19  21
ENDBRANCH  18  19
ENDBRANCH   2  18
TORSDOF 6
ENDMDL
MODEL 8
REMARK VINA RESULT:      -9.9      6.533     10.112
REMARK  Name = 10250490
REMARK  6 active torsions:
REMARK  status: ('A' for Active; 'I' for Inactive)
REMARK    1  A    between atoms: N_2  and  C_18
REMARK    2  A    between atoms: C_3  and  C_6
REMARK    3  A    between atoms: C_5  and  N_12
REMARK    4  A    between atoms: C_18  and  C_19
REMARK    5  A    between atoms: C_19  and  N_21
REMARK    6  A    between atoms: C_22  and  C_26
REMARK                            x       y       z     vdW  Elec       q    Type
REMARK                         _______ _______ _______ _____ _____    ______ ____
ROOT
ATOM      1  O   UNL     1      32.719 -15.045 -21.502  0.00  0.00    -0.270 OA
ATOM      2  N   UNL     1      33.916 -14.625 -23.442  0.00  0.00    -0.299 N 
ATOM      3  C   UNL     1      33.137 -14.235 -22.348  0.00  0.00    +0.246 C 
ATOM      4  H   UNL     1      34.214 -13.931 -24.074  0.00  0.00    +0.150 HD
ENDROOT
BRANCH   3   6
ATOM      5  C   UNL     1      32.168 -10.113 -22.042  0.00  0.00    +0.058 C 
ATOM      6  C   UNL     1      32.805 -12.822 -22.244  0.00  0.00    +0.053 C 
ATOM      7  C   UNL     1      33.075 -10.547 -23.009  0.00  0.00    +0.015 C 
ATOM      8  C   UNL     1      31.578 -11.035 -21.176  0.00  0.00    +0.015 C 
ATOM      9  C   UNL     1      33.393 -11.902 -23.110  0.00  0.00    +0.006 C 
ATOM     10  C   UNL     1      31.897 -12.390 -21.277  0.00  0.00    +0.006 C 
BRANCH   5  12
ATOM     11  O   UNL     1      32.773  -8.420 -19.777  0.00  0.00    -0.269 OA
ATOM     12  N   UNL     1      31.838  -8.705 -21.937  0.00  0.00    -0.233 N 
ATOM     13  C   UNL     1      32.227  -7.972 -20.786  0.00  0.00    +0.257 C 
ATOM     14  C   UNL     1      31.121  -8.068 -22.951  0.00  0.00    +0.072 C 
ATOM     15  C   UNL     1      31.890  -6.515 -20.779  0.00  0.00    +0.059 C 
ATOM     16  C   UNL     1      30.801  -6.770 -22.907  0.00  0.00    +0.017 C 
ATOM     17  C   UNL     1      31.206  -5.971 -21.789  0.00  0.00    +0.006 C 
ENDBRANCH   5  12
ENDBRANCH   3   6
BRANCH   2  18
ATOM     18  C   UNL     1      34.310 -15.992 -23.696  0.00  0.00    +0.111 C 
BRANCH  18  19
ATOM     19  C   UNL     1      35.326 -16.495 -22.685  0.00  0.00    +0.111 C 
BRANCH  19  21
ATOM     20  O   UNL     1      36.570 -19.042 -22.232  0.00  0.00    -0.270 OA
ATOM     21  N   UNL     1      34.806 -17.575 -21.890  0.00  0.00    -0.299 N 
ATOM     22  C   UNL     1      35.482 -18.778 -21.727  0.00  0.00    +0.252 C 
ATOM     23  H   UNL     1      33.937 -17.456 -21.443  0.00  0.00    +0.150 HD
BRANCH  22  26
ATOM     24 CL   UNL     1      34.525 -22.957 -18.320  0.00  0.00    -0.075 Cl
ATOM     25  S   UNL     1      35.770 -20.864 -20.019  0.00  0.00    -0.071 S 
ATOM     26  C   UNL     1      34.799 -19.803 -20.896  0.00  0.00    +0.084 C 
ATOM     27  C   UNL     1      33.476 -19.981 -20.764  0.00  0.00    +0.012 C 
ATOM     28  C   UNL     1      33.213 -21.068 -19.880  0.00  0.00    +0.019 C 
ATOM     29  C   UNL     1      34.372 -21.637 -19.402  0.00  0.00    +0.087 C 
ENDBRANCH  22  26
ENDBRANCH  19  21
ENDBRANCH  18  19
ENDBRANCH   2  18
TORSDOF 6
ENDMDL
MODEL 9
REMARK VINA RESULT:      -9.8      1.752      2.306
REMARK  Name = 10250490
REMARK  6 active torsions:
REMARK  status: ('A' for Active; 'I' for Inactive)
REMARK    1  A    between atoms: N_2  and  C_18
REMARK    2  A    between atoms: C_3  and  C_6
REMARK    3  A    between atoms: C_5  and  N_12
REMARK    4  A    between atoms: C_18  and  C_19
REMARK    5  A    between atoms: C_19  and  N_21
REMARK    6  A    between atoms: C_22  and  C_26
REMARK                            x       y       z     vdW  Elec       q    Type
REMARK                         _______ _______ _______ _____ _____    ______ ____
ROOT
ATOM      1  O   UNL     1      35.660 -22.950 -19.282  0.00  0.00    -0.270 OA
ATOM      2  N   UNL     1      36.910 -21.533 -17.938  0.00  0.00    -0.299 N 
ATOM      3  C   UNL     1      36.103 -21.812 -19.047  0.00  0.00    +0.246 C 
ATOM      4  H   UNL     1      37.226 -20.609 -17.812  0.00  0.00    +0.150 HD
ENDROOT
BRANCH   3   6
ATOM      5  C   UNL     1      35.256 -18.587 -21.674  0.00  0.00    +0.058 C 
ATOM      6  C   UNL     1      35.812 -20.707 -19.946  0.00  0.00    +0.053 C 
ATOM      7  C   UNL     1      34.220 -19.391 -21.199  0.00  0.00    +0.015 C 
ATOM      8  C   UNL     1      36.571 -18.844 -21.284  0.00  0.00    +0.015 C 
ATOM      9  C   UNL     1      34.498 -20.451 -20.335  0.00  0.00    +0.006 C 
ATOM     10  C   UNL     1      36.849 -19.903 -20.421  0.00  0.00    +0.006 C 
BRANCH   5  12
ATOM     11  O   UNL     1      34.675 -15.873 -20.861  0.00  0.00    -0.269 OA
ATOM     12  N   UNL     1      34.967 -17.487 -22.573  0.00  0.00    -0.233 N 
ATOM     13  C   UNL     1      34.737 -16.188 -22.050  0.00  0.00    +0.257 C 
ATOM     14  C   UNL     1      34.891 -17.700 -23.951  0.00  0.00    +0.072 C 
ATOM     15  C   UNL     1      34.493 -15.102 -23.048  0.00  0.00    +0.059 C 
ATOM     16  C   UNL     1      34.638 -16.717 -24.823  0.00  0.00    +0.017 C 
ATOM     17  C   UNL     1      34.440 -15.378 -24.354  0.00  0.00    +0.006 C 
ENDBRANCH   5  12
ENDBRANCH   3   6
BRANCH   2  18
ATOM     18  C   UNL     1      37.306 -22.528 -16.967  0.00  0.00    +0.111 C 
BRANCH  18  19
ATOM     19  C   UNL     1      36.661 -22.295 -15.611  0.00  0.00    +0.111 C 
BRANCH  19  21
ATOM     20  O   UNL     1      35.392 -24.328 -14.030  0.00  0.00    -0.270 OA
ATOM     21  N   UNL     1      35.264 -22.637 -15.613  0.00  0.00    -0.299 N 
ATOM     22  C   UNL     1      34.737 -23.641 -14.810  0.00  0.00    +0.252 C 
ATOM     23  H   UNL     1      34.657 -22.140 -16.209  0.00  0.00    +0.150 HD
BRANCH  22  26
ATOM     24 CL   UNL     1      29.611 -25.331 -13.886  0.00  0.00    -0.075 Cl
ATOM     25  S   UNL     1      32.522 -24.768 -13.726  0.00  0.00    -0.071 S 
ATOM     26  C   UNL     1      33.278 -23.890 -14.948  0.00  0.00    +0.084 C 
ATOM     27  C   UNL     1      32.485 -23.487 -15.953  0.00  0.00    +0.012 C 
ATOM     28  C   UNL     1      31.147 -23.922 -15.725  0.00  0.00    +0.019 C 
ATOM     29  C   UNL     1      31.026 -24.630 -14.549  0.00  0.00    +0.087 C 
ENDBRANCH  22  26
ENDBRANCH  19  21
ENDBRANCH  18  19
ENDBRANCH   2  18
TORSDOF 6
ENDMDL
