MODEL 1
REMARK VINA RESULT:     -11.5      0.000      0.000
REMARK  Name = 23586145
REMARK  7 active torsions:
REMARK  status: ('A' for Active; 'I' for Inactive)
REMARK    1  A    between atoms: C_5  and  O_24
REMARK    2  A    between atoms: C_7  and  N_10
REMARK    3  A    between atoms: N_10  and  C_12
REMARK    4  A    between atoms: C_15  and  S_18
REMARK    5  A    between atoms: S_18  and  N_21
REMARK    6  A    between atoms: O_24  and  C_25
REMARK    7  A    between atoms: C_25  and  C_26
REMARK                            x       y       z     vdW  Elec       q    Type
REMARK                         _______ _______ _______ _____ _____    ______ ____
ROOT
ATOM      1  N   UNL     1      32.775 -23.590 -14.132  0.00  0.00    -0.299 NA
ATOM      2  N   UNL     1      31.772 -23.204 -16.284  0.00  0.00    -0.106 N 
ATOM      3  N   UNL     1      30.528 -23.022 -16.800  0.00  0.00    -0.139 NA
ATOM      4  N   UNL     1      30.398 -23.320 -14.546  0.00  0.00    -0.145 NA
ATOM      5  C   UNL     1      33.901 -23.603 -14.770  0.00  0.00    +0.291 C 
ATOM      6  C   UNL     1      34.121 -23.423 -16.221  0.00  0.00    +0.105 C 
ATOM      7  C   UNL     1      33.007 -23.224 -16.949  0.00  0.00    +0.142 C 
ATOM      8  C   UNL     1      31.666 -23.385 -14.900  0.00  0.00    +0.178 C 
ATOM      9  C   UNL     1      29.756 -23.101 -15.722  0.00  0.00    +0.230 C 
ENDROOT
BRANCH   7  10
ATOM     10  N   UNL     1      33.000 -23.037 -18.301  0.00  0.00    -0.299 N 
ATOM     11  H   UNL     1      32.410 -23.635 -18.814  0.00  0.00    +0.153 HD
BRANCH  10  12
ATOM     12  C   UNL     1      33.726 -22.105 -19.053  0.00  0.00    +0.049 C 
ATOM     13  C   UNL     1      35.126 -22.149 -19.076  0.00  0.00    +0.016 C 
ATOM     14  C   UNL     1      33.060 -21.118 -19.790  0.00  0.00    +0.016 C 
ATOM     15  C   UNL     1      35.177 -20.240 -20.557  0.00  0.00    +0.122 C 
ATOM     16  C   UNL     1      35.848 -21.220 -19.825  0.00  0.00    +0.021 C 
ATOM     17  C   UNL     1      33.782 -20.189 -20.540  0.00  0.00    +0.021 C 
BRANCH  15  18
ATOM     18  S   UNL     1      36.081 -19.078 -21.495  0.00  0.00    +0.057 S 
ATOM     19  O   UNL     1      37.481 -19.160 -21.102  0.00  0.00    -0.153 OA
ATOM     20  O   UNL     1      35.713 -19.227 -22.896  0.00  0.00    -0.153 OA
BRANCH  18  21
ATOM     21  N   UNL     1      35.429 -17.611 -20.910  0.00  0.00    -0.203 NA
ATOM     22  H   UNL     1      35.597 -16.870 -21.590  0.00  0.00    +0.144 HD
ATOM     23  H   UNL     1      35.876 -17.369 -20.026  0.00  0.00    +0.144 HD
ENDBRANCH  18  21
ENDBRANCH  15  18
ENDBRANCH  10  12
ENDBRANCH   7  10
BRANCH   5  24
ATOM     24  O   UNL     1      35.038 -23.796 -14.108  0.00  0.00    -0.451 OA
BRANCH  24  25
ATOM     25  C   UNL     1      34.966 -24.728 -13.045  0.00  0.00    +0.208 C 
BRANCH  25  26
ATOM     26  C   UNL     1      36.256 -25.547 -13.032  0.00  0.00    +0.044 C 
ATOM     27  C   UNL     1      36.462 -26.252 -14.380  0.00  0.00    +0.004 C 
ATOM     28  C   UNL     1      37.459 -24.659 -12.691  0.00  0.00    +0.004 C 
ATOM     29  C   UNL     1      37.772 -27.037 -14.410  0.00  0.00    +0.000 C 
ATOM     30  C   UNL     1      38.769 -25.446 -12.725  0.00  0.00    +0.000 C 
ATOM     31  C   UNL     1      38.965 -26.152 -14.062  0.00  0.00    +0.000 C 
ENDBRANCH  25  26
ENDBRANCH  24  25
ENDBRANCH   5  24
TORSDOF 7
ENDMDL
MODEL 2
REMARK VINA RESULT:     -11.4      3.503      7.303
REMARK  Name = 23586145
REMARK  7 active torsions:
REMARK  status: ('A' for Active; 'I' for Inactive)
REMARK    1  A    between atoms: C_5  and  O_24
REMARK    2  A    between atoms: C_7  and  N_10
REMARK    3  A    between atoms: N_10  and  C_12
REMARK    4  A    between atoms: C_15  and  S_18
REMARK    5  A    between atoms: S_18  and  N_21
REMARK    6  A    between atoms: O_24  and  C_25
REMARK    7  A    between atoms: C_25  and  C_26
REMARK                            x       y       z     vdW  Elec       q    Type
REMARK                         _______ _______ _______ _____ _____    ______ ____
ROOT
ATOM      1  N   UNL     1      31.462 -23.781 -15.915  0.00  0.00    -0.299 NA
ATOM      2  N   UNL     1      32.243 -24.840 -13.902  0.00  0.00    -0.106 N 
ATOM      3  N   UNL     1      31.716 -25.507 -12.843  0.00  0.00    -0.139 NA
ATOM      4  N   UNL     1      30.056 -24.886 -14.273  0.00  0.00    -0.145 NA
ATOM      5  C   UNL     1      32.707 -23.507 -16.137  0.00  0.00    +0.291 C 
ATOM      6  C   UNL     1      33.873 -23.851 -15.294  0.00  0.00    +0.105 C 
ATOM      7  C   UNL     1      33.585 -24.528 -14.168  0.00  0.00    +0.142 C 
ATOM      8  C   UNL     1      31.205 -24.468 -14.765  0.00  0.00    +0.178 C 
ATOM      9  C   UNL     1      30.416 -25.503 -13.119  0.00  0.00    +0.230 C 
ENDROOT
BRANCH   7  10
ATOM     10  N   UNL     1      34.520 -24.937 -13.261  0.00  0.00    -0.299 N 
ATOM     11  H   UNL     1      34.192 -25.089 -12.346  0.00  0.00    +0.153 HD
BRANCH  10  12
ATOM     12  C   UNL     1      35.886 -25.167 -13.465  0.00  0.00    +0.049 C 
ATOM     13  C   UNL     1      36.842 -24.432 -12.753  0.00  0.00    +0.016 C 
ATOM     14  C   UNL     1      36.312 -26.134 -14.384  0.00  0.00    +0.016 C 
ATOM     15  C   UNL     1      38.618 -25.627 -13.874  0.00  0.00    +0.122 C 
ATOM     16  C   UNL     1      38.203 -24.662 -12.957  0.00  0.00    +0.021 C 
ATOM     17  C   UNL     1      37.672 -26.364 -14.588  0.00  0.00    +0.021 C 
BRANCH  15  18
ATOM     18  S   UNL     1      40.322 -25.914 -14.129  0.00  0.00    +0.057 S 
ATOM     19  O   UNL     1      41.041 -24.677 -13.860  0.00  0.00    -0.153 OA
ATOM     20  O   UNL     1      40.695 -27.134 -13.429  0.00  0.00    -0.153 OA
BRANCH  18  21
ATOM     21  N   UNL     1      40.352 -26.215 -15.811  0.00  0.00    -0.203 NA
ATOM     22  H   UNL     1      40.504 -27.211 -15.974  0.00  0.00    +0.144 HD
ATOM     23  H   UNL     1      41.107 -25.681 -16.238  0.00  0.00    +0.144 HD
ENDBRANCH  18  21
ENDBRANCH  15  18
ENDBRANCH  10  12
ENDBRANCH   7  10
BRANCH   5  24
ATOM     24  O   UNL     1      33.057 -22.839 -17.232  0.00  0.00    -0.451 OA
BRANCH  24  25
ATOM     25  C   UNL     1      34.331 -23.163 -17.755  0.00  0.00    +0.208 C 
BRANCH  25  26
ATOM     26  C   UNL     1      34.518 -22.412 -19.073  0.00  0.00    +0.044 C 
ATOM     27  C   UNL     1      33.349 -21.448 -19.317  0.00  0.00    +0.004 C 
ATOM     28  C   UNL     1      35.856 -21.662 -19.084  0.00  0.00    +0.004 C 
ATOM     29  C   UNL     1      33.539 -20.647 -20.604  0.00  0.00    +0.000 C 
ATOM     30  C   UNL     1      36.043 -20.860 -20.371  0.00  0.00    +0.000 C 
ATOM     31  C   UNL     1      34.875 -19.910 -20.615  0.00  0.00    +0.000 C 
ENDBRANCH  25  26
ENDBRANCH  24  25
ENDBRANCH   5  24
TORSDOF 7
ENDMDL
MODEL 3
REMARK VINA RESULT:     -11.4      4.141      7.258
REMARK  Name = 23586145
REMARK  7 active torsions:
REMARK  status: ('A' for Active; 'I' for Inactive)
REMARK    1  A    between atoms: C_5  and  O_24
REMARK    2  A    between atoms: C_7  and  N_10
REMARK    3  A    between atoms: N_10  and  C_12
REMARK    4  A    between atoms: C_15  and  S_18
REMARK    5  A    between atoms: S_18  and  N_21
REMARK    6  A    between atoms: O_24  and  C_25
REMARK    7  A    between atoms: C_25  and  C_26
REMARK                            x       y       z     vdW  Elec       q    Type
REMARK                         _______ _______ _______ _____ _____    ______ ____
ROOT
ATOM      1  N   UNL     1      37.249 -24.053 -13.215  0.00  0.00    -0.299 NA
ATOM      2  N   UNL     1      35.303 -24.771 -11.998  0.00  0.00    -0.106 N 
ATOM      3  N   UNL     1      34.948 -25.002 -10.707  0.00  0.00    -0.139 NA
ATOM      4  N   UNL     1      37.118 -24.319 -10.806  0.00  0.00    -0.145 NA
ATOM      5  C   UNL     1      36.514 -24.182 -14.272  0.00  0.00    +0.291 C 
ATOM      6  C   UNL     1      35.101 -24.614 -14.345  0.00  0.00    +0.105 C 
ATOM      7  C   UNL     1      34.530 -24.903 -13.162  0.00  0.00    +0.142 C 
ATOM      8  C   UNL     1      36.639 -24.353 -12.033  0.00  0.00    +0.178 C 
ATOM      9  C   UNL     1      36.065 -24.717 -10.047  0.00  0.00    +0.230 C 
ENDROOT
BRANCH   7  10
ATOM     10  N   UNL     1      33.237 -25.317 -13.018  0.00  0.00    -0.299 N 
ATOM     11  H   UNL     1      33.086 -26.030 -12.355  0.00  0.00    +0.153 HD
BRANCH  10  12
ATOM     12  C   UNL     1      32.099 -24.861 -13.692  0.00  0.00    +0.049 C 
ATOM     13  C   UNL     1      32.063 -23.569 -14.230  0.00  0.00    +0.016 C 
ATOM     14  C   UNL     1      30.981 -25.693 -13.836  0.00  0.00    +0.016 C 
ATOM     15  C   UNL     1      29.819 -23.950 -15.041  0.00  0.00    +0.122 C 
ATOM     16  C   UNL     1      30.928 -23.115 -14.902  0.00  0.00    +0.021 C 
ATOM     17  C   UNL     1      29.845 -25.239 -14.508  0.00  0.00    +0.021 C 
BRANCH  15  18
ATOM     18  S   UNL     1      28.398 -23.382 -15.882  0.00  0.00    +0.057 S 
ATOM     19  O   UNL     1      27.343 -23.161 -14.903  0.00  0.00    -0.153 OA
ATOM     20  O   UNL     1      28.792 -22.303 -16.777  0.00  0.00    -0.153 OA
BRANCH  18  21
ATOM     21  N   UNL     1      28.004 -24.756 -16.818  0.00  0.00    -0.203 NA
ATOM     22  H   UNL     1      27.510 -25.432 -16.236  0.00  0.00    +0.144 HD
ATOM     23  H   UNL     1      28.859 -25.178 -17.179  0.00  0.00    +0.144 HD
ENDBRANCH  18  21
ENDBRANCH  15  18
ENDBRANCH  10  12
ENDBRANCH   7  10
BRANCH   5  24
ATOM     24  O   UNL     1      37.021 -23.913 -15.472  0.00  0.00    -0.451 OA
BRANCH  24  25
ATOM     25  C   UNL     1      36.766 -22.607 -15.955  0.00  0.00    +0.208 C 
BRANCH  25  26
ATOM     26  C   UNL     1      36.127 -22.719 -17.338  0.00  0.00    +0.044 C 
ATOM     27  C   UNL     1      34.596 -22.747 -17.227  0.00  0.00    +0.004 C 
ATOM     28  C   UNL     1      36.588 -21.570 -18.243  0.00  0.00    +0.004 C 
ATOM     29  C   UNL     1      33.932 -22.806 -18.601  0.00  0.00    +0.000 C 
ATOM     30  C   UNL     1      35.921 -21.630 -19.616  0.00  0.00    +0.000 C 
ATOM     31  C   UNL     1      34.401 -21.667 -19.501  0.00  0.00    +0.000 C 
ENDBRANCH  25  26
ENDBRANCH  24  25
ENDBRANCH   5  24
TORSDOF 7
ENDMDL
MODEL 4
REMARK VINA RESULT:     -10.8      5.554     11.112
REMARK  Name = 23586145
REMARK  7 active torsions:
REMARK  status: ('A' for Active; 'I' for Inactive)
REMARK    1  A    between atoms: C_5  and  O_24
REMARK    2  A    between atoms: C_7  and  N_10
REMARK    3  A    between atoms: N_10  and  C_12
REMARK    4  A    between atoms: C_15  and  S_18
REMARK    5  A    between atoms: S_18  and  N_21
REMARK    6  A    between atoms: O_24  and  C_25
REMARK    7  A    between atoms: C_25  and  C_26
REMARK                            x       y       z     vdW  Elec       q    Type
REMARK                         _______ _______ _______ _____ _____    ______ ____
ROOT
ATOM      1  N   UNL     1      33.597 -14.703 -22.786  0.00  0.00    -0.299 NA
ATOM      2  N   UNL     1      34.722 -16.776 -23.260  0.00  0.00    -0.106 N 
ATOM      3  N   UNL     1      35.023 -17.536 -24.345  0.00  0.00    -0.139 NA
ATOM      4  N   UNL     1      33.883 -15.675 -24.993  0.00  0.00    -0.145 NA
ATOM      5  C   UNL     1      33.884 -14.945 -21.548  0.00  0.00    +0.291 C 
ATOM      6  C   UNL     1      34.615 -16.108 -20.999  0.00  0.00    +0.105 C 
ATOM      7  C   UNL     1      35.019 -17.012 -21.909  0.00  0.00    +0.142 C 
ATOM      8  C   UNL     1      34.022 -15.640 -23.683  0.00  0.00    +0.178 C 
ATOM      9  C   UNL     1      34.501 -16.832 -25.343  0.00  0.00    +0.230 C 
ENDROOT
BRANCH   7  10
ATOM     10  N   UNL     1      35.707 -18.150 -21.603  0.00  0.00    -0.299 N 
ATOM     11  H   UNL     1      36.643 -18.180 -21.905  0.00  0.00    +0.153 HD
BRANCH  10  12
ATOM     12  C   UNL     1      35.252 -19.282 -20.916  0.00  0.00    +0.049 C 
ATOM     13  C   UNL     1      33.881 -19.551 -20.823  0.00  0.00    +0.016 C 
ATOM     14  C   UNL     1      36.163 -20.158 -20.312  0.00  0.00    +0.016 C 
ATOM     15  C   UNL     1      34.343 -21.546 -19.540  0.00  0.00    +0.122 C 
ATOM     16  C   UNL     1      33.428 -20.679 -20.138  0.00  0.00    +0.021 C 
ATOM     17  C   UNL     1      35.711 -21.286 -19.627  0.00  0.00    +0.021 C 
BRANCH  15  18
ATOM     18  S   UNL     1      33.776 -22.958 -18.683  0.00  0.00    +0.057 S 
ATOM     19  O   UNL     1      32.493 -22.640 -18.072  0.00  0.00    -0.153 OA
ATOM     20  O   UNL     1      33.890 -24.111 -19.565  0.00  0.00    -0.153 OA
BRANCH  18  21
ATOM     21  N   UNL     1      34.956 -23.087 -17.454  0.00  0.00    -0.203 NA
ATOM     22  H   UNL     1      34.678 -22.517 -16.656  0.00  0.00    +0.144 HD
ATOM     23  H   UNL     1      35.854 -22.761 -17.810  0.00  0.00    +0.144 HD
ENDBRANCH  18  21
ENDBRANCH  15  18
ENDBRANCH  10  12
ENDBRANCH   7  10
BRANCH   5  24
ATOM     24  O   UNL     1      33.512 -14.090 -20.600  0.00  0.00    -0.451 OA
BRANCH  24  25
ATOM     25  C   UNL     1      32.152 -14.170 -20.216  0.00  0.00    +0.208 C 
BRANCH  25  26
ATOM     26  C   UNL     1      31.539 -12.774 -20.313  0.00  0.00    +0.044 C 
ATOM     27  C   UNL     1      31.782 -11.985 -19.019  0.00  0.00    +0.004 C 
ATOM     28  C   UNL     1      32.097 -12.019 -21.526  0.00  0.00    +0.004 C 
ATOM     29  C   UNL     1      31.222 -10.567 -19.110  0.00  0.00    +0.000 C 
ATOM     30  C   UNL     1      31.537 -10.600 -21.613  0.00  0.00    +0.000 C 
ATOM     31  C   UNL     1      31.773  -9.823 -20.322  0.00  0.00    +0.000 C 
ENDBRANCH  25  26
ENDBRANCH  24  25
ENDBRANCH   5  24
TORSDOF 7
ENDMDL
MODEL 5
REMARK VINA RESULT:     -10.7      2.071      5.870
REMARK  Name = 23586145
REMARK  7 active torsions:
REMARK  status: ('A' for Active; 'I' for Inactive)
REMARK    1  A    between atoms: C_5  and  O_24
REMARK    2  A    between atoms: C_7  and  N_10
REMARK    3  A    between atoms: N_10  and  C_12
REMARK    4  A    between atoms: C_15  and  S_18
REMARK    5  A    between atoms: S_18  and  N_21
REMARK    6  A    between atoms: O_24  and  C_25
REMARK    7  A    between atoms: C_25  and  C_26
REMARK                            x       y       z     vdW  Elec       q    Type
REMARK                         _______ _______ _______ _____ _____    ______ ____
ROOT
ATOM      1  N   UNL     1      32.432 -23.530 -14.107  0.00  0.00    -0.299 NA
ATOM      2  N   UNL     1      34.174 -23.795 -15.744  0.00  0.00    -0.106 N 
ATOM      3  N   UNL     1      35.502 -24.080 -15.768  0.00  0.00    -0.139 NA
ATOM      4  N   UNL     1      34.750 -24.065 -13.619  0.00  0.00    -0.145 NA
ATOM      5  C   UNL     1      31.657 -23.293 -15.115  0.00  0.00    +0.291 C 
ATOM      6  C   UNL     1      32.017 -23.274 -16.549  0.00  0.00    +0.105 C 
ATOM      7  C   UNL     1      33.309 -23.534 -16.818  0.00  0.00    +0.142 C 
ATOM      8  C   UNL     1      33.735 -23.791 -14.414  0.00  0.00    +0.178 C 
ATOM      9  C   UNL     1      35.787 -24.230 -14.479  0.00  0.00    +0.230 C 
ENDROOT
BRANCH   7  10
ATOM     10  N   UNL     1      33.838 -23.563 -18.076  0.00  0.00    -0.299 N 
ATOM     11  H   UNL     1      33.897 -24.452 -18.496  0.00  0.00    +0.153 HD
BRANCH  10  12
ATOM     12  C   UNL     1      34.309 -22.493 -18.846  0.00  0.00    +0.049 C 
ATOM     13  C   UNL     1      35.685 -22.267 -18.978  0.00  0.00    +0.016 C 
ATOM     14  C   UNL     1      33.410 -21.636 -19.492  0.00  0.00    +0.016 C 
ATOM     15  C   UNL     1      35.251 -20.351 -20.385  0.00  0.00    +0.122 C 
ATOM     16  C   UNL     1      36.153 -21.200 -19.745  0.00  0.00    +0.021 C 
ATOM     17  C   UNL     1      33.878 -20.569 -20.259  0.00  0.00    +0.021 C 
BRANCH  15  18
ATOM     18  S   UNL     1      35.838 -19.015 -21.345  0.00  0.00    +0.057 S 
ATOM     19  O   UNL     1      35.611 -19.325 -22.749  0.00  0.00    -0.153 OA
ATOM     20  O   UNL     1      35.316 -17.778 -20.783  0.00  0.00    -0.153 OA
BRANCH  18  21
ATOM     21  N   UNL     1      37.515 -19.099 -21.025  0.00  0.00    -0.203 NA
ATOM     22  H   UNL     1      37.977 -19.613 -21.774  0.00  0.00    +0.144 HD
ATOM     23  H   UNL     1      37.668 -19.577 -20.138  0.00  0.00    +0.144 HD
ENDBRANCH  18  21
ENDBRANCH  15  18
ENDBRANCH  10  12
ENDBRANCH   7  10
BRANCH   5  24
ATOM     24  O   UNL     1      30.369 -23.029 -14.915  0.00  0.00    -0.451 OA
BRANCH  24  25
ATOM     25  C   UNL     1      29.523 -24.161 -14.849  0.00  0.00    +0.208 C 
BRANCH  25  26
ATOM     26  C   UNL     1      28.191 -23.810 -15.509  0.00  0.00    +0.044 C 
ATOM     27  C   UNL     1      27.488 -22.681 -14.742  0.00  0.00    +0.004 C 
ATOM     28  C   UNL     1      28.399 -23.424 -16.979  0.00  0.00    +0.004 C 
ATOM     29  C   UNL     1      26.177 -22.275 -15.413  0.00  0.00    +0.000 C 
ATOM     30  C   UNL     1      27.086 -23.017 -17.646  0.00  0.00    +0.000 C 
ATOM     31  C   UNL     1      26.387 -21.901 -16.876  0.00  0.00    +0.000 C 
ENDBRANCH  25  26
ENDBRANCH  24  25
ENDBRANCH   5  24
TORSDOF 7
ENDMDL
MODEL 6
REMARK VINA RESULT:     -10.7      5.537     11.088
REMARK  Name = 23586145
REMARK  7 active torsions:
REMARK  status: ('A' for Active; 'I' for Inactive)
REMARK    1  A    between atoms: C_5  and  O_24
REMARK    2  A    between atoms: C_7  and  N_10
REMARK    3  A    between atoms: N_10  and  C_12
REMARK    4  A    between atoms: C_15  and  S_18
REMARK    5  A    between atoms: S_18  and  N_21
REMARK    6  A    between atoms: O_24  and  C_25
REMARK    7  A    between atoms: C_25  and  C_26
REMARK                            x       y       z     vdW  Elec       q    Type
REMARK                         _______ _______ _______ _____ _____    ______ ____
ROOT
ATOM      1  N   UNL     1      33.716 -14.825 -22.572  0.00  0.00    -0.299 NA
ATOM      2  N   UNL     1      34.686 -16.913 -23.267  0.00  0.00    -0.106 N 
ATOM      3  N   UNL     1      34.952 -17.566 -24.429  0.00  0.00    -0.139 NA
ATOM      4  N   UNL     1      33.975 -15.557 -24.873  0.00  0.00    -0.145 NA
ATOM      5  C   UNL     1      33.956 -15.228 -21.366  0.00  0.00    +0.291 C 
ATOM      6  C   UNL     1      34.580 -16.501 -20.945  0.00  0.00    +0.105 C 
ATOM      7  C   UNL     1      34.933 -17.324 -21.949  0.00  0.00    +0.142 C 
ATOM      8  C   UNL     1      34.087 -15.683 -23.565  0.00  0.00    +0.178 C 
ATOM      9  C   UNL     1      34.508 -16.712 -25.345  0.00  0.00    +0.230 C 
ENDROOT
BRANCH   7  10
ATOM     10  N   UNL     1      35.523 -18.542 -21.767  0.00  0.00    -0.299 N 
ATOM     11  H   UNL     1      36.343 -18.704 -22.287  0.00  0.00    +0.153 HD
BRANCH  10  12
ATOM     12  C   UNL     1      35.111 -19.592 -20.938  0.00  0.00    +0.049 C 
ATOM     13  C   UNL     1      36.055 -20.365 -20.250  0.00  0.00    +0.016 C 
ATOM     14  C   UNL     1      33.749 -19.882 -20.786  0.00  0.00    +0.016 C 
ATOM     15  C   UNL     1      34.285 -21.693 -19.279  0.00  0.00    +0.122 C 
ATOM     16  C   UNL     1      35.643 -21.411 -19.424  0.00  0.00    +0.021 C 
ATOM     17  C   UNL     1      33.337 -20.928 -19.961  0.00  0.00    +0.021 C 
BRANCH  15  18
ATOM     18  S   UNL     1      33.770 -23.002 -18.246  0.00  0.00    +0.057 S 
ATOM     19  O   UNL     1      34.722 -23.125 -17.151  0.00  0.00    -0.153 OA
ATOM     20  O   UNL     1      32.353 -22.833 -17.956  0.00  0.00    -0.153 OA
BRANCH  18  21
ATOM     21  N   UNL     1      33.960 -24.338 -19.295  0.00  0.00    -0.203 NA
ATOM     22  H   UNL     1      33.241 -24.305 -20.018  0.00  0.00    +0.144 HD
ATOM     23  H   UNL     1      33.869 -25.203 -18.763  0.00  0.00    +0.144 HD
ENDBRANCH  18  21
ENDBRANCH  15  18
ENDBRANCH  10  12
ENDBRANCH   7  10
BRANCH   5  24
ATOM     24  O   UNL     1      33.630 -14.460 -20.331  0.00  0.00    -0.451 OA
BRANCH  24  25
ATOM     25  C   UNL     1      32.337 -13.888 -20.388  0.00  0.00    +0.208 C 
BRANCH  25  26
ATOM     26  C   UNL     1      32.477 -12.368 -20.338  0.00  0.00    +0.044 C 
ATOM     27  C   UNL     1      32.052 -11.741 -21.673  0.00  0.00    +0.004 C 
ATOM     28  C   UNL     1      31.660 -11.786 -19.177  0.00  0.00    +0.004 C 
ATOM     29  C   UNL     1      32.134 -10.216 -21.631  0.00  0.00    +0.000 C 
ATOM     30  C   UNL     1      31.742 -10.260 -19.139  0.00  0.00    +0.000 C 
ATOM     31  C   UNL     1      31.328  -9.642 -20.470  0.00  0.00    +0.000 C 
ENDBRANCH  25  26
ENDBRANCH  24  25
ENDBRANCH   5  24
TORSDOF 7
ENDMDL
MODEL 7
REMARK VINA RESULT:     -10.6      3.629      7.627
REMARK  Name = 23586145
REMARK  7 active torsions:
REMARK  status: ('A' for Active; 'I' for Inactive)
REMARK    1  A    between atoms: C_5  and  O_24
REMARK    2  A    between atoms: C_7  and  N_10
REMARK    3  A    between atoms: N_10  and  C_12
REMARK    4  A    between atoms: C_15  and  S_18
REMARK    5  A    between atoms: S_18  and  N_21
REMARK    6  A    between atoms: O_24  and  C_25
REMARK    7  A    between atoms: C_25  and  C_26
REMARK                            x       y       z     vdW  Elec       q    Type
REMARK                         _______ _______ _______ _____ _____    ______ ____
ROOT
ATOM      1  N   UNL     1      37.423 -23.108 -15.791  0.00  0.00    -0.299 NA
ATOM      2  N   UNL     1      36.061 -24.148 -14.103  0.00  0.00    -0.106 N 
ATOM      3  N   UNL     1      36.238 -24.822 -12.936  0.00  0.00    -0.139 NA
ATOM      4  N   UNL     1      38.258 -24.231 -13.807  0.00  0.00    -0.145 NA
ATOM      5  C   UNL     1      36.304 -22.815 -16.372  0.00  0.00    +0.291 C 
ATOM      6  C   UNL     1      34.935 -23.137 -15.914  0.00  0.00    +0.105 C 
ATOM      7  C   UNL     1      34.864 -23.817 -14.756  0.00  0.00    +0.142 C 
ATOM      8  C   UNL     1      37.315 -23.797 -14.618  0.00  0.00    +0.178 C 
ATOM      9  C   UNL     1      37.561 -24.839 -12.814  0.00  0.00    +0.230 C 
ENDROOT
BRANCH   7  10
ATOM     10  N   UNL     1      33.695 -24.206 -14.168  0.00  0.00    -0.299 N 
ATOM     11  H   UNL     1      33.785 -24.698 -13.320  0.00  0.00    +0.153 HD
BRANCH  10  12
ATOM     12  C   UNL     1      32.385 -23.998 -14.616  0.00  0.00    +0.049 C 
ATOM     13  C   UNL     1      31.297 -24.446 -13.858  0.00  0.00    +0.016 C 
ATOM     14  C   UNL     1      32.149 -23.338 -15.829  0.00  0.00    +0.016 C 
ATOM     15  C   UNL     1      29.766 -23.580 -15.515  0.00  0.00    +0.122 C 
ATOM     16  C   UNL     1      29.992 -24.238 -14.306  0.00  0.00    +0.021 C 
ATOM     17  C   UNL     1      30.844 -23.130 -16.277  0.00  0.00    +0.021 C 
BRANCH  15  18
ATOM     18  S   UNL     1      28.132 -23.320 -16.075  0.00  0.00    +0.057 S 
ATOM     19  O   UNL     1      27.251 -23.280 -14.917  0.00  0.00    -0.153 OA
ATOM     20  O   UNL     1      28.138 -22.211 -17.019  0.00  0.00    -0.153 OA
BRANCH  18  21
ATOM     21  N   UNL     1      27.849 -24.770 -16.934  0.00  0.00    -0.203 NA
ATOM     22  H   UNL     1      27.045 -25.251 -16.531  0.00  0.00    +0.144 HD
ATOM     23  H   UNL     1      28.671 -25.369 -16.870  0.00  0.00    +0.144 HD
ENDBRANCH  18  21
ENDBRANCH  15  18
ENDBRANCH  10  12
ENDBRANCH   7  10
BRANCH   5  24
ATOM     24  O   UNL     1      36.307 -22.144 -17.520  0.00  0.00    -0.451 OA
BRANCH  24  25
ATOM     25  C   UNL     1      35.280 -22.497 -18.427  0.00  0.00    +0.208 C 
BRANCH  25  26
ATOM     26  C   UNL     1      35.448 -21.664 -19.696  0.00  0.00    +0.044 C 
ATOM     27  C   UNL     1      34.170 -20.866 -19.993  0.00  0.00    +0.004 C 
ATOM     28  C   UNL     1      36.659 -20.730 -19.576  0.00  0.00    +0.004 C 
ATOM     29  C   UNL     1      34.331 -19.985 -21.230  0.00  0.00    +0.000 C 
ATOM     30  C   UNL     1      36.815 -19.847 -20.813  0.00  0.00    +0.000 C 
ATOM     31  C   UNL     1      35.541 -19.064 -21.110  0.00  0.00    +0.000 C 
ENDBRANCH  25  26
ENDBRANCH  24  25
ENDBRANCH   5  24
TORSDOF 7
ENDMDL
MODEL 8
REMARK VINA RESULT:     -10.4      3.839      7.577
REMARK  Name = 23586145
REMARK  7 active torsions:
REMARK  status: ('A' for Active; 'I' for Inactive)
REMARK    1  A    between atoms: C_5  and  O_24
REMARK    2  A    between atoms: C_7  and  N_10
REMARK    3  A    between atoms: N_10  and  C_12
REMARK    4  A    between atoms: C_15  and  S_18
REMARK    5  A    between atoms: S_18  and  N_21
REMARK    6  A    between atoms: O_24  and  C_25
REMARK    7  A    between atoms: C_25  and  C_26
REMARK                            x       y       z     vdW  Elec       q    Type
REMARK                         _______ _______ _______ _____ _____    ______ ____
ROOT
ATOM      1  N   UNL     1      33.143 -21.957 -19.073  0.00  0.00    -0.299 NA
ATOM      2  N   UNL     1      35.488 -21.900 -18.542  0.00  0.00    -0.106 N 
ATOM      3  N   UNL     1      36.622 -21.339 -19.038  0.00  0.00    -0.139 NA
ATOM      4  N   UNL     1      34.838 -20.755 -20.328  0.00  0.00    -0.145 NA
ATOM      5  C   UNL     1      33.027 -22.716 -18.031  0.00  0.00    +0.291 C 
ATOM      6  C   UNL     1      34.098 -23.167 -17.116  0.00  0.00    +0.105 C 
ATOM      7  C   UNL     1      35.332 -22.725 -17.418  0.00  0.00    +0.142 C 
ATOM      8  C   UNL     1      34.407 -21.527 -19.351  0.00  0.00    +0.178 C 
ATOM      9  C   UNL     1      36.173 -20.672 -20.096  0.00  0.00    +0.230 C 
ENDROOT
BRANCH   7  10
ATOM     10  N   UNL     1      36.451 -23.028 -16.697  0.00  0.00    -0.299 N 
ATOM     11  H   UNL     1      37.309 -22.802 -17.122  0.00  0.00    +0.153 HD
BRANCH  10  12
ATOM     12  C   UNL     1      36.534 -23.621 -15.432  0.00  0.00    +0.049 C 
ATOM     13  C   UNL     1      36.022 -24.907 -15.216  0.00  0.00    +0.016 C 
ATOM     14  C   UNL     1      37.132 -22.935 -14.367  0.00  0.00    +0.016 C 
ATOM     15  C   UNL     1      36.702 -24.807 -12.900  0.00  0.00    +0.122 C 
ATOM     16  C   UNL     1      36.106 -25.497 -13.955  0.00  0.00    +0.021 C 
ATOM     17  C   UNL     1      37.216 -23.525 -13.105  0.00  0.00    +0.021 C 
BRANCH  15  18
ATOM     18  S   UNL     1      36.807 -25.546 -11.321  0.00  0.00    +0.057 S 
ATOM     19  O   UNL     1      37.056 -26.969 -11.496  0.00  0.00    -0.153 OA
ATOM     20  O   UNL     1      37.706 -24.751 -10.497  0.00  0.00    -0.153 OA
BRANCH  18  21
ATOM     21  N   UNL     1      35.209 -25.329 -10.755  0.00  0.00    -0.203 NA
ATOM     22  H   UNL     1      34.580 -25.217 -11.550  0.00  0.00    +0.144 HD
ATOM     23  H   UNL     1      35.167 -24.498 -10.167  0.00  0.00    +0.144 HD
ENDBRANCH  18  21
ENDBRANCH  15  18
ENDBRANCH  10  12
ENDBRANCH   7  10
BRANCH   5  24
ATOM     24  O   UNL     1      31.833 -23.186 -17.680  0.00  0.00    -0.451 OA
BRANCH  24  25
ATOM     25  C   UNL     1      31.398 -22.818 -16.385  0.00  0.00    +0.208 C 
BRANCH  25  26
ATOM     26  C   UNL     1      31.275 -24.084 -15.538  0.00  0.00    +0.044 C 
ATOM     27  C   UNL     1      32.187 -24.002 -14.307  0.00  0.00    +0.004 C 
ATOM     28  C   UNL     1      29.817 -24.319 -15.123  0.00  0.00    +0.004 C 
ATOM     29  C   UNL     1      32.043 -25.235 -13.416  0.00  0.00    +0.000 C 
ATOM     30  C   UNL     1      29.676 -25.551 -14.230  0.00  0.00    +0.000 C 
ATOM     31  C   UNL     1      30.591 -25.470 -13.013  0.00  0.00    +0.000 C 
ENDBRANCH  25  26
ENDBRANCH  24  25
ENDBRANCH   5  24
TORSDOF 7
ENDMDL
MODEL 9
REMARK VINA RESULT:     -10.3      7.137     10.969
REMARK  Name = 23586145
REMARK  7 active torsions:
REMARK  status: ('A' for Active; 'I' for Inactive)
REMARK    1  A    between atoms: C_5  and  O_24
REMARK    2  A    between atoms: C_7  and  N_10
REMARK    3  A    between atoms: N_10  and  C_12
REMARK    4  A    between atoms: C_15  and  S_18
REMARK    5  A    between atoms: S_18  and  N_21
REMARK    6  A    between atoms: O_24  and  C_25
REMARK    7  A    between atoms: C_25  and  C_26
REMARK                            x       y       z     vdW  Elec       q    Type
REMARK                         _______ _______ _______ _____ _____    ______ ____
ROOT
ATOM      1  N   UNL     1      34.983 -16.434 -23.658  0.00  0.00    -0.299 NA
ATOM      2  N   UNL     1      33.276 -14.791 -24.071  0.00  0.00    -0.106 N 
ATOM      3  N   UNL     1      32.673 -14.209 -25.141  0.00  0.00    -0.139 NA
ATOM      4  N   UNL     1      34.232 -15.709 -25.850  0.00  0.00    -0.145 NA
ATOM      5  C   UNL     1      34.753 -16.214 -22.404  0.00  0.00    +0.291 C 
ATOM      6  C   UNL     1      33.775 -15.273 -21.815  0.00  0.00    +0.105 C 
ATOM      7  C   UNL     1      33.048 -14.572 -22.704  0.00  0.00    +0.142 C 
ATOM      8  C   UNL     1      34.229 -15.708 -24.532  0.00  0.00    +0.178 C 
ATOM      9  C   UNL     1      33.281 -14.794 -26.167  0.00  0.00    +0.230 C 
ENDROOT
BRANCH   7  10
ATOM     10  N   UNL     1      32.095 -13.657 -22.361  0.00  0.00    -0.299 N 
ATOM     11  H   UNL     1      31.178 -14.004 -22.274  0.00  0.00    +0.153 HD
BRANCH  10  12
ATOM     12  C   UNL     1      32.254 -12.287 -22.119  0.00  0.00    +0.049 C 
ATOM     13  C   UNL     1      32.994 -11.492 -23.003  0.00  0.00    +0.016 C 
ATOM     14  C   UNL     1      31.673 -11.696 -20.990  0.00  0.00    +0.016 C 
ATOM     15  C   UNL     1      32.570  -9.547 -21.634  0.00  0.00    +0.122 C 
ATOM     16  C   UNL     1      33.151 -10.127 -22.761  0.00  0.00    +0.021 C 
ATOM     17  C   UNL     1      31.830 -10.331 -20.748  0.00  0.00    +0.021 C 
BRANCH  15  18
ATOM     18  S   UNL     1      32.767  -7.838 -21.332  0.00  0.00    +0.057 S 
ATOM     19  O   UNL     1      33.927  -7.371 -22.076  0.00  0.00    -0.153 OA
ATOM     20  O   UNL     1      31.479  -7.185 -21.515  0.00  0.00    -0.153 OA
BRANCH  18  21
ATOM     21  N   UNL     1      33.145  -7.845 -19.665  0.00  0.00    -0.203 NA
ATOM     22  H   UNL     1      33.962  -7.258 -19.501  0.00  0.00    +0.144 HD
ATOM     23  H   UNL     1      33.346  -8.799 -19.366  0.00  0.00    +0.144 HD
ENDBRANCH  18  21
ENDBRANCH  15  18
ENDBRANCH  10  12
ENDBRANCH   7  10
BRANCH   5  24
ATOM     24  O   UNL     1      35.438 -16.874 -21.476  0.00  0.00    -0.451 OA
BRANCH  24  25
ATOM     25  C   UNL     1      35.893 -18.158 -21.861  0.00  0.00    +0.208 C 
BRANCH  25  26
ATOM     26  C   UNL     1      35.594 -19.137 -20.726  0.00  0.00    +0.044 C 
ATOM     27  C   UNL     1      34.317 -19.936 -21.022  0.00  0.00    +0.004 C 
ATOM     28  C   UNL     1      36.785 -20.077 -20.494  0.00  0.00    +0.004 C 
ATOM     29  C   UNL     1      34.026 -20.959 -19.926  0.00  0.00    +0.000 C 
ATOM     30  C   UNL     1      36.489 -21.101 -19.399  0.00  0.00    +0.000 C 
ATOM     31  C   UNL     1      35.215 -21.886 -19.693  0.00  0.00    +0.000 C 
ENDBRANCH  25  26
ENDBRANCH  24  25
ENDBRANCH   5  24
TORSDOF 7
ENDMDL
