MODEL 1
REMARK VINA RESULT:     -11.7      0.000      0.000
REMARK  Name = 9889200
REMARK  5 active torsions:
REMARK  status: ('A' for Active; 'I' for Inactive)
REMARK    1  A    between atoms: C_1  and  C_21
REMARK    2  A    between atoms: C_4  and  O_7
REMARK    3  A    between atoms: O_7  and  C_8
REMARK    4  A    between atoms: C_8  and  C_12
REMARK    5  A    between atoms: C_21  and  C_26
REMARK                            x       y       z     vdW  Elec       q    Type
REMARK                         _______ _______ _______ _____ _____    ______ ____
ROOT
ATOM      1  C   UNL     1      35.468 -20.134 -20.653  0.00  0.00    -0.021 C 
ATOM      2  C   UNL     1      36.401 -20.911 -19.968  0.00  0.00    -0.001 C 
ATOM      3  C   UNL     1      34.104 -20.373 -20.487  0.00  0.00    -0.001 C 
ATOM      4  C   UNL     1      34.611 -22.160 -18.959  0.00  0.00    +0.139 C 
ATOM      5  C   UNL     1      35.971 -21.930 -19.117  0.00  0.00    +0.037 C 
ATOM      6  C   UNL     1      33.673 -21.390 -19.636  0.00  0.00    +0.037 C 
ENDROOT
BRANCH   4   7
ATOM      7  O   UNL     1      34.187 -23.162 -18.120  0.00  0.00    -0.466 OA
BRANCH   7   8
ATOM      8  C   UNL     1      34.588 -23.086 -16.769  0.00  0.00    +0.279 C 
BRANCH   8  12
ATOM      9  O   UNL     1      33.081 -25.134 -12.660  0.00  0.00    -0.274 OA
ATOM     10  N   UNL     1      33.834 -24.143 -14.643  0.00  0.00    -0.232 N 
ATOM     11  N   UNL     1      32.272 -23.571 -16.343  0.00  0.00    -0.391 NA
ATOM     12  C   UNL     1      33.486 -23.623 -15.888  0.00  0.00    +0.210 C 
ATOM     13  C   UNL     1      31.474 -24.608 -14.273  0.00  0.00    +0.151 C 
ATOM     14  C   UNL     1      31.237 -24.065 -15.539  0.00  0.00    +0.123 C 
ATOM     15  C   UNL     1      32.863 -24.659 -13.771  0.00  0.00    +0.241 C 
ATOM     16  C   UNL     1      35.228 -24.167 -14.204  0.00  0.00    +0.122 C 
ATOM     17  C   UNL     1      30.417 -25.093 -13.495  0.00  0.00    -0.010 C 
ATOM     18  C   UNL     1      29.924 -24.014 -16.018  0.00  0.00    +0.028 C 
ATOM     19  C   UNL     1      29.114 -25.035 -13.985  0.00  0.00    -0.004 C 
ATOM     20  C   UNL     1      28.867 -24.497 -15.246  0.00  0.00    +0.002 C 
ENDBRANCH   8  12
ENDBRANCH   7   8
ENDBRANCH   4   7
BRANCH   1  21
ATOM     21  C   UNL     1      35.929 -19.046 -21.563  0.00  0.00    +0.047 C 
BRANCH  21  26
ATOM     22  S   UNL     1      34.753 -18.637 -24.027  0.00  0.00    -0.048 S 
ATOM     23  O   UNL     1      34.959 -16.257 -20.996  0.00  0.00    -0.274 OA
ATOM     24  O   UNL     1      34.811 -16.534 -25.605  0.00  0.00    -0.263 OA
ATOM     25  N   UNL     1      34.881 -16.190 -23.307  0.00  0.00    -0.246 N 
ATOM     26  C   UNL     1      34.764 -18.324 -22.236  0.00  0.00    +0.137 C 
ATOM     27  C   UNL     1      34.880 -16.823 -22.082  0.00  0.00    +0.239 C 
ATOM     28  C   UNL     1      34.818 -16.940 -24.452  0.00  0.00    +0.279 C 
ATOM     29  H   UNL     1      34.926 -15.208 -23.358  0.00  0.00    +0.158 HD
ENDBRANCH  21  26
ENDBRANCH   1  21
TORSDOF 5
ENDMDL
MODEL 2
REMARK VINA RESULT:     -11.6      1.031      3.152
REMARK  Name = 9889200
REMARK  5 active torsions:
REMARK  status: ('A' for Active; 'I' for Inactive)
REMARK    1  A    between atoms: C_1  and  C_21
REMARK    2  A    between atoms: C_4  and  O_7
REMARK    3  A    between atoms: O_7  and  C_8
REMARK    4  A    between atoms: C_8  and  C_12
REMARK    5  A    between atoms: C_21  and  C_26
REMARK                            x       y       z     vdW  Elec       q    Type
REMARK                         _______ _______ _______ _____ _____    ______ ____
ROOT
ATOM      1  C   UNL     1      35.139 -20.385 -20.486  0.00  0.00    -0.021 C 
ATOM      2  C   UNL     1      33.756 -20.506 -20.356  0.00  0.00    -0.001 C 
ATOM      3  C   UNL     1      35.982 -21.295 -19.849  0.00  0.00    -0.001 C 
ATOM      4  C   UNL     1      34.063 -22.437 -18.956  0.00  0.00    +0.139 C 
ATOM      5  C   UNL     1      33.215 -21.537 -19.586  0.00  0.00    +0.037 C 
ATOM      6  C   UNL     1      35.442 -22.326 -19.081  0.00  0.00    +0.037 C 
ENDROOT
BRANCH   4   7
ATOM      7  O   UNL     1      33.530 -23.454 -18.200  0.00  0.00    -0.466 OA
BRANCH   7   8
ATOM      8  C   UNL     1      32.661 -23.090 -17.150  0.00  0.00    +0.279 C 
BRANCH   8  12
ATOM      9  O   UNL     1      32.221 -25.167 -12.810  0.00  0.00    -0.274 OA
ATOM     10  N   UNL     1      32.411 -24.164 -14.916  0.00  0.00    -0.232 N 
ATOM     11  N   UNL     1      34.512 -23.309 -15.631  0.00  0.00    -0.391 NA
ATOM     12  C   UNL     1      33.251 -23.537 -15.834  0.00  0.00    +0.210 C 
ATOM     13  C   UNL     1      34.325 -24.356 -13.425  0.00  0.00    +0.151 C 
ATOM     14  C   UNL     1      35.075 -23.717 -14.416  0.00  0.00    +0.123 C 
ATOM     15  C   UNL     1      32.889 -24.607 -13.673  0.00  0.00    +0.241 C 
ATOM     16  C   UNL     1      30.997 -24.383 -15.221  0.00  0.00    +0.122 C 
ATOM     17  C   UNL     1      34.918 -24.751 -12.222  0.00  0.00    -0.010 C 
ATOM     18  C   UNL     1      36.434 -23.477 -14.185  0.00  0.00    +0.028 C 
ATOM     19  C   UNL     1      36.273 -24.506 -12.006  0.00  0.00    -0.004 C 
ATOM     20  C   UNL     1      37.031 -23.870 -12.987  0.00  0.00    +0.002 C 
ENDBRANCH   8  12
ENDBRANCH   7   8
ENDBRANCH   4   7
BRANCH   1  21
ATOM     21  C   UNL     1      35.717 -19.283 -21.307  0.00  0.00    +0.047 C 
BRANCH  21  26
ATOM     22  S   UNL     1      34.687 -18.785 -23.820  0.00  0.00    -0.048 S 
ATOM     23  O   UNL     1      34.933 -16.430 -20.772  0.00  0.00    -0.274 OA
ATOM     24  O   UNL     1      34.974 -16.691 -25.384  0.00  0.00    -0.263 OA
ATOM     25  N   UNL     1      34.966 -16.354 -23.084  0.00  0.00    -0.246 N 
ATOM     26  C   UNL     1      34.641 -18.474 -22.029  0.00  0.00    +0.137 C 
ATOM     27  C   UNL     1      34.862 -16.987 -21.863  0.00  0.00    +0.239 C 
ATOM     28  C   UNL     1      34.898 -17.097 -24.234  0.00  0.00    +0.279 C 
ATOM     29  H   UNL     1      35.086 -15.378 -23.129  0.00  0.00    +0.158 HD
ENDBRANCH  21  26
ENDBRANCH   1  21
TORSDOF 5
ENDMDL
MODEL 3
REMARK VINA RESULT:     -11.3      3.048     10.108
REMARK  Name = 9889200
REMARK  5 active torsions:
REMARK  status: ('A' for Active; 'I' for Inactive)
REMARK    1  A    between atoms: C_1  and  C_21
REMARK    2  A    between atoms: C_4  and  O_7
REMARK    3  A    between atoms: O_7  and  C_8
REMARK    4  A    between atoms: C_8  and  C_12
REMARK    5  A    between atoms: C_21  and  C_26
REMARK                            x       y       z     vdW  Elec       q    Type
REMARK                         _______ _______ _______ _____ _____    ______ ____
ROOT
ATOM      1  C   UNL     1      34.022 -22.302 -18.871  0.00  0.00    -0.021 C 
ATOM      2  C   UNL     1      32.933 -21.583 -19.364  0.00  0.00    -0.001 C 
ATOM      3  C   UNL     1      35.316 -21.964 -19.263  0.00  0.00    -0.001 C 
ATOM      4  C   UNL     1      34.432 -20.197 -20.635  0.00  0.00    +0.139 C 
ATOM      5  C   UNL     1      33.139 -20.525 -20.251  0.00  0.00    +0.037 C 
ATOM      6  C   UNL     1      35.523 -20.906 -20.149  0.00  0.00    +0.037 C 
ENDROOT
BRANCH   4   7
ATOM      7  O   UNL     1      34.635 -19.155 -21.507  0.00  0.00    -0.466 OA
BRANCH   7   8
ATOM      8  C   UNL     1      35.337 -18.032 -21.019  0.00  0.00    +0.279 C 
BRANCH   8  12
ATOM      9  O   UNL     1      33.987 -14.818 -24.365  0.00  0.00    -0.274 OA
ATOM     10  N   UNL     1      34.654 -16.387 -22.760  0.00  0.00    -0.232 N 
ATOM     11  N   UNL     1      33.983 -16.116 -20.495  0.00  0.00    -0.391 NA
ATOM     12  C   UNL     1      34.610 -16.772 -21.422  0.00  0.00    +0.210 C 
ATOM     13  C   UNL     1      33.281 -14.468 -22.164  0.00  0.00    +0.151 C 
ATOM     14  C   UNL     1      33.303 -14.945 -20.851  0.00  0.00    +0.123 C 
ATOM     15  C   UNL     1      34.000 -15.228 -23.208  0.00  0.00    +0.241 C 
ATOM     16  C   UNL     1      35.384 -17.183 -23.746  0.00  0.00    +0.122 C 
ATOM     17  C   UNL     1      32.592 -13.294 -22.488  0.00  0.00    -0.010 C 
ATOM     18  C   UNL     1      32.624 -14.228 -19.860  0.00  0.00    +0.028 C 
ATOM     19  C   UNL     1      31.919 -12.590 -21.490  0.00  0.00    -0.004 C 
ATOM     20  C   UNL     1      31.935 -13.057 -20.177  0.00  0.00    +0.002 C 
ENDBRANCH   8  12
ENDBRANCH   7   8
ENDBRANCH   4   7
BRANCH   1  21
ATOM     21  C   UNL     1      33.801 -23.432 -17.924  0.00  0.00    +0.047 C 
BRANCH  21  26
ATOM     22  S   UNL     1      34.458 -23.754 -15.262  0.00  0.00    -0.048 S 
ATOM     23  O   UNL     1      31.030 -22.968 -16.853  0.00  0.00    -0.274 OA
ATOM     24  O   UNL     1      33.204 -25.058 -13.353  0.00  0.00    -0.263 OA
ATOM     25  N   UNL     1      31.933 -24.060 -15.024  0.00  0.00    -0.246 N 
ATOM     26  C   UNL     1      33.426 -22.950 -16.525  0.00  0.00    +0.137 C 
ATOM     27  C   UNL     1      31.997 -23.311 -16.180  0.00  0.00    +0.239 C 
ATOM     28  C   UNL     1      33.092 -24.402 -14.379  0.00  0.00    +0.279 C 
ATOM     29  H   UNL     1      31.061 -24.345 -14.665  0.00  0.00    +0.158 HD
ENDBRANCH  21  26
ENDBRANCH   1  21
TORSDOF 5
ENDMDL
MODEL 4
REMARK VINA RESULT:     -11.3      3.114     10.315
REMARK  Name = 9889200
REMARK  5 active torsions:
REMARK  status: ('A' for Active; 'I' for Inactive)
REMARK    1  A    between atoms: C_1  and  C_21
REMARK    2  A    between atoms: C_4  and  O_7
REMARK    3  A    between atoms: O_7  and  C_8
REMARK    4  A    between atoms: C_8  and  C_12
REMARK    5  A    between atoms: C_21  and  C_26
REMARK                            x       y       z     vdW  Elec       q    Type
REMARK                         _______ _______ _______ _____ _____    ______ ____
ROOT
ATOM      1  C   UNL     1      34.393 -23.046 -17.514  0.00  0.00    -0.021 C 
ATOM      2  C   UNL     1      33.160 -22.688 -18.058  0.00  0.00    -0.001 C 
ATOM      3  C   UNL     1      35.569 -22.509 -18.036  0.00  0.00    -0.001 C 
ATOM      4  C   UNL     1      34.280 -21.263 -19.638  0.00  0.00    +0.139 C 
ATOM      5  C   UNL     1      33.103 -21.792 -19.126  0.00  0.00    +0.037 C 
ATOM      6  C   UNL     1      35.513 -21.612 -19.103  0.00  0.00    +0.037 C 
ENDROOT
BRANCH   4   7
ATOM      7  O   UNL     1      34.224 -20.379 -20.690  0.00  0.00    -0.466 OA
BRANCH   7   8
ATOM      8  C   UNL     1      35.430 -19.758 -21.076  0.00  0.00    +0.279 C 
BRANCH   8  12
ATOM      9  O   UNL     1      34.619 -17.330 -25.174  0.00  0.00    -0.274 OA
ATOM     10  N   UNL     1      35.016 -18.526 -23.201  0.00  0.00    -0.232 N 
ATOM     11  N   UNL     1      34.970 -17.398 -21.108  0.00  0.00    -0.391 NA
ATOM     12  C   UNL     1      35.121 -18.477 -21.813  0.00  0.00    +0.210 C 
ATOM     13  C   UNL     1      34.555 -16.137 -23.165  0.00  0.00    +0.151 C 
ATOM     14  C   UNL     1      34.683 -16.201 -21.775  0.00  0.00    +0.123 C 
ATOM     15  C   UNL     1      34.730 -17.376 -23.952  0.00  0.00    +0.241 C 
ATOM     16  C   UNL     1      35.200 -19.785 -23.923  0.00  0.00    +0.122 C 
ATOM     17  C   UNL     1      34.267 -14.925 -23.802  0.00  0.00    -0.010 C 
ATOM     18  C   UNL     1      34.519 -15.031 -21.027  0.00  0.00    +0.028 C 
ATOM     19  C   UNL     1      34.105 -13.767 -23.043  0.00  0.00    -0.004 C 
ATOM     20  C   UNL     1      34.231 -13.819 -21.656  0.00  0.00    +0.002 C 
ENDBRANCH   8  12
ENDBRANCH   7   8
ENDBRANCH   4   7
BRANCH   1  21
ATOM     21  C   UNL     1      34.454 -24.005 -16.373  0.00  0.00    +0.047 C 
BRANCH  21  26
ATOM     22  S   UNL     1      35.642 -23.958 -13.881  0.00  0.00    -0.048 S 
ATOM     23  O   UNL     1      31.976 -23.239 -14.851  0.00  0.00    -0.274 OA
ATOM     24  O   UNL     1      34.784 -24.893 -11.577  0.00  0.00    -0.263 OA
ATOM     25  N   UNL     1      33.215 -24.091 -13.093  0.00  0.00    -0.246 N 
ATOM     26  C   UNL     1      34.387 -23.299 -15.020  0.00  0.00    +0.137 C 
ATOM     27  C   UNL     1      33.054 -23.527 -14.342  0.00  0.00    +0.239 C 
ATOM     28  C   UNL     1      34.476 -24.394 -12.650  0.00  0.00    +0.279 C 
ATOM     29  H   UNL     1      32.431 -24.272 -12.526  0.00  0.00    +0.158 HD
ENDBRANCH  21  26
ENDBRANCH   1  21
TORSDOF 5
ENDMDL
MODEL 5
REMARK VINA RESULT:     -11.2      2.072      4.242
REMARK  Name = 9889200
REMARK  5 active torsions:
REMARK  status: ('A' for Active; 'I' for Inactive)
REMARK    1  A    between atoms: C_1  and  C_21
REMARK    2  A    between atoms: C_4  and  O_7
REMARK    3  A    between atoms: O_7  and  C_8
REMARK    4  A    between atoms: C_8  and  C_12
REMARK    5  A    between atoms: C_21  and  C_26
REMARK                            x       y       z     vdW  Elec       q    Type
REMARK                         _______ _______ _______ _____ _____    ______ ____
ROOT
ATOM      1  C   UNL     1      34.097 -20.682 -20.238  0.00  0.00    -0.021 C 
ATOM      2  C   UNL     1      33.064 -21.268 -19.507  0.00  0.00    -0.001 C 
ATOM      3  C   UNL     1      35.420 -21.051 -19.997  0.00  0.00    -0.001 C 
ATOM      4  C   UNL     1      34.674 -22.583 -18.299  0.00  0.00    +0.139 C 
ATOM      5  C   UNL     1      33.355 -22.223 -18.532  0.00  0.00    +0.037 C 
ATOM      6  C   UNL     1      35.710 -22.007 -19.023  0.00  0.00    +0.037 C 
ENDROOT
BRANCH   4   7
ATOM      7  O   UNL     1      34.960 -23.525 -17.340  0.00  0.00    -0.466 OA
BRANCH   7   8
ATOM      8  C   UNL     1      34.137 -23.549 -16.193  0.00  0.00    +0.279 C 
BRANCH   8  12
ATOM      9  O   UNL     1      34.393 -25.029 -11.601  0.00  0.00    -0.274 OA
ATOM     10  N   UNL     1      34.247 -24.306 -13.822  0.00  0.00    -0.232 N 
ATOM     11  N   UNL     1      36.159 -24.425 -15.231  0.00  0.00    -0.391 NA
ATOM     12  C   UNL     1      34.912 -24.127 -15.033  0.00  0.00    +0.210 C 
ATOM     13  C   UNL     1      36.324 -25.184 -12.909  0.00  0.00    +0.151 C 
ATOM     14  C   UNL     1      36.892 -24.961 -14.165  0.00  0.00    +0.123 C 
ATOM     15  C   UNL     1      34.902 -24.838 -12.701  0.00  0.00    +0.241 C 
ATOM     16  C   UNL     1      32.837 -23.943 -13.681  0.00  0.00    +0.122 C 
ATOM     17  C   UNL     1      37.084 -25.722 -11.865  0.00  0.00    -0.010 C 
ATOM     18  C   UNL     1      38.238 -25.287 -14.365  0.00  0.00    +0.028 C 
ATOM     19  C   UNL     1      38.424 -26.042 -12.079  0.00  0.00    -0.004 C 
ATOM     20  C   UNL     1      39.001 -25.824 -13.328  0.00  0.00    +0.002 C 
ENDBRANCH   8  12
ENDBRANCH   7   8
ENDBRANCH   4   7
BRANCH   1  21
ATOM     21  C   UNL     1      33.787 -19.660 -21.279  0.00  0.00    +0.047 C 
BRANCH  21  26
ATOM     22  S   UNL     1      35.028 -17.194 -21.218  0.00  0.00    -0.048 S 
ATOM     23  O   UNL     1      35.086 -19.887 -23.982  0.00  0.00    -0.274 OA
ATOM     24  O   UNL     1      35.241 -15.358 -23.087  0.00  0.00    -0.263 OA
ATOM     25  N   UNL     1      35.192 -17.589 -23.736  0.00  0.00    -0.246 N 
ATOM     26  C   UNL     1      35.038 -18.929 -21.763  0.00  0.00    +0.137 C 
ATOM     27  C   UNL     1      35.105 -18.886 -23.273  0.00  0.00    +0.239 C 
ATOM     28  C   UNL     1      35.174 -16.553 -22.840  0.00  0.00    +0.279 C 
ATOM     29  H   UNL     1      35.268 -17.411 -24.701  0.00  0.00    +0.158 HD
ENDBRANCH  21  26
ENDBRANCH   1  21
TORSDOF 5
ENDMDL
MODEL 6
REMARK VINA RESULT:     -11.1      4.270     10.930
REMARK  Name = 9889200
REMARK  5 active torsions:
REMARK  status: ('A' for Active; 'I' for Inactive)
REMARK    1  A    between atoms: C_1  and  C_21
REMARK    2  A    between atoms: C_4  and  O_7
REMARK    3  A    between atoms: O_7  and  C_8
REMARK    4  A    between atoms: C_8  and  C_12
REMARK    5  A    between atoms: C_21  and  C_26
REMARK                            x       y       z     vdW  Elec       q    Type
REMARK                         _______ _______ _______ _____ _____    ______ ____
ROOT
ATOM      1  C   UNL     1      35.001 -18.997 -21.965  0.00  0.00    -0.021 C 
ATOM      2  C   UNL     1      34.970 -17.971 -21.021  0.00  0.00    -0.001 C 
ATOM      3  C   UNL     1      35.024 -18.693 -23.325  0.00  0.00    -0.001 C 
ATOM      4  C   UNL     1      34.983 -16.348 -22.794  0.00  0.00    +0.139 C 
ATOM      5  C   UNL     1      34.960 -16.640 -21.438  0.00  0.00    +0.037 C 
ATOM      6  C   UNL     1      35.015 -17.362 -23.743  0.00  0.00    +0.037 C 
ENDROOT
BRANCH   4   7
ATOM      7  O   UNL     1      34.976 -15.036 -23.205  0.00  0.00    -0.466 OA
BRANCH   7   8
ATOM      8  C   UNL     1      33.791 -14.552 -23.798  0.00  0.00    +0.279 C 
BRANCH   8  12
ATOM      9  O   UNL     1      33.094  -9.795 -23.316  0.00  0.00    -0.274 OA
ATOM     10  N   UNL     1      33.442 -12.096 -23.570  0.00  0.00    -0.232 N 
ATOM     11  N   UNL     1      32.738 -13.593 -21.862  0.00  0.00    -0.391 NA
ATOM     12  C   UNL     1      33.288 -13.364 -23.014  0.00  0.00    +0.210 C 
ATOM     13  C   UNL     1      32.369 -11.188 -21.584  0.00  0.00    +0.151 C 
ATOM     14  C   UNL     1      32.266 -12.502 -21.121  0.00  0.00    +0.123 C 
ATOM     15  C   UNL     1      32.998 -10.946 -22.900  0.00  0.00    +0.241 C 
ATOM     16  C   UNL     1      34.075 -11.923 -24.878  0.00  0.00    +0.122 C 
ATOM     17  C   UNL     1      31.887 -10.120 -20.820  0.00  0.00    -0.010 C 
ATOM     18  C   UNL     1      31.671 -12.735 -19.876  0.00  0.00    +0.028 C 
ATOM     19  C   UNL     1      31.296 -10.367 -19.582  0.00  0.00    -0.004 C 
ATOM     20  C   UNL     1      31.188 -11.673 -19.110  0.00  0.00    +0.002 C 
ENDBRANCH   8  12
ENDBRANCH   7   8
ENDBRANCH   4   7
BRANCH   1  21
ATOM     21  C   UNL     1      35.009 -20.420 -21.519  0.00  0.00    +0.047 C 
BRANCH  21  26
ATOM     22  S   UNL     1      35.454 -21.917 -19.242  0.00  0.00    -0.048 S 
ATOM     23  O   UNL     1      32.186 -20.289 -20.493  0.00  0.00    -0.274 OA
ATOM     24  O   UNL     1      34.013 -23.838 -18.169  0.00  0.00    -0.263 OA
ATOM     25  N   UNL     1      32.908 -22.128 -19.290  0.00  0.00    -0.246 N 
ATOM     26  C   UNL     1      34.549 -20.575 -20.071  0.00  0.00    +0.137 C 
ATOM     27  C   UNL     1      33.087 -20.954 -19.992  0.00  0.00    +0.239 C 
ATOM     28  C   UNL     1      34.003 -22.794 -18.805  0.00  0.00    +0.279 C 
ATOM     29  H   UNL     1      32.002 -22.482 -19.138  0.00  0.00    +0.158 HD
ENDBRANCH  21  26
ENDBRANCH   1  21
TORSDOF 5
ENDMDL
MODEL 7
REMARK VINA RESULT:     -10.7      4.059     10.203
REMARK  Name = 9889200
REMARK  5 active torsions:
REMARK  status: ('A' for Active; 'I' for Inactive)
REMARK    1  A    between atoms: C_1  and  C_21
REMARK    2  A    between atoms: C_4  and  O_7
REMARK    3  A    between atoms: O_7  and  C_8
REMARK    4  A    between atoms: C_8  and  C_12
REMARK    5  A    between atoms: C_21  and  C_26
REMARK                            x       y       z     vdW  Elec       q    Type
REMARK                         _______ _______ _______ _____ _____    ______ ____
ROOT
ATOM      1  C   UNL     1      35.565 -22.975 -16.718  0.00  0.00    -0.021 C 
ATOM      2  C   UNL     1      36.784 -22.337 -16.946  0.00  0.00    -0.001 C 
ATOM      3  C   UNL     1      34.520 -22.829 -17.630  0.00  0.00    -0.001 C 
ATOM      4  C   UNL     1      35.911 -21.413 -18.988  0.00  0.00    +0.139 C 
ATOM      5  C   UNL     1      36.958 -21.552 -18.087  0.00  0.00    +0.037 C 
ATOM      6  C   UNL     1      34.694 -22.045 -18.770  0.00  0.00    +0.037 C 
ENDROOT
BRANCH   4   7
ATOM      7  O   UNL     1      36.083 -20.642 -20.112  0.00  0.00    -0.466 OA
BRANCH   7   8
ATOM      8  C   UNL     1      35.006 -20.577 -21.021  0.00  0.00    +0.279 C 
BRANCH   8  12
ATOM      9  O   UNL     1      34.871 -17.475 -24.724  0.00  0.00    -0.274 OA
ATOM     10  N   UNL     1      34.940 -18.996 -22.945  0.00  0.00    -0.232 N 
ATOM     11  N   UNL     1      34.759 -18.205 -20.709  0.00  0.00    -0.391 NA
ATOM     12  C   UNL     1      34.893 -19.172 -21.564  0.00  0.00    +0.210 C 
ATOM     13  C   UNL     1      34.687 -16.606 -22.562  0.00  0.00    +0.151 C 
ATOM     14  C   UNL     1      34.653 -16.896 -21.196  0.00  0.00    +0.123 C 
ATOM     15  C   UNL     1      34.840 -17.720 -23.521  0.00  0.00    +0.241 C 
ATOM     16  C   UNL     1      35.094 -20.140 -23.843  0.00  0.00    +0.122 C 
ATOM     17  C   UNL     1      34.578 -15.287 -23.016  0.00  0.00    -0.010 C 
ATOM     18  C   UNL     1      34.508 -15.845 -20.285  0.00  0.00    +0.028 C 
ATOM     19  C   UNL     1      34.434 -14.249 -22.096  0.00  0.00    -0.004 C 
ATOM     20  C   UNL     1      34.399 -14.528 -20.731  0.00  0.00    +0.002 C 
ENDBRANCH   8  12
ENDBRANCH   7   8
ENDBRANCH   4   7
BRANCH   1  21
ATOM     21  C   UNL     1      35.379 -23.813 -15.499  0.00  0.00    +0.047 C 
BRANCH  21  26
ATOM     22  S   UNL     1      36.387 -26.278 -14.771  0.00  0.00    -0.048 S 
ATOM     23  O   UNL     1      37.457 -22.762 -13.597  0.00  0.00    -0.274 OA
ATOM     24  O   UNL     1      37.052 -27.205 -12.402  0.00  0.00    -0.263 OA
ATOM     25  N   UNL     1      37.342 -24.937 -12.818  0.00  0.00    -0.246 N 
ATOM     26  C   UNL     1      36.671 -24.507 -15.072  0.00  0.00    +0.137 C 
ATOM     27  C   UNL     1      37.196 -23.947 -13.769  0.00  0.00    +0.239 C 
ATOM     28  C   UNL     1      36.985 -26.223 -13.127  0.00  0.00    +0.279 C 
ATOM     29  H   UNL     1      37.700 -24.720 -11.927  0.00  0.00    +0.158 HD
ENDBRANCH  21  26
ENDBRANCH   1  21
TORSDOF 5
ENDMDL
MODEL 8
REMARK VINA RESULT:     -10.7      1.799      2.561
REMARK  Name = 9889200
REMARK  5 active torsions:
REMARK  status: ('A' for Active; 'I' for Inactive)
REMARK    1  A    between atoms: C_1  and  C_21
REMARK    2  A    between atoms: C_4  and  O_7
REMARK    3  A    between atoms: O_7  and  C_8
REMARK    4  A    between atoms: C_8  and  C_12
REMARK    5  A    between atoms: C_21  and  C_26
REMARK                            x       y       z     vdW  Elec       q    Type
REMARK                         _______ _______ _______ _____ _____    ______ ____
ROOT
ATOM      1  C   UNL     1      35.747 -18.634 -21.550  0.00  0.00    -0.021 C 
ATOM      2  C   UNL     1      34.494 -19.224 -21.387  0.00  0.00    -0.001 C 
ATOM      3  C   UNL     1      36.872 -19.208 -20.959  0.00  0.00    -0.001 C 
ATOM      4  C   UNL     1      35.491 -20.952 -20.045  0.00  0.00    +0.139 C 
ATOM      5  C   UNL     1      34.365 -20.389 -20.629  0.00  0.00    +0.037 C 
ATOM      6  C   UNL     1      36.744 -20.373 -20.203  0.00  0.00    +0.037 C 
ENDROOT
BRANCH   4   7
ATOM      7  O   UNL     1      35.364 -22.101 -19.301  0.00  0.00    -0.466 OA
BRANCH   7   8
ATOM      8  C   UNL     1      36.196 -22.231 -18.169  0.00  0.00    +0.279 C 
BRANCH   8  12
ATOM      9  O   UNL     1      35.837 -23.675 -13.571  0.00  0.00    -0.274 OA
ATOM     10  N   UNL     1      36.034 -22.973 -15.796  0.00  0.00    -0.232 N 
ATOM     11  N   UNL     1      34.113 -22.934 -17.196  0.00  0.00    -0.391 NA
ATOM     12  C   UNL     1      35.381 -22.740 -17.004  0.00  0.00    +0.210 C 
ATOM     13  C   UNL     1      33.894 -23.672 -14.871  0.00  0.00    +0.151 C 
ATOM     14  C   UNL     1      33.342 -23.407 -16.127  0.00  0.00    +0.123 C 
ATOM     15  C   UNL     1      35.341 -23.445 -14.670  0.00  0.00    +0.241 C 
ATOM     16  C   UNL     1      37.470 -22.730 -15.661  0.00  0.00    +0.122 C 
ATOM     17  C   UNL     1      33.096 -24.143 -13.823  0.00  0.00    -0.010 C 
ATOM     18  C   UNL     1      31.972 -23.620 -16.321  0.00  0.00    +0.028 C 
ATOM     19  C   UNL     1      31.733 -24.350 -14.031  0.00  0.00    -0.004 C 
ATOM     20  C   UNL     1      31.172 -24.089 -15.279  0.00  0.00    +0.002 C 
ENDBRANCH   8  12
ENDBRANCH   7   8
ENDBRANCH   4   7
BRANCH   1  21
ATOM     21  C   UNL     1      35.885 -17.388 -22.358  0.00  0.00    +0.047 C 
BRANCH  21  26
ATOM     22  S   UNL     1      34.452 -15.728 -24.036  0.00  0.00    -0.048 S 
ATOM     23  O   UNL     1      34.570 -15.787 -20.179  0.00  0.00    -0.274 OA
ATOM     24  O   UNL     1      34.066 -13.129 -23.923  0.00  0.00    -0.263 OA
ATOM     25  N   UNL     1      34.284 -14.298 -21.926  0.00  0.00    -0.246 N 
ATOM     26  C   UNL     1      34.573 -16.612 -22.452  0.00  0.00    +0.137 C 
ATOM     27  C   UNL     1      34.481 -15.549 -21.379  0.00  0.00    +0.239 C 
ATOM     28  C   UNL     1      34.232 -14.160 -23.288  0.00  0.00    +0.279 C 
ATOM     29  H   UNL     1      34.180 -13.512 -21.342  0.00  0.00    +0.158 HD
ENDBRANCH  21  26
ENDBRANCH   1  21
TORSDOF 5
ENDMDL
MODEL 9
REMARK VINA RESULT:     -10.6      2.783     10.363
REMARK  Name = 9889200
REMARK  5 active torsions:
REMARK  status: ('A' for Active; 'I' for Inactive)
REMARK    1  A    between atoms: C_1  and  C_21
REMARK    2  A    between atoms: C_4  and  O_7
REMARK    3  A    between atoms: O_7  and  C_8
REMARK    4  A    between atoms: C_8  and  C_12
REMARK    5  A    between atoms: C_21  and  C_26
REMARK                            x       y       z     vdW  Elec       q    Type
REMARK                         _______ _______ _______ _____ _____    ______ ____
ROOT
ATOM      1  C   UNL     1      34.143 -22.310 -18.953  0.00  0.00    -0.021 C 
ATOM      2  C   UNL     1      33.136 -21.550 -19.548  0.00  0.00    -0.001 C 
ATOM      3  C   UNL     1      35.481 -22.048 -19.246  0.00  0.00    -0.001 C 
ATOM      4  C   UNL     1      34.802 -20.274 -20.723  0.00  0.00    +0.139 C 
ATOM      5  C   UNL     1      33.467 -20.527 -20.438  0.00  0.00    +0.037 C 
ATOM      6  C   UNL     1      35.812 -21.025 -20.135  0.00  0.00    +0.037 C 
ENDROOT
BRANCH   4   7
ATOM      7  O   UNL     1      35.128 -19.266 -21.597  0.00  0.00    -0.466 OA
BRANCH   7   8
ATOM      8  C   UNL     1      35.476 -18.017 -21.041  0.00  0.00    +0.279 C 
BRANCH   8  12
ATOM      9  O   UNL     1      33.351 -13.695 -21.431  0.00  0.00    -0.274 OA
ATOM     10  N   UNL     1      34.380 -15.786 -21.219  0.00  0.00    -0.232 N 
ATOM     11  N   UNL     1      34.849 -17.074 -23.162  0.00  0.00    -0.391 NA
ATOM     12  C   UNL     1      34.874 -16.912 -21.875  0.00  0.00    +0.210 C 
ATOM     13  C   UNL     1      33.771 -14.888 -23.397  0.00  0.00    +0.151 C 
ATOM     14  C   UNL     1      34.293 -16.059 -23.951  0.00  0.00    +0.123 C 
ATOM     15  C   UNL     1      33.807 -14.720 -21.929  0.00  0.00    +0.241 C 
ATOM     16  C   UNL     1      34.445 -15.680 -19.762  0.00  0.00    +0.122 C 
ATOM     17  C   UNL     1      33.223 -13.893 -24.213  0.00  0.00    -0.010 C 
ATOM     18  C   UNL     1      34.260 -16.222 -25.340  0.00  0.00    +0.028 C 
ATOM     19  C   UNL     1      33.197 -14.069 -25.596  0.00  0.00    -0.004 C 
ATOM     20  C   UNL     1      33.716 -15.233 -26.159  0.00  0.00    +0.002 C 
ENDBRANCH   8  12
ENDBRANCH   7   8
ENDBRANCH   4   7
BRANCH   1  21
ATOM     21  C   UNL     1      33.789 -23.404 -18.004  0.00  0.00    +0.047 C 
BRANCH  21  26
ATOM     22  S   UNL     1      35.074 -23.459 -15.561  0.00  0.00    -0.048 S 
ATOM     23  O   UNL     1      31.294 -23.318 -16.328  0.00  0.00    -0.274 OA
ATOM     24  O   UNL     1      34.519 -24.827 -13.385  0.00  0.00    -0.263 OA
ATOM     25  N   UNL     1      32.755 -24.143 -14.735  0.00  0.00    -0.246 N 
ATOM     26  C   UNL     1      33.664 -22.904 -16.566  0.00  0.00    +0.137 C 
ATOM     27  C   UNL     1      32.431 -23.463 -15.891  0.00  0.00    +0.239 C 
ATOM     28  C   UNL     1      34.070 -24.260 -14.370  0.00  0.00    +0.279 C 
ATOM     29  H   UNL     1      32.047 -24.539 -14.178  0.00  0.00    +0.158 HD
ENDBRANCH  21  26
ENDBRANCH   1  21
TORSDOF 5
ENDMDL
