MODEL 1
REMARK VINA RESULT:     -11.6      0.000      0.000
REMARK  Name = 11507920
REMARK  4 active torsions:
REMARK  status: ('A' for Active; 'I' for Inactive)
REMARK    1  A    between atoms: C_1  and  C_8
REMARK    2  A    between atoms: C_2  and  C_17
REMARK    3  A    between atoms: C_17  and  N_18
REMARK    4  A    between atoms: N_18  and  C_21
REMARK                            x       y       z     vdW  Elec       q    Type
REMARK                         _______ _______ _______ _____ _____    ______ ____
ROOT
ATOM      1  C   UNL     1      34.825 -19.393 -21.639  0.00  0.00    -0.000 C 
ATOM      2  C   UNL     1      34.829 -17.085 -22.348  0.00  0.00    -0.003 C 
ATOM      3  C   UNL     1      34.831 -18.035 -21.326  0.00  0.00    -0.003 C 
ATOM      4  C   UNL     1      34.817 -19.804 -22.971  0.00  0.00    -0.000 C 
ATOM      5  C   UNL     1      34.820 -17.495 -23.682  0.00  0.00    -0.003 C 
ATOM      6  C   UNL     1      34.813 -18.855 -23.993  0.00  0.00    -0.000 C 
ENDROOT
BRANCH   1   8
ATOM      7  N   UNL     1      32.634 -22.433 -18.379  0.00  0.00    -0.312 N 
ATOM      8  C   UNL     1      34.826 -20.379 -20.578  0.00  0.00    +0.001 C 
ATOM      9  C   UNL     1      33.655 -21.802 -19.053  0.00  0.00    +0.048 C 
ATOM     10  C   UNL     1      34.855 -22.284 -18.526  0.00  0.00    +0.015 C 
ATOM     11  C   UNL     1      33.610 -20.850 -20.077  0.00  0.00    +0.015 C 
ATOM     12  C   UNL     1      36.040 -20.842 -20.071  0.00  0.00    +0.000 C 
ATOM     13  C   UNL     1      36.070 -21.794 -19.045  0.00  0.00    +0.001 C 
ATOM     14  C   UNL     1      34.517 -23.227 -17.515  0.00  0.00    +0.017 C 
ATOM     15  C   UNL     1      33.146 -23.296 -17.448  0.00  0.00    +0.062 C 
ATOM     16  H   UNL     1      31.674 -22.286 -18.544  0.00  0.00    +0.152 HD
ENDBRANCH   1   8
BRANCH   2  17
ATOM     17  C   UNL     1      34.834 -15.631 -22.017  0.00  0.00    +0.114 C 
BRANCH  17  18
ATOM     18  N   UNL     1      33.860 -14.892 -22.779  0.00  0.00    -0.327 N 
ATOM     19  H   UNL     1      33.661 -15.195 -23.694  0.00  0.00    +0.147 HD
BRANCH  18  21
ATOM     20  N   UNL     1      32.653 -11.406 -22.445  0.00  0.00    -0.228 NA
ATOM     21  C   UNL     1      33.187 -13.778 -22.298  0.00  0.00    +0.077 C 
ATOM     22  C   UNL     1      33.293 -12.514 -22.883  0.00  0.00    +0.139 C 
ATOM     23  C   UNL     1      32.351 -13.880 -21.178  0.00  0.00    +0.019 C 
ATOM     24  C   UNL     1      31.677 -12.763 -20.698  0.00  0.00    +0.022 C 
ATOM     25  C   UNL     1      31.859 -11.560 -21.361  0.00  0.00    +0.100 C 
ATOM     26  N   UNL     1      34.134 -12.385 -24.016  0.00  0.00    -0.342 N 
ATOM     27  H   UNL     1      34.235 -11.510 -24.457  0.00  0.00    +0.144 HD
ATOM     28  H   UNL     1      34.617 -13.169 -24.364  0.00  0.00    +0.144 HD
ENDBRANCH  18  21
ENDBRANCH  17  18
ENDBRANCH   2  17
TORSDOF 4
ENDMDL
MODEL 2
REMARK VINA RESULT:     -11.5      1.920      8.919
REMARK  Name = 11507920
REMARK  4 active torsions:
REMARK  status: ('A' for Active; 'I' for Inactive)
REMARK    1  A    between atoms: C_1  and  C_8
REMARK    2  A    between atoms: C_2  and  C_17
REMARK    3  A    between atoms: C_17  and  N_18
REMARK    4  A    between atoms: N_18  and  C_21
REMARK                            x       y       z     vdW  Elec       q    Type
REMARK                         _______ _______ _______ _____ _____    ______ ____
ROOT
ATOM      1  C   UNL     1      35.376 -19.799 -20.734  0.00  0.00    -0.000 C 
ATOM      2  C   UNL     1      34.489 -21.671 -19.492  0.00  0.00    -0.003 C 
ATOM      3  C   UNL     1      34.287 -20.562 -20.314  0.00  0.00    -0.003 C 
ATOM      4  C   UNL     1      36.666 -20.142 -20.333  0.00  0.00    -0.000 C 
ATOM      5  C   UNL     1      35.780 -22.016 -19.091  0.00  0.00    -0.003 C 
ATOM      6  C   UNL     1      36.869 -21.250 -19.510  0.00  0.00    -0.000 C 
ENDROOT
BRANCH   1   8
ATOM      7  N   UNL     1      34.554 -14.974 -21.581  0.00  0.00    -0.312 N 
ATOM      8  C   UNL     1      35.166 -18.646 -21.586  0.00  0.00    +0.001 C 
ATOM      9  C   UNL     1      34.770 -16.304 -21.864  0.00  0.00    +0.048 C 
ATOM     10  C   UNL     1      34.762 -16.434 -23.255  0.00  0.00    +0.015 C 
ATOM     11  C   UNL     1      34.969 -17.391 -21.006  0.00  0.00    +0.015 C 
ATOM     12  C   UNL     1      35.164 -18.807 -22.971  0.00  0.00    +0.000 C 
ATOM     13  C   UNL     1      34.963 -17.711 -23.818  0.00  0.00    +0.001 C 
ATOM     14  C   UNL     1      34.536 -15.137 -23.794  0.00  0.00    +0.017 C 
ATOM     15  C   UNL     1      34.411 -14.262 -22.741  0.00  0.00    +0.062 C 
ATOM     16  H   UNL     1      34.509 -14.591 -20.675  0.00  0.00    +0.152 HD
ENDBRANCH   1   8
BRANCH   2  17
ATOM     17  C   UNL     1      33.326 -22.488 -19.042  0.00  0.00    +0.114 C 
BRANCH  17  18
ATOM     18  N   UNL     1      33.706 -23.507 -18.098  0.00  0.00    -0.327 N 
ATOM     19  H   UNL     1      34.315 -24.219 -18.403  0.00  0.00    +0.147 HD
BRANCH  18  21
ATOM     20  N   UNL     1      33.724 -23.831 -14.408  0.00  0.00    -0.228 NA
ATOM     21  C   UNL     1      33.264 -23.545 -16.782  0.00  0.00    +0.077 C 
ATOM     22  C   UNL     1      34.115 -23.788 -15.702  0.00  0.00    +0.139 C 
ATOM     23  C   UNL     1      31.913 -23.331 -16.479  0.00  0.00    +0.019 C 
ATOM     24  C   UNL     1      31.473 -23.369 -15.161  0.00  0.00    +0.022 C 
ATOM     25  C   UNL     1      32.409 -23.620 -14.171  0.00  0.00    +0.100 C 
ATOM     26  N   UNL     1      35.487 -24.008 -15.983  0.00  0.00    -0.342 N 
ATOM     27  H   UNL     1      36.117 -24.183 -15.247  0.00  0.00    +0.144 HD
ATOM     28  H   UNL     1      35.809 -23.985 -16.912  0.00  0.00    +0.144 HD
ENDBRANCH  18  21
ENDBRANCH  17  18
ENDBRANCH   2  17
TORSDOF 4
ENDMDL
MODEL 3
REMARK VINA RESULT:     -11.3      1.655      2.753
REMARK  Name = 11507920
REMARK  4 active torsions:
REMARK  status: ('A' for Active; 'I' for Inactive)
REMARK    1  A    between atoms: C_1  and  C_8
REMARK    2  A    between atoms: C_2  and  C_17
REMARK    3  A    between atoms: C_17  and  N_18
REMARK    4  A    between atoms: N_18  and  C_21
REMARK                            x       y       z     vdW  Elec       q    Type
REMARK                         _______ _______ _______ _____ _____    ______ ____
ROOT
ATOM      1  C   UNL     1      35.447 -20.286 -20.606  0.00  0.00    -0.000 C 
ATOM      2  C   UNL     1      35.434 -18.973 -22.634  0.00  0.00    -0.003 C 
ATOM      3  C   UNL     1      34.769 -19.789 -21.719  0.00  0.00    -0.003 C 
ATOM      4  C   UNL     1      36.790 -19.968 -20.407  0.00  0.00    -0.000 C 
ATOM      5  C   UNL     1      36.778 -18.655 -22.436  0.00  0.00    -0.003 C 
ATOM      6  C   UNL     1      37.456 -19.153 -21.322  0.00  0.00    -0.000 C 
ENDROOT
BRANCH   1   8
ATOM      7  N   UNL     1      35.245 -23.475 -16.804  0.00  0.00    -0.312 N 
ATOM      8  C   UNL     1      34.756 -21.134 -19.657  0.00  0.00    +0.001 C 
ATOM      9  C   UNL     1      34.790 -22.665 -17.820  0.00  0.00    +0.048 C 
ATOM     10  C   UNL     1      33.397 -22.768 -17.834  0.00  0.00    +0.015 C 
ATOM     11  C   UNL     1      35.496 -21.858 -18.718  0.00  0.00    +0.015 C 
ATOM     12  C   UNL     1      33.365 -21.217 -19.695  0.00  0.00    +0.000 C 
ATOM     13  C   UNL     1      32.672 -22.030 -18.791  0.00  0.00    +0.001 C 
ATOM     14  C   UNL     1      33.035 -23.666 -16.792  0.00  0.00    +0.017 C 
ATOM     15  C   UNL     1      34.192 -24.084 -16.178  0.00  0.00    +0.062 C 
ATOM     16  H   UNL     1      36.192 -23.598 -16.564  0.00  0.00    +0.152 HD
ENDBRANCH   1   8
BRANCH   2  17
ATOM     17  C   UNL     1      34.711 -18.441 -23.825  0.00  0.00    +0.114 C 
BRANCH  17  18
ATOM     18  N   UNL     1      35.141 -17.113 -24.177  0.00  0.00    -0.327 N 
ATOM     19  H   UNL     1      35.916 -17.019 -24.778  0.00  0.00    +0.147 HD
BRANCH  18  21
ATOM     20  N   UNL     1      33.049 -14.057 -24.099  0.00  0.00    -0.228 NA
ATOM     21  C   UNL     1      34.526 -15.955 -23.719  0.00  0.00    +0.077 C 
ATOM     22  C   UNL     1      33.667 -15.187 -24.509  0.00  0.00    +0.139 C 
ATOM     23  C   UNL     1      34.747 -15.502 -22.412  0.00  0.00    +0.019 C 
ATOM     24  C   UNL     1      34.130 -14.343 -21.955  0.00  0.00    +0.022 C 
ATOM     25  C   UNL     1      33.297 -13.663 -22.830  0.00  0.00    +0.100 C 
ATOM     26  N   UNL     1      33.429 -15.625 -25.836  0.00  0.00    -0.342 N 
ATOM     27  H   UNL     1      32.829 -15.111 -26.423  0.00  0.00    +0.144 HD
ATOM     28  H   UNL     1      33.861 -16.444 -26.170  0.00  0.00    +0.144 HD
ENDBRANCH  18  21
ENDBRANCH  17  18
ENDBRANCH   2  17
TORSDOF 4
ENDMDL
MODEL 4
REMARK VINA RESULT:     -11.0      1.422      8.499
REMARK  Name = 11507920
REMARK  4 active torsions:
REMARK  status: ('A' for Active; 'I' for Inactive)
REMARK    1  A    between atoms: C_1  and  C_8
REMARK    2  A    between atoms: C_2  and  C_17
REMARK    3  A    between atoms: C_17  and  N_18
REMARK    4  A    between atoms: N_18  and  C_21
REMARK                            x       y       z     vdW  Elec       q    Type
REMARK                         _______ _______ _______ _____ _____    ______ ____
ROOT
ATOM      1  C   UNL     1      34.015 -15.529 -22.291  0.00  0.00    -0.000 C 
ATOM      2  C   UNL     1      35.205 -17.601 -21.940  0.00  0.00    -0.003 C 
ATOM      3  C   UNL     1      34.515 -16.502 -21.427  0.00  0.00    -0.003 C 
ATOM      4  C   UNL     1      34.204 -15.652 -23.666  0.00  0.00    -0.000 C 
ATOM      5  C   UNL     1      35.395 -17.725 -23.316  0.00  0.00    -0.003 C 
ATOM      6  C   UNL     1      34.894 -16.749 -24.180  0.00  0.00    -0.000 C 
ENDROOT
BRANCH   1   8
ATOM      7  N   UNL     1      32.351 -10.851 -22.432  0.00  0.00    -0.312 N 
ATOM      8  C   UNL     1      33.300 -14.387 -21.758  0.00  0.00    +0.001 C 
ATOM      9  C   UNL     1      32.558 -12.121 -21.942  0.00  0.00    +0.048 C 
ATOM     10  C   UNL     1      31.912 -12.195 -20.706  0.00  0.00    +0.015 C 
ATOM     11  C   UNL     1      33.259 -13.199 -22.493  0.00  0.00    +0.015 C 
ATOM     12  C   UNL     1      32.665 -14.490 -20.521  0.00  0.00    +0.000 C 
ATOM     13  C   UNL     1      31.968 -13.403 -19.982  0.00  0.00    +0.001 C 
ATOM     14  C   UNL     1      31.312 -10.926 -20.473  0.00  0.00    +0.017 C 
ATOM     15  C   UNL     1      31.600 -10.122 -21.551  0.00  0.00    +0.062 C 
ATOM     16  H   UNL     1      32.695 -10.516 -23.292  0.00  0.00    +0.152 HD
ENDBRANCH   1   8
BRANCH   2  17
ATOM     17  C   UNL     1      35.742 -18.643 -21.017  0.00  0.00    +0.114 C 
BRANCH  17  18
ATOM     18  N   UNL     1      35.118 -19.925 -21.220  0.00  0.00    -0.327 N 
ATOM     19  H   UNL     1      34.858 -20.176 -22.136  0.00  0.00    +0.147 HD
BRANCH  18  21
ATOM     20  N   UNL     1      33.281 -22.046 -18.802  0.00  0.00    -0.228 NA
ATOM     21  C   UNL     1      34.862 -20.830 -20.198  0.00  0.00    +0.077 C 
ATOM     22  C   UNL     1      33.571 -21.171 -19.790  0.00  0.00    +0.139 C 
ATOM     23  C   UNL     1      35.917 -21.453 -19.519  0.00  0.00    +0.019 C 
ATOM     24  C   UNL     1      35.659 -22.358 -18.496  0.00  0.00    +0.022 C 
ATOM     25  C   UNL     1      34.336 -22.619 -18.178  0.00  0.00    +0.100 C 
ATOM     26  N   UNL     1      32.486 -20.552 -20.461  0.00  0.00    -0.342 N 
ATOM     27  H   UNL     1      31.561 -20.767 -20.203  0.00  0.00    +0.144 HD
ATOM     28  H   UNL     1      32.657 -19.909 -21.186  0.00  0.00    +0.144 HD
ENDBRANCH  18  21
ENDBRANCH  17  18
ENDBRANCH   2  17
TORSDOF 4
ENDMDL
MODEL 5
REMARK VINA RESULT:     -11.0      4.663     11.058
REMARK  Name = 11507920
REMARK  4 active torsions:
REMARK  status: ('A' for Active; 'I' for Inactive)
REMARK    1  A    between atoms: C_1  and  C_8
REMARK    2  A    between atoms: C_2  and  C_17
REMARK    3  A    between atoms: C_17  and  N_18
REMARK    4  A    between atoms: N_18  and  C_21
REMARK                            x       y       z     vdW  Elec       q    Type
REMARK                         _______ _______ _______ _____ _____    ______ ____
ROOT
ATOM      1  C   UNL     1      33.546 -23.039 -16.867  0.00  0.00    -0.000 C 
ATOM      2  C   UNL     1      33.681 -24.161 -14.732  0.00  0.00    -0.003 C 
ATOM      3  C   UNL     1      34.304 -23.501 -15.792  0.00  0.00    -0.003 C 
ATOM      4  C   UNL     1      32.166 -23.236 -16.885  0.00  0.00    -0.000 C 
ATOM      5  C   UNL     1      32.301 -24.358 -14.749  0.00  0.00    -0.003 C 
ATOM      6  C   UNL     1      31.543 -23.897 -15.826  0.00  0.00    -0.000 C 
ENDROOT
BRANCH   1   8
ATOM      7  N   UNL     1      33.579 -20.294 -21.006  0.00  0.00    -0.312 N 
ATOM      8  C   UNL     1      34.194 -22.355 -17.968  0.00  0.00    +0.001 C 
ATOM      9  C   UNL     1      34.078 -21.029 -19.955  0.00  0.00    +0.048 C 
ATOM     10  C   UNL     1      35.469 -21.042 -20.087  0.00  0.00    +0.015 C 
ATOM     11  C   UNL     1      33.414 -21.676 -18.907  0.00  0.00    +0.015 C 
ATOM     12  C   UNL     1      35.583 -22.386 -18.074  0.00  0.00    +0.000 C 
ATOM     13  C   UNL     1      36.235 -21.735 -19.127  0.00  0.00    +0.001 C 
ATOM     14  C   UNL     1      35.784 -20.290 -21.253  0.00  0.00    +0.017 C 
ATOM     15  C   UNL     1      34.602 -19.844 -21.796  0.00  0.00    +0.062 C 
ATOM     16  H   UNL     1      32.623 -20.118 -21.167  0.00  0.00    +0.152 HD
ENDBRANCH   1   8
BRANCH   2  17
ATOM     17  C   UNL     1      34.490 -24.656 -13.581  0.00  0.00    +0.114 C 
BRANCH  17  18
ATOM     18  N   UNL     1      35.237 -25.844 -13.908  0.00  0.00    -0.327 N 
ATOM     19  H   UNL     1      34.740 -26.630 -14.231  0.00  0.00    +0.147 HD
BRANCH  18  21
ATOM     20  N   UNL     1      38.736 -26.868 -14.559  0.00  0.00    -0.228 NA
ATOM     21  C   UNL     1      36.617 -25.944 -13.795  0.00  0.00    +0.077 C 
ATOM     22  C   UNL     1      37.392 -26.744 -14.637  0.00  0.00    +0.139 C 
ATOM     23  C   UNL     1      37.303 -25.227 -12.807  0.00  0.00    +0.019 C 
ATOM     24  C   UNL     1      38.685 -25.328 -12.695  0.00  0.00    +0.022 C 
ATOM     25  C   UNL     1      39.350 -26.154 -13.588  0.00  0.00    +0.100 C 
ATOM     26  N   UNL     1      36.720 -27.481 -15.643  0.00  0.00    -0.342 N 
ATOM     27  H   UNL     1      37.232 -28.057 -16.257  0.00  0.00    +0.144 HD
ATOM     28  H   UNL     1      35.742 -27.418 -15.731  0.00  0.00    +0.144 HD
ENDBRANCH  18  21
ENDBRANCH  17  18
ENDBRANCH   2  17
TORSDOF 4
ENDMDL
MODEL 6
REMARK VINA RESULT:     -11.0      1.483      2.385
REMARK  Name = 11507920
REMARK  4 active torsions:
REMARK  status: ('A' for Active; 'I' for Inactive)
REMARK    1  A    between atoms: C_1  and  C_8
REMARK    2  A    between atoms: C_2  and  C_17
REMARK    3  A    between atoms: C_17  and  N_18
REMARK    4  A    between atoms: N_18  and  C_21
REMARK                            x       y       z     vdW  Elec       q    Type
REMARK                         _______ _______ _______ _____ _____    ______ ____
ROOT
ATOM      1  C   UNL     1      35.059 -17.804 -22.708  0.00  0.00    -0.000 C 
ATOM      2  C   UNL     1      34.470 -15.520 -23.229  0.00  0.00    -0.003 C 
ATOM      3  C   UNL     1      34.868 -16.484 -22.302  0.00  0.00    -0.003 C 
ATOM      4  C   UNL     1      34.853 -18.163 -24.039  0.00  0.00    -0.000 C 
ATOM      5  C   UNL     1      34.263 -15.878 -24.562  0.00  0.00    -0.003 C 
ATOM      6  C   UNL     1      34.454 -17.200 -24.966  0.00  0.00    -0.000 C 
ENDROOT
BRANCH   1   8
ATOM      7  N   UNL     1      34.252 -21.580 -19.584  0.00  0.00    -0.312 N 
ATOM      8  C   UNL     1      35.471 -18.804 -21.745  0.00  0.00    +0.001 C 
ATOM      9  C   UNL     1      34.955 -20.617 -20.273  0.00  0.00    +0.048 C 
ATOM     10  C   UNL     1      36.293 -20.730 -19.885  0.00  0.00    +0.015 C 
ATOM     11  C   UNL     1      34.516 -19.666 -21.199  0.00  0.00    +0.015 C 
ATOM     12  C   UNL     1      36.813 -18.893 -21.377  0.00  0.00    +0.000 C 
ATOM     13  C   UNL     1      37.238 -19.849 -20.448  0.00  0.00    +0.001 C 
ATOM     14  C   UNL     1      36.365 -21.793 -18.942  0.00  0.00    +0.017 C 
ATOM     15  C   UNL     1      35.096 -22.295 -18.778  0.00  0.00    +0.062 C 
ATOM     16  H   UNL     1      33.282 -21.733 -19.662  0.00  0.00    +0.152 HD
ENDBRANCH   1   8
BRANCH   2  17
ATOM     17  C   UNL     1      34.265 -14.108 -22.797  0.00  0.00    +0.114 C 
BRANCH  17  18
ATOM     18  N   UNL     1      32.871 -13.776 -22.658  0.00  0.00    -0.327 N 
ATOM     19  H   UNL     1      32.228 -14.207 -23.266  0.00  0.00    +0.147 HD
BRANCH  18  21
ATOM     20  N   UNL     1      31.640 -12.400 -19.447  0.00  0.00    -0.228 NA
ATOM     21  C   UNL     1      32.380 -12.882 -21.716  0.00  0.00    +0.077 C 
ATOM     22  C   UNL     1      32.116 -13.241 -20.392  0.00  0.00    +0.139 C 
ATOM     23  C   UNL     1      32.127 -11.549 -22.064  0.00  0.00    +0.019 C 
ATOM     24  C   UNL     1      31.636 -10.655 -21.119  0.00  0.00    +0.022 C 
ATOM     25  C   UNL     1      31.412 -11.126 -19.835  0.00  0.00    +0.100 C 
ATOM     26  N   UNL     1      32.363 -14.585 -20.016  0.00  0.00    -0.342 N 
ATOM     27  H   UNL     1      32.189 -14.877 -19.091  0.00  0.00    +0.144 HD
ATOM     28  H   UNL     1      32.709 -15.227 -20.677  0.00  0.00    +0.144 HD
ENDBRANCH  18  21
ENDBRANCH  17  18
ENDBRANCH   2  17
TORSDOF 4
ENDMDL
MODEL 7
REMARK VINA RESULT:     -10.9      2.278      4.006
REMARK  Name = 11507920
REMARK  4 active torsions:
REMARK  status: ('A' for Active; 'I' for Inactive)
REMARK    1  A    between atoms: C_1  and  C_8
REMARK    2  A    between atoms: C_2  and  C_17
REMARK    3  A    between atoms: C_17  and  N_18
REMARK    4  A    between atoms: N_18  and  C_21
REMARK                            x       y       z     vdW  Elec       q    Type
REMARK                         _______ _______ _______ _____ _____    ______ ____
ROOT
ATOM      1  C   UNL     1      35.033 -21.628 -18.788  0.00  0.00    -0.000 C 
ATOM      2  C   UNL     1      35.214 -20.167 -20.703  0.00  0.00    -0.003 C 
ATOM      3  C   UNL     1      35.805 -20.818 -19.619  0.00  0.00    -0.003 C 
ATOM      4  C   UNL     1      33.670 -21.788 -19.036  0.00  0.00    -0.000 C 
ATOM      5  C   UNL     1      33.850 -20.326 -20.952  0.00  0.00    -0.003 C 
ATOM      6  C   UNL     1      33.078 -21.136 -20.118  0.00  0.00    -0.000 C 
ENDROOT
BRANCH   1   8
ATOM      7  N   UNL     1      35.011 -24.686 -14.874  0.00  0.00    -0.312 N 
ATOM      8  C   UNL     1      35.646 -22.303 -17.663  0.00  0.00    +0.001 C 
ATOM      9  C   UNL     1      35.509 -23.799 -15.801  0.00  0.00    +0.048 C 
ATOM     10  C   UNL     1      36.856 -23.595 -15.493  0.00  0.00    +0.015 C 
ATOM     11  C   UNL     1      34.878 -23.167 -16.878  0.00  0.00    +0.015 C 
ATOM     12  C   UNL     1      36.993 -22.080 -17.379  0.00  0.00    +0.000 C 
ATOM     13  C   UNL     1      37.611 -22.719 -16.298  0.00  0.00    +0.001 C 
ATOM     14  C   UNL     1      37.147 -24.391 -14.350  0.00  0.00    +0.017 C 
ATOM     15  C   UNL     1      35.993 -25.049 -13.993  0.00  0.00    +0.062 C 
ATOM     16  H   UNL     1      34.082 -25.012 -14.848  0.00  0.00    +0.152 HD
ENDBRANCH   1   8
BRANCH   2  17
ATOM     17  C   UNL     1      36.038 -19.301 -21.594  0.00  0.00    +0.114 C 
BRANCH  17  18
ATOM     18  N   UNL     1      35.230 -18.478 -22.457  0.00  0.00    -0.327 N 
ATOM     19  H   UNL     1      34.834 -18.894 -23.257  0.00  0.00    +0.147 HD
BRANCH  18  21
ATOM     20  N   UNL     1      34.758 -14.853 -23.053  0.00  0.00    -0.228 NA
ATOM     21  C   UNL     1      34.976 -17.133 -22.226  0.00  0.00    +0.077 C 
ATOM     22  C   UNL     1      35.000 -16.170 -23.238  0.00  0.00    +0.139 C 
ATOM     23  C   UNL     1      34.678 -16.676 -20.935  0.00  0.00    +0.019 C 
ATOM     24  C   UNL     1      34.424 -15.329 -20.706  0.00  0.00    +0.022 C 
ATOM     25  C   UNL     1      34.475 -14.465 -21.789  0.00  0.00    +0.100 C 
ATOM     26  N   UNL     1      35.301 -16.608 -24.552  0.00  0.00    -0.342 N 
ATOM     27  H   UNL     1      35.326 -15.959 -25.292  0.00  0.00    +0.144 HD
ATOM     28  H   UNL     1      35.483 -17.559 -24.725  0.00  0.00    +0.144 HD
ENDBRANCH  18  21
ENDBRANCH  17  18
ENDBRANCH   2  17
TORSDOF 4
ENDMDL
MODEL 8
REMARK VINA RESULT:     -10.9      4.862      8.270
REMARK  Name = 11507920
REMARK  4 active torsions:
REMARK  status: ('A' for Active; 'I' for Inactive)
REMARK    1  A    between atoms: C_1  and  C_8
REMARK    2  A    between atoms: C_2  and  C_17
REMARK    3  A    between atoms: C_17  and  N_18
REMARK    4  A    between atoms: N_18  and  C_21
REMARK                            x       y       z     vdW  Elec       q    Type
REMARK                         _______ _______ _______ _____ _____    ______ ____
ROOT
ATOM      1  C   UNL     1      34.663 -23.729 -14.806  0.00  0.00    -0.000 C 
ATOM      2  C   UNL     1      36.316 -22.711 -16.244  0.00  0.00    -0.003 C 
ATOM      3  C   UNL     1      35.012 -23.157 -16.029  0.00  0.00    -0.003 C 
ATOM      4  C   UNL     1      35.617 -23.857 -13.798  0.00  0.00    -0.000 C 
ATOM      5  C   UNL     1      37.271 -22.838 -15.235  0.00  0.00    -0.003 C 
ATOM      6  C   UNL     1      36.922 -23.412 -14.012  0.00  0.00    -0.000 C 
ENDROOT
BRANCH   1   8
ATOM      7  N   UNL     1      29.814 -23.984 -15.848  0.00  0.00    -0.312 N 
ATOM      8  C   UNL     1      33.309 -24.193 -14.585  0.00  0.00    +0.001 C 
ATOM      9  C   UNL     1      30.995 -24.234 -15.187  0.00  0.00    +0.048 C 
ATOM     10  C   UNL     1      30.700 -25.104 -14.135  0.00  0.00    +0.015 C 
ATOM     11  C   UNL     1      32.288 -23.762 -15.436  0.00  0.00    +0.015 C 
ATOM     12  C   UNL     1      33.045 -25.061 -13.527  0.00  0.00    +0.000 C 
ATOM     13  C   UNL     1      31.746 -25.525 -13.289  0.00  0.00    +0.001 C 
ATOM     14  C   UNL     1      29.303 -25.367 -14.190  0.00  0.00    +0.017 C 
ATOM     15  C   UNL     1      28.787 -24.664 -15.253  0.00  0.00    +0.062 C 
ATOM     16  H   UNL     1      29.722 -23.400 -16.636  0.00  0.00    +0.152 HD
ENDBRANCH   1   8
BRANCH   2  17
ATOM     17  C   UNL     1      36.691 -22.099 -17.551  0.00  0.00    +0.114 C 
BRANCH  17  18
ATOM     18  N   UNL     1      35.835 -22.535 -18.624  0.00  0.00    -0.327 N 
ATOM     19  H   UNL     1      35.790 -23.499 -18.820  0.00  0.00    +0.147 HD
BRANCH  18  21
ATOM     20  N   UNL     1      32.894 -20.901 -20.173  0.00  0.00    -0.228 NA
ATOM     21  C   UNL     1      35.069 -21.674 -19.399  0.00  0.00    +0.077 C 
ATOM     22  C   UNL     1      33.674 -21.721 -19.434  0.00  0.00    +0.139 C 
ATOM     23  C   UNL     1      35.682 -20.698 -20.195  0.00  0.00    +0.019 C 
ATOM     24  C   UNL     1      34.914 -19.837 -20.970  0.00  0.00    +0.022 C 
ATOM     25  C   UNL     1      33.536 -19.977 -20.924  0.00  0.00    +0.100 C 
ATOM     26  N   UNL     1      33.030 -22.701 -18.638  0.00  0.00    -0.342 N 
ATOM     27  H   UNL     1      32.048 -22.766 -18.635  0.00  0.00    +0.144 HD
ATOM     28  H   UNL     1      33.565 -23.317 -18.086  0.00  0.00    +0.144 HD
ENDBRANCH  18  21
ENDBRANCH  17  18
ENDBRANCH   2  17
TORSDOF 4
ENDMDL
MODEL 9
REMARK VINA RESULT:     -10.9      2.747      9.522
REMARK  Name = 11507920
REMARK  4 active torsions:
REMARK  status: ('A' for Active; 'I' for Inactive)
REMARK    1  A    between atoms: C_1  and  C_8
REMARK    2  A    between atoms: C_2  and  C_17
REMARK    3  A    between atoms: C_17  and  N_18
REMARK    4  A    between atoms: N_18  and  C_21
REMARK                            x       y       z     vdW  Elec       q    Type
REMARK                         _______ _______ _______ _____ _____    ______ ____
ROOT
ATOM      1  C   UNL     1      34.687 -20.614 -20.281  0.00  0.00    -0.000 C 
ATOM      2  C   UNL     1      35.765 -21.898 -18.542  0.00  0.00    -0.003 C 
ATOM      3  C   UNL     1      35.838 -20.962 -19.575  0.00  0.00    -0.003 C 
ATOM      4  C   UNL     1      33.465 -21.201 -19.958  0.00  0.00    -0.000 C 
ATOM      5  C   UNL     1      34.543 -22.486 -18.218  0.00  0.00    -0.003 C 
ATOM      6  C   UNL     1      33.392 -22.138 -18.927  0.00  0.00    -0.000 C 
ENDROOT
BRANCH   1   8
ATOM      7  N   UNL     1      34.934 -16.002 -22.107  0.00  0.00    -0.312 N 
ATOM      8  C   UNL     1      34.763 -19.644 -21.354  0.00  0.00    +0.001 C 
ATOM      9  C   UNL     1      34.879 -17.378 -22.110  0.00  0.00    +0.048 C 
ATOM     10  C   UNL     1      34.908 -17.787 -23.445  0.00  0.00    +0.015 C 
ATOM     11  C   UNL     1      34.806 -18.282 -21.044  0.00  0.00    +0.015 C 
ATOM     12  C   UNL     1      34.790 -20.082 -22.676  0.00  0.00    +0.000 C 
ATOM     13  C   UNL     1      34.862 -19.166 -23.732  0.00  0.00    +0.001 C 
ATOM     14  C   UNL     1      34.983 -16.610 -24.240  0.00  0.00    +0.017 C 
ATOM     15  C   UNL     1      34.997 -15.530 -23.390  0.00  0.00    +0.062 C 
ATOM     16  H   UNL     1      34.929 -15.440 -21.299  0.00  0.00    +0.152 HD
ENDBRANCH   1   8
BRANCH   2  17
ATOM     17  C   UNL     1      36.995 -22.272 -17.785  0.00  0.00    +0.114 C 
BRANCH  17  18
ATOM     18  N   UNL     1      36.834 -22.103 -16.364  0.00  0.00    -0.327 N 
ATOM     19  H   UNL     1      36.619 -21.204 -16.025  0.00  0.00    +0.147 HD
BRANCH  18  21
ATOM     20  N   UNL     1      36.025 -24.521 -13.678  0.00  0.00    -0.228 NA
ATOM     21  C   UNL     1      36.966 -23.134 -15.444  0.00  0.00    +0.077 C 
ATOM     22  C   UNL     1      35.936 -23.523 -14.585  0.00  0.00    +0.139 C 
ATOM     23  C   UNL     1      38.169 -23.845 -15.340  0.00  0.00    +0.019 C 
ATOM     24  C   UNL     1      38.299 -24.878 -14.419  0.00  0.00    +0.022 C 
ATOM     25  C   UNL     1      37.207 -25.175 -13.618  0.00  0.00    +0.100 C 
ATOM     26  N   UNL     1      34.710 -22.817 -14.670  0.00  0.00    -0.342 N 
ATOM     27  H   UNL     1      33.960 -23.062 -14.081  0.00  0.00    +0.144 HD
ATOM     28  H   UNL     1      34.607 -22.084 -15.318  0.00  0.00    +0.144 HD
ENDBRANCH  18  21
ENDBRANCH  17  18
ENDBRANCH   2  17
TORSDOF 4
ENDMDL
