MODEL 1
REMARK VINA RESULT:     -11.4      0.000      0.000
REMARK  Name = 9799284
REMARK  5 active torsions:
REMARK  status: ('A' for Active; 'I' for Inactive)
REMARK    1  A    between atoms: N_1  and  C_19
REMARK    2  A    between atoms: C_2  and  C_8
REMARK    3  A    between atoms: C_8  and  N_10
REMARK    4  A    between atoms: C_19  and  C_21
REMARK    5  A    between atoms: C_21  and  C_23
REMARK                            x       y       z     vdW  Elec       q    Type
REMARK                         _______ _______ _______ _____ _____    ______ ____
ROOT
ATOM      1  N   UNL     1      34.296 -16.371 -21.492  0.00  0.00    +0.392 N 
ATOM      2  C   UNL     1      32.996 -13.746 -21.618  0.00  0.00    +0.016 C 
ATOM      3  C   UNL     1      33.474 -14.488 -22.871  0.00  0.00    -0.021 C 
ATOM      4  C   UNL     1      32.712 -14.751 -20.497  0.00  0.00    -0.021 C 
ATOM      5  C   UNL     1      34.647 -15.417 -22.553  0.00  0.00    -0.077 C 
ATOM      6  C   UNL     1      33.910 -15.672 -20.258  0.00  0.00    -0.077 C 
ATOM      7  H   UNL     1      33.494 -16.914 -21.810  0.00  0.00    -0.079 HD
ENDROOT
BRANCH   2   8
ATOM      8  C   UNL     1      31.764 -12.897 -21.920  0.00  0.00    +0.094 C 
BRANCH   8  10
ATOM      9  O   UNL     1      31.052 -10.876 -19.793  0.00  0.00    -0.270 OA
ATOM     10  N   UNL     1      32.069 -11.501 -21.837  0.00  0.00    -0.272 N 
ATOM     11  C   UNL     1      32.844 -10.814 -22.874  0.00  0.00    +0.121 C 
ATOM     12  C   UNL     1      31.692 -10.638 -20.801  0.00  0.00    +0.249 C 
ATOM     13  C   UNL     1      32.903  -9.416 -22.360  0.00  0.00    +0.002 C 
ATOM     14  C   UNL     1      32.227  -9.316 -21.143  0.00  0.00    +0.051 C 
ATOM     15  C   UNL     1      33.507  -8.305 -22.916  0.00  0.00    -0.002 C 
ATOM     16  C   UNL     1      32.125  -8.130 -20.442  0.00  0.00    +0.004 C 
ATOM     17  C   UNL     1      33.419  -7.091 -22.226  0.00  0.00    -0.000 C 
ATOM     18  C   UNL     1      32.734  -7.005 -21.000  0.00  0.00    +0.000 C 
ENDBRANCH   8  10
ENDBRANCH   2   8
BRANCH   1  19
ATOM     19  C   UNL     1      35.408 -17.285 -21.236  0.00  0.00    -0.006 C 
BRANCH  19  21
ATOM     20  O   UNL     1      34.958 -18.825 -23.039  0.00  0.00    -0.294 OA
ATOM     21  C   UNL     1      35.082 -18.643 -21.830  0.00  0.00    +0.152 C 
BRANCH  21  23
ATOM     22  F   UNL     1      34.421 -22.972 -18.366  0.00  0.00    -0.204 F 
ATOM     23  C   UNL     1      34.905 -19.800 -20.902  0.00  0.00    +0.033 C 
ATOM     24  C   UNL     1      33.627 -20.185 -20.566  0.00  0.00    +0.005 C 
ATOM     25  C   UNL     1      36.026 -20.437 -20.422  0.00  0.00    +0.005 C 
ATOM     26  C   UNL     1      33.462 -21.267 -19.701  0.00  0.00    +0.030 C 
ATOM     27  C   UNL     1      35.861 -21.518 -19.558  0.00  0.00    +0.030 C 
ATOM     28  C   UNL     1      34.579 -21.933 -19.197  0.00  0.00    +0.140 C 
ENDBRANCH  21  23
ENDBRANCH  19  21
ENDBRANCH   1  19
TORSDOF 5
ENDMDL
MODEL 2
REMARK VINA RESULT:     -11.3      1.023      1.791
REMARK  Name = 9799284
REMARK  5 active torsions:
REMARK  status: ('A' for Active; 'I' for Inactive)
REMARK    1  A    between atoms: N_1  and  C_19
REMARK    2  A    between atoms: C_2  and  C_8
REMARK    3  A    between atoms: C_8  and  N_10
REMARK    4  A    between atoms: C_19  and  C_21
REMARK    5  A    between atoms: C_21  and  C_23
REMARK                            x       y       z     vdW  Elec       q    Type
REMARK                         _______ _______ _______ _____ _____    ______ ____
ROOT
ATOM      1  N   UNL     1      34.467 -16.577 -21.631  0.00  0.00    +0.392 N 
ATOM      2  C   UNL     1      33.214 -13.943 -21.921  0.00  0.00    +0.016 C 
ATOM      3  C   UNL     1      33.643 -14.787 -23.126  0.00  0.00    -0.021 C 
ATOM      4  C   UNL     1      32.942 -14.855 -20.720  0.00  0.00    -0.021 C 
ATOM      5  C   UNL     1      34.806 -15.714 -22.770  0.00  0.00    -0.077 C 
ATOM      6  C   UNL     1      34.129 -15.780 -20.444  0.00  0.00    -0.077 C 
ATOM      7  H   UNL     1      33.645 -17.126 -21.885  0.00  0.00    -0.079 HD
ENDROOT
BRANCH   2   8
ATOM      8  C   UNL     1      31.990 -13.093 -22.253  0.00  0.00    +0.094 C 
BRANCH   8  10
ATOM      9  O   UNL     1      33.736 -11.373 -24.016  0.00  0.00    -0.270 OA
ATOM     10  N   UNL     1      32.295 -11.697 -22.166  0.00  0.00    -0.272 N 
ATOM     11  C   UNL     1      31.742 -10.846 -21.108  0.00  0.00    +0.121 C 
ATOM     12  C   UNL     1      33.123 -10.982 -23.039  0.00  0.00    +0.249 C 
ATOM     13  C   UNL     1      32.326  -9.513 -21.428  0.00  0.00    +0.002 C 
ATOM     14  C   UNL     1      33.136  -9.595 -22.561  0.00  0.00    +0.051 C 
ATOM     15  C   UNL     1      32.162  -8.307 -20.773  0.00  0.00    -0.002 C 
ATOM     16  C   UNL     1      33.804  -8.504 -23.081  0.00  0.00    +0.004 C 
ATOM     17  C   UNL     1      32.828  -7.186 -21.279  0.00  0.00    -0.000 C 
ATOM     18  C   UNL     1      33.641  -7.284 -22.423  0.00  0.00    +0.000 C 
ENDBRANCH   8  10
ENDBRANCH   2   8
BRANCH   1  19
ATOM     19  C   UNL     1      35.568 -17.493 -21.336  0.00  0.00    -0.006 C 
BRANCH  19  21
ATOM     20  O   UNL     1      35.194 -19.126 -23.073  0.00  0.00    -0.294 OA
ATOM     21  C   UNL     1      35.225 -18.871 -21.871  0.00  0.00    +0.152 C 
BRANCH  21  23
ATOM     22  F   UNL     1      34.064 -22.924 -18.212  0.00  0.00    -0.204 F 
ATOM     23  C   UNL     1      34.914 -19.956 -20.893  0.00  0.00    +0.033 C 
ATOM     24  C   UNL     1      35.959 -20.633 -20.308  0.00  0.00    +0.005 C 
ATOM     25  C   UNL     1      33.596 -20.234 -20.615  0.00  0.00    +0.005 C 
ATOM     26  C   UNL     1      35.669 -21.646 -19.393  0.00  0.00    +0.030 C 
ATOM     27  C   UNL     1      33.306 -21.246 -19.700  0.00  0.00    +0.030 C 
ATOM     28  C   UNL     1      34.342 -21.952 -19.089  0.00  0.00    +0.140 C 
ENDBRANCH  21  23
ENDBRANCH  19  21
ENDBRANCH   1  19
TORSDOF 5
ENDMDL
MODEL 3
REMARK VINA RESULT:     -11.0      3.731     10.410
REMARK  Name = 9799284
REMARK  5 active torsions:
REMARK  status: ('A' for Active; 'I' for Inactive)
REMARK    1  A    between atoms: N_1  and  C_19
REMARK    2  A    between atoms: C_2  and  C_8
REMARK    3  A    between atoms: C_8  and  N_10
REMARK    4  A    between atoms: C_19  and  C_21
REMARK    5  A    between atoms: C_21  and  C_23
REMARK                            x       y       z     vdW  Elec       q    Type
REMARK                         _______ _______ _______ _____ _____    ______ ____
ROOT
ATOM      1  N   UNL     1      33.893 -13.911 -22.624  0.00  0.00    +0.392 N 
ATOM      2  C   UNL     1      34.697 -16.730 -22.560  0.00  0.00    +0.016 C 
ATOM      3  C   UNL     1      34.668 -15.913 -23.856  0.00  0.00    -0.021 C 
ATOM      4  C   UNL     1      34.883 -15.794 -21.360  0.00  0.00    -0.021 C 
ATOM      5  C   UNL     1      33.638 -14.784 -23.778  0.00  0.00    -0.077 C 
ATOM      6  C   UNL     1      33.846 -14.669 -21.366  0.00  0.00    -0.077 C 
ATOM      7  H   UNL     1      34.832 -13.524 -22.723  0.00  0.00    -0.079 HD
ENDROOT
BRANCH   2   8
ATOM      8  C   UNL     1      35.793 -17.791 -22.603  0.00  0.00    +0.094 C 
BRANCH   8  10
ATOM      9  O   UNL     1      37.656 -19.402 -20.857  0.00  0.00    -0.270 OA
ATOM     10  N   UNL     1      35.509 -18.860 -21.694  0.00  0.00    -0.272 N 
ATOM     11  C   UNL     1      34.146 -19.351 -21.476  0.00  0.00    +0.121 C 
ATOM     12  C   UNL     1      36.449 -19.552 -20.921  0.00  0.00    +0.249 C 
ATOM     13  C   UNL     1      34.350 -20.434 -20.473  0.00  0.00    +0.002 C 
ATOM     14  C   UNL     1      35.702 -20.550 -20.149  0.00  0.00    +0.051 C 
ATOM     15  C   UNL     1      33.417 -21.264 -19.881  0.00  0.00    -0.002 C 
ATOM     16  C   UNL     1      36.175 -21.477 -19.241  0.00  0.00    +0.004 C 
ATOM     17  C   UNL     1      33.869 -22.212 -18.958  0.00  0.00    -0.000 C 
ATOM     18  C   UNL     1      35.236 -22.318 -18.640  0.00  0.00    +0.000 C 
ENDBRANCH   8  10
ENDBRANCH   2   8
BRANCH   1  19
ATOM     19  C   UNL     1      32.934 -12.808 -22.594  0.00  0.00    -0.006 C 
BRANCH  19  21
ATOM     20  O   UNL     1      34.262 -11.758 -24.313  0.00  0.00    -0.294 OA
ATOM     21  C   UNL     1      33.513 -11.625 -23.349  0.00  0.00    +0.152 C 
BRANCH  21  23
ATOM     22  F   UNL     1      32.166  -6.477 -21.660  0.00  0.00    -0.204 F 
ATOM     23  C   UNL     1      33.153 -10.248 -22.896  0.00  0.00    +0.033 C 
ATOM     24  C   UNL     1      33.997  -9.209 -23.215  0.00  0.00    +0.005 C 
ATOM     25  C   UNL     1      31.992 -10.073 -22.180  0.00  0.00    +0.005 C 
ATOM     26  C   UNL     1      33.660  -7.923 -22.794  0.00  0.00    +0.030 C 
ATOM     27  C   UNL     1      31.655  -8.787 -21.758  0.00  0.00    +0.030 C 
ATOM     28  C   UNL     1      32.489  -7.712 -22.065  0.00  0.00    +0.140 C 
ENDBRANCH  21  23
ENDBRANCH  19  21
ENDBRANCH   1  19
TORSDOF 5
ENDMDL
MODEL 4
REMARK VINA RESULT:     -11.0      1.903      2.956
REMARK  Name = 9799284
REMARK  5 active torsions:
REMARK  status: ('A' for Active; 'I' for Inactive)
REMARK    1  A    between atoms: N_1  and  C_19
REMARK    2  A    between atoms: C_2  and  C_8
REMARK    3  A    between atoms: C_8  and  N_10
REMARK    4  A    between atoms: C_19  and  C_21
REMARK    5  A    between atoms: C_21  and  C_23
REMARK                            x       y       z     vdW  Elec       q    Type
REMARK                         _______ _______ _______ _____ _____    ______ ____
ROOT
ATOM      1  N   UNL     1      35.454 -17.774 -23.219  0.00  0.00    +0.392 N 
ATOM      2  C   UNL     1      33.894 -15.321 -23.599  0.00  0.00    +0.016 C 
ATOM      3  C   UNL     1      34.787 -15.546 -22.374  0.00  0.00    -0.021 C 
ATOM      4  C   UNL     1      34.405 -16.161 -24.775  0.00  0.00    -0.021 C 
ATOM      5  C   UNL     1      34.934 -17.036 -22.060  0.00  0.00    -0.077 C 
ATOM      6  C   UNL     1      34.566 -17.630 -24.381  0.00  0.00    -0.077 C 
ATOM      7  H   UNL     1      36.360 -17.375 -23.465  0.00  0.00    -0.079 HD
ENDROOT
BRANCH   2   8
ATOM      8  C   UNL     1      33.831 -13.841 -23.969  0.00  0.00    +0.094 C 
BRANCH   8  10
ATOM      9  O   UNL     1      33.485 -10.855 -23.692  0.00  0.00    -0.270 OA
ATOM     10  N   UNL     1      33.211 -13.078 -22.928  0.00  0.00    -0.272 N 
ATOM     11  C   UNL     1      32.607 -13.715 -21.754  0.00  0.00    +0.121 C 
ATOM     12  C   UNL     1      33.098 -11.683 -22.889  0.00  0.00    +0.249 C 
ATOM     13  C   UNL     1      32.104 -12.547 -20.977  0.00  0.00    +0.002 C 
ATOM     14  C   UNL     1      32.393 -11.357 -21.645  0.00  0.00    +0.051 C 
ATOM     15  C   UNL     1      31.437 -12.524 -19.767  0.00  0.00    -0.002 C 
ATOM     16  C   UNL     1      32.039 -10.117 -21.148  0.00  0.00    +0.004 C 
ATOM     17  C   UNL     1      31.067 -11.282 -19.241  0.00  0.00    -0.000 C 
ATOM     18  C   UNL     1      31.365 -10.089 -19.926  0.00  0.00    +0.000 C 
ENDBRANCH   8  10
ENDBRANCH   2   8
BRANCH   1  19
ATOM     19  C   UNL     1      35.639 -19.186 -22.887  0.00  0.00    -0.006 C 
BRANCH  19  21
ATOM     20  O   UNL     1      36.878 -18.653 -20.886  0.00  0.00    -0.294 OA
ATOM     21  C   UNL     1      35.983 -19.308 -21.414  0.00  0.00    +0.152 C 
BRANCH  21  23
ATOM     22  F   UNL     1      33.044 -22.885 -18.292  0.00  0.00    -0.204 F 
ATOM     23  C   UNL     1      35.197 -20.264 -20.578  0.00  0.00    +0.033 C 
ATOM     24  C   UNL     1      33.823 -20.196 -20.616  0.00  0.00    +0.005 C 
ATOM     25  C   UNL     1      35.876 -21.176 -19.804  0.00  0.00    +0.005 C 
ATOM     26  C   UNL     1      33.088 -21.090 -19.836  0.00  0.00    +0.030 C 
ATOM     27  C   UNL     1      35.143 -22.070 -19.025  0.00  0.00    +0.030 C 
ATOM     28  C   UNL     1      33.749 -22.027 -19.041  0.00  0.00    +0.140 C 
ENDBRANCH  21  23
ENDBRANCH  19  21
ENDBRANCH   1  19
TORSDOF 5
ENDMDL
MODEL 5
REMARK VINA RESULT:     -10.8      4.694     11.019
REMARK  Name = 9799284
REMARK  5 active torsions:
REMARK  status: ('A' for Active; 'I' for Inactive)
REMARK    1  A    between atoms: N_1  and  C_19
REMARK    2  A    between atoms: C_2  and  C_8
REMARK    3  A    between atoms: C_8  and  N_10
REMARK    4  A    between atoms: C_19  and  C_21
REMARK    5  A    between atoms: C_21  and  C_23
REMARK                            x       y       z     vdW  Elec       q    Type
REMARK                         _______ _______ _______ _____ _____    ______ ____
ROOT
ATOM      1  N   UNL     1      35.599 -19.974 -20.949  0.00  0.00    +0.392 N 
ATOM      2  C   UNL     1      34.328 -21.855 -19.094  0.00  0.00    +0.016 C 
ATOM      3  C   UNL     1      33.539 -21.103 -20.171  0.00  0.00    -0.021 C 
ATOM      4  C   UNL     1      35.794 -21.984 -19.520  0.00  0.00    -0.021 C 
ATOM      5  C   UNL     1      34.208 -19.773 -20.523  0.00  0.00    -0.077 C 
ATOM      6  C   UNL     1      36.388 -20.625 -19.894  0.00  0.00    -0.077 C 
ATOM      7  H   UNL     1      35.593 -20.590 -21.762  0.00  0.00    -0.079 HD
ENDROOT
BRANCH   2   8
ATOM      8  C   UNL     1      33.714 -23.225 -18.818  0.00  0.00    +0.094 C 
BRANCH   8  10
ATOM      9  O   UNL     1      31.275 -22.686 -17.122  0.00  0.00    -0.270 OA
ATOM     10  N   UNL     1      33.506 -23.422 -17.415  0.00  0.00    -0.272 N 
ATOM     11  C   UNL     1      34.553 -23.964 -16.545  0.00  0.00    +0.121 C 
ATOM     12  C   UNL     1      32.328 -23.139 -16.713  0.00  0.00    +0.249 C 
ATOM     13  C   UNL     1      33.885 -23.986 -15.213  0.00  0.00    +0.002 C 
ATOM     14  C   UNL     1      32.580 -23.501 -15.314  0.00  0.00    +0.051 C 
ATOM     15  C   UNL     1      34.382 -24.401 -13.992  0.00  0.00    -0.002 C 
ATOM     16  C   UNL     1      31.732 -23.411 -14.228  0.00  0.00    +0.004 C 
ATOM     17  C   UNL     1      33.544 -24.320 -12.876  0.00  0.00    -0.000 C 
ATOM     18  C   UNL     1      32.230 -23.829 -12.993  0.00  0.00    +0.000 C 
ENDBRANCH   8  10
ENDBRANCH   2   8
BRANCH   1  19
ATOM     19  C   UNL     1      36.208 -18.701 -21.331  0.00  0.00    -0.006 C 
BRANCH  19  21
ATOM     20  O   UNL     1      35.226 -18.759 -23.535  0.00  0.00    -0.294 OA
ATOM     21  C   UNL     1      35.446 -18.120 -22.509  0.00  0.00    +0.152 C 
BRANCH  21  23
ATOM     22  F   UNL     1      33.574 -12.873 -22.138  0.00  0.00    -0.204 F 
ATOM     23  C   UNL     1      34.946 -16.716 -22.409  0.00  0.00    +0.033 C 
ATOM     24  C   UNL     1      34.810 -15.983 -23.566  0.00  0.00    +0.005 C 
ATOM     25  C   UNL     1      34.641 -16.212 -21.167  0.00  0.00    +0.005 C 
ATOM     26  C   UNL     1      34.341 -14.672 -23.474  0.00  0.00    +0.030 C 
ATOM     27  C   UNL     1      34.172 -14.902 -21.074  0.00  0.00    +0.030 C 
ATOM     28  C   UNL     1      34.023 -14.131 -22.227  0.00  0.00    +0.140 C 
ENDBRANCH  21  23
ENDBRANCH  19  21
ENDBRANCH   1  19
TORSDOF 5
ENDMDL
MODEL 6
REMARK VINA RESULT:     -10.7      3.846      6.522
REMARK  Name = 9799284
REMARK  5 active torsions:
REMARK  status: ('A' for Active; 'I' for Inactive)
REMARK    1  A    between atoms: N_1  and  C_19
REMARK    2  A    between atoms: C_2  and  C_8
REMARK    3  A    between atoms: C_8  and  N_10
REMARK    4  A    between atoms: C_19  and  C_21
REMARK    5  A    between atoms: C_21  and  C_23
REMARK                            x       y       z     vdW  Elec       q    Type
REMARK                         _______ _______ _______ _____ _____    ______ ____
ROOT
ATOM      1  N   UNL     1      35.354 -21.673 -19.481  0.00  0.00    +0.392 N 
ATOM      2  C   UNL     1      35.484 -19.458 -21.398  0.00  0.00    +0.016 C 
ATOM      3  C   UNL     1      36.722 -20.259 -20.981  0.00  0.00    -0.021 C 
ATOM      4  C   UNL     1      34.227 -20.316 -21.216  0.00  0.00    -0.021 C 
ATOM      5  C   UNL     1      36.561 -20.841 -19.576  0.00  0.00    -0.077 C 
ATOM      6  C   UNL     1      34.149 -20.896 -19.803  0.00  0.00    -0.077 C 
ATOM      7  H   UNL     1      35.435 -22.425 -20.166  0.00  0.00    -0.079 HD
ENDROOT
BRANCH   2   8
ATOM      8  C   UNL     1      35.608 -18.964 -22.837  0.00  0.00    +0.094 C 
BRANCH   8  10
ATOM      9  O   UNL     1      34.532 -17.508 -25.253  0.00  0.00    -0.270 OA
ATOM     10  N   UNL     1      35.119 -17.624 -22.963  0.00  0.00    -0.272 N 
ATOM     11  C   UNL     1      35.074 -16.704 -21.823  0.00  0.00    +0.121 C 
ATOM     12  C   UNL     1      34.636 -17.033 -24.137  0.00  0.00    +0.249 C 
ATOM     13  C   UNL     1      34.505 -15.467 -22.428  0.00  0.00    +0.002 C 
ATOM     14  C   UNL     1      34.249 -15.663 -23.786  0.00  0.00    +0.051 C 
ATOM     15  C   UNL     1      34.228 -14.251 -21.834  0.00  0.00    -0.002 C 
ATOM     16  C   UNL     1      33.717 -14.677 -24.595  0.00  0.00    +0.004 C 
ATOM     17  C   UNL     1      33.689 -13.235 -22.631  0.00  0.00    -0.000 C 
ATOM     18  C   UNL     1      33.436 -13.447 -23.999  0.00  0.00    +0.000 C 
ENDBRANCH   8  10
ENDBRANCH   2   8
BRANCH   1  19
ATOM     19  C   UNL     1      35.242 -22.264 -18.149  0.00  0.00    -0.006 C 
BRANCH  19  21
ATOM     20  O   UNL     1      33.636 -23.796 -19.096  0.00  0.00    -0.294 OA
ATOM     21  C   UNL     1      34.029 -23.176 -18.111  0.00  0.00    +0.152 C 
BRANCH  21  23
ATOM     22  F   UNL     1      31.270 -23.722 -13.288  0.00  0.00    -0.204 F 
ATOM     23  C   UNL     1      33.291 -23.323 -16.821  0.00  0.00    +0.033 C 
ATOM     24  C   UNL     1      34.002 -23.651 -15.689  0.00  0.00    +0.005 C 
ATOM     25  C   UNL     1      31.930 -23.125 -16.814  0.00  0.00    +0.005 C 
ATOM     26  C   UNL     1      33.313 -23.787 -14.484  0.00  0.00    +0.030 C 
ATOM     27  C   UNL     1      31.241 -23.260 -15.611  0.00  0.00    +0.030 C 
ATOM     28  C   UNL     1      31.931 -23.591 -14.445  0.00  0.00    +0.140 C 
ENDBRANCH  21  23
ENDBRANCH  19  21
ENDBRANCH   1  19
TORSDOF 5
ENDMDL
MODEL 7
REMARK VINA RESULT:     -10.6      3.520     10.269
REMARK  Name = 9799284
REMARK  5 active torsions:
REMARK  status: ('A' for Active; 'I' for Inactive)
REMARK    1  A    between atoms: N_1  and  C_19
REMARK    2  A    between atoms: C_2  and  C_8
REMARK    3  A    between atoms: C_8  and  N_10
REMARK    4  A    between atoms: C_19  and  C_21
REMARK    5  A    between atoms: C_21  and  C_23
REMARK                            x       y       z     vdW  Elec       q    Type
REMARK                         _______ _______ _______ _____ _____    ______ ____
ROOT
ATOM      1  N   UNL     1      32.915 -13.707 -21.678  0.00  0.00    +0.392 N 
ATOM      2  C   UNL     1      34.329 -16.243 -22.082  0.00  0.00    +0.016 C 
ATOM      3  C   UNL     1      34.445 -15.071 -23.063  0.00  0.00    -0.021 C 
ATOM      4  C   UNL     1      33.961 -15.719 -20.690  0.00  0.00    -0.021 C 
ATOM      5  C   UNL     1      33.190 -14.197 -23.036  0.00  0.00    -0.077 C 
ATOM      6  C   UNL     1      32.723 -14.822 -20.741  0.00  0.00    -0.077 C 
ATOM      7  H   UNL     1      33.724 -13.170 -21.367  0.00  0.00    -0.079 HD
ENDROOT
BRANCH   2   8
ATOM      8  C   UNL     1      35.621 -17.055 -22.039  0.00  0.00    +0.094 C 
BRANCH   8  10
ATOM      9  O   UNL     1      37.633 -19.023 -20.948  0.00  0.00    -0.270 OA
ATOM     10  N   UNL     1      35.418 -18.307 -21.376  0.00  0.00    -0.272 N 
ATOM     11  C   UNL     1      34.077 -18.840 -21.118  0.00  0.00    +0.121 C 
ATOM     12  C   UNL     1      36.425 -19.157 -20.901  0.00  0.00    +0.249 C 
ATOM     13  C   UNL     1      34.370 -20.126 -20.424  0.00  0.00    +0.002 C 
ATOM     14  C   UNL     1      35.747 -20.310 -20.299  0.00  0.00    +0.051 C 
ATOM     15  C   UNL     1      33.492 -21.075 -19.935  0.00  0.00    -0.002 C 
ATOM     16  C   UNL     1      36.300 -21.422 -19.693  0.00  0.00    +0.004 C 
ATOM     17  C   UNL     1      34.025 -22.211 -19.317  0.00  0.00    -0.000 C 
ATOM     18  C   UNL     1      35.417 -22.382 -19.197  0.00  0.00    +0.000 C 
ENDBRANCH   8  10
ENDBRANCH   2   8
BRANCH   1  19
ATOM     19  C   UNL     1      31.744 -12.831 -21.678  0.00  0.00    -0.006 C 
BRANCH  19  21
ATOM     20  O   UNL     1      31.733 -12.434 -19.298  0.00  0.00    -0.294 OA
ATOM     21  C   UNL     1      31.773 -11.964 -20.432  0.00  0.00    +0.152 C 
BRANCH  21  23
ATOM     22  F   UNL     1      32.070  -6.424 -21.056  0.00  0.00    -0.204 F 
ATOM     23  C   UNL     1      31.853 -10.482 -20.599  0.00  0.00    +0.033 C 
ATOM     24  C   UNL     1      31.760  -9.957 -21.868  0.00  0.00    +0.005 C 
ATOM     25  C   UNL     1      32.015  -9.701 -19.479  0.00  0.00    +0.005 C 
ATOM     26  C   UNL     1      31.834  -8.572 -22.024  0.00  0.00    +0.030 C 
ATOM     27  C   UNL     1      32.089  -8.317 -19.634  0.00  0.00    +0.030 C 
ATOM     28  C   UNL     1      31.999  -7.753 -20.907  0.00  0.00    +0.140 C 
ENDBRANCH  21  23
ENDBRANCH  19  21
ENDBRANCH   1  19
TORSDOF 5
ENDMDL
MODEL 8
REMARK VINA RESULT:     -10.4      5.197     11.053
REMARK  Name = 9799284
REMARK  5 active torsions:
REMARK  status: ('A' for Active; 'I' for Inactive)
REMARK    1  A    between atoms: N_1  and  C_19
REMARK    2  A    between atoms: C_2  and  C_8
REMARK    3  A    between atoms: C_8  and  N_10
REMARK    4  A    between atoms: C_19  and  C_21
REMARK    5  A    between atoms: C_21  and  C_23
REMARK                            x       y       z     vdW  Elec       q    Type
REMARK                         _______ _______ _______ _____ _____    ______ ____
ROOT
ATOM      1  N   UNL     1      35.437 -19.943 -20.994  0.00  0.00    +0.392 N 
ATOM      2  C   UNL     1      34.740 -21.919 -18.943  0.00  0.00    +0.016 C 
ATOM      3  C   UNL     1      33.719 -21.389 -19.956  0.00  0.00    -0.021 C 
ATOM      4  C   UNL     1      36.154 -21.797 -19.521  0.00  0.00    -0.021 C 
ATOM      5  C   UNL     1      34.082 -19.980 -20.427  0.00  0.00    -0.077 C 
ATOM      6  C   UNL     1      36.436 -20.374 -20.007  0.00  0.00    -0.077 C 
ATOM      7  H   UNL     1      35.468 -20.594 -21.778  0.00  0.00    -0.079 HD
ENDROOT
BRANCH   2   8
ATOM      8  C   UNL     1      34.429 -23.361 -18.553  0.00  0.00    +0.094 C 
BRANCH   8  10
ATOM      9  O   UNL     1      35.400 -23.888 -15.743  0.00  0.00    -0.270 OA
ATOM     10  N   UNL     1      33.701 -23.414 -17.321  0.00  0.00    -0.272 N 
ATOM     11  C   UNL     1      32.253 -23.195 -17.266  0.00  0.00    +0.121 C 
ATOM     12  C   UNL     1      34.245 -23.667 -16.056  0.00  0.00    +0.249 C 
ATOM     13  C   UNL     1      31.959 -23.343 -15.812  0.00  0.00    +0.002 C 
ATOM     14  C   UNL     1      33.130 -23.620 -15.105  0.00  0.00    +0.051 C 
ATOM     15  C   UNL     1      30.751 -23.242 -15.150  0.00  0.00    -0.002 C 
ATOM     16  C   UNL     1      33.148 -23.805 -13.736  0.00  0.00    +0.004 C 
ATOM     17  C   UNL     1      30.741 -23.425 -13.763  0.00  0.00    -0.000 C 
ATOM     18  C   UNL     1      31.929 -23.704 -13.063  0.00  0.00    +0.000 C 
ENDBRANCH   8  10
ENDBRANCH   2   8
BRANCH   1  19
ATOM     19  C   UNL     1      35.750 -18.602 -21.486  0.00  0.00    -0.006 C 
BRANCH  19  21
ATOM     20  O   UNL     1      35.382 -19.454 -23.714  0.00  0.00    -0.294 OA
ATOM     21  C   UNL     1      35.334 -18.498 -22.943  0.00  0.00    +0.152 C 
BRANCH  21  23
ATOM     22  F   UNL     1      33.524 -13.571 -24.843  0.00  0.00    -0.204 F 
ATOM     23  C   UNL     1      34.849 -17.181 -23.451  0.00  0.00    +0.033 C 
ATOM     24  C   UNL     1      34.798 -16.117 -22.579  0.00  0.00    +0.005 C 
ATOM     25  C   UNL     1      34.473 -17.081 -24.770  0.00  0.00    +0.005 C 
ATOM     26  C   UNL     1      34.347 -14.885 -23.054  0.00  0.00    +0.030 C 
ATOM     27  C   UNL     1      34.022 -15.851 -25.246  0.00  0.00    +0.030 C 
ATOM     28  C   UNL     1      33.958 -14.753 -24.388  0.00  0.00    +0.140 C 
ENDBRANCH  21  23
ENDBRANCH  19  21
ENDBRANCH   1  19
TORSDOF 5
ENDMDL
MODEL 9
REMARK VINA RESULT:     -10.4      4.560      7.168
REMARK  Name = 9799284
REMARK  5 active torsions:
REMARK  status: ('A' for Active; 'I' for Inactive)
REMARK    1  A    between atoms: N_1  and  C_19
REMARK    2  A    between atoms: C_2  and  C_8
REMARK    3  A    between atoms: C_8  and  N_10
REMARK    4  A    between atoms: C_19  and  C_21
REMARK    5  A    between atoms: C_21  and  C_23
REMARK                            x       y       z     vdW  Elec       q    Type
REMARK                         _______ _______ _______ _____ _____    ______ ____
ROOT
ATOM      1  N   UNL     1      34.184 -22.031 -18.942  0.00  0.00    +0.392 N 
ATOM      2  C   UNL     1      35.640 -20.169 -20.677  0.00  0.00    +0.016 C 
ATOM      3  C   UNL     1      34.183 -19.938 -20.262  0.00  0.00    -0.021 C 
ATOM      4  C   UNL     1      36.345 -21.042 -19.633  0.00  0.00    -0.021 C 
ATOM      5  C   UNL     1      33.472 -21.260 -19.970  0.00  0.00    -0.077 C 
ATOM      6  C   UNL     1      35.561 -22.328 -19.361  0.00  0.00    -0.077 C 
ATOM      7  H   UNL     1      34.229 -21.462 -18.096  0.00  0.00    -0.079 HD
ENDROOT
BRANCH   2   8
ATOM      8  C   UNL     1      36.374 -18.845 -20.870  0.00  0.00    +0.094 C 
BRANCH   8  10
ATOM      9  O   UNL     1      34.934 -16.216 -20.506  0.00  0.00    -0.270 OA
ATOM     10  N   UNL     1      35.702 -18.021 -21.830  0.00  0.00    -0.272 N 
ATOM     11  C   UNL     1      35.626 -18.387 -23.247  0.00  0.00    +0.121 C 
ATOM     12  C   UNL     1      35.058 -16.807 -21.563  0.00  0.00    +0.249 C 
ATOM     13  C   UNL     1      34.855 -17.254 -23.831  0.00  0.00    +0.002 C 
ATOM     14  C   UNL     1      34.523 -16.329 -22.841  0.00  0.00    +0.051 C 
ATOM     15  C   UNL     1      34.468 -17.043 -25.141  0.00  0.00    -0.002 C 
ATOM     16  C   UNL     1      33.807 -15.178 -23.106  0.00  0.00    +0.004 C 
ATOM     17  C   UNL     1      33.741 -15.885 -25.437  0.00  0.00    -0.000 C 
ATOM     18  C   UNL     1      33.414 -14.960 -24.428  0.00  0.00    +0.000 C 
ENDBRANCH   8  10
ENDBRANCH   2   8
BRANCH   1  19
ATOM     19  C   UNL     1      33.465 -23.266 -18.637  0.00  0.00    -0.006 C 
BRANCH  19  21
ATOM     20  O   UNL     1      31.595 -22.542 -17.293  0.00  0.00    -0.294 OA
ATOM     21  C   UNL     1      32.696 -23.086 -17.340  0.00  0.00    +0.152 C 
BRANCH  21  23
ATOM     22  F   UNL     1      34.980 -24.983 -12.612  0.00  0.00    -0.204 F 
ATOM     23  C   UNL     1      33.308 -23.593 -16.075  0.00  0.00    +0.033 C 
ATOM     24  C   UNL     1      32.501 -23.751 -14.972  0.00  0.00    +0.005 C 
ATOM     25  C   UNL     1      34.652 -23.882 -16.063  0.00  0.00    +0.005 C 
ATOM     26  C   UNL     1      33.071 -24.226 -13.790  0.00  0.00    +0.030 C 
ATOM     27  C   UNL     1      35.223 -24.356 -14.883  0.00  0.00    +0.030 C 
ATOM     28  C   UNL     1      34.432 -24.528 -13.746  0.00  0.00    +0.140 C 
ENDBRANCH  21  23
ENDBRANCH  19  21
ENDBRANCH   1  19
TORSDOF 5
ENDMDL
