MODEL 1
REMARK VINA RESULT:     -12.3      0.000      0.000
REMARK  Name = 16040279
REMARK  5 active torsions:
REMARK  status: ('A' for Active; 'I' for Inactive)
REMARK    1  A    between atoms: N_2  and  C_21
REMARK    2  A    between atoms: C_3  and  C_11
REMARK    3  A    between atoms: C_4  and  N_17
REMARK    4  A    between atoms: C_21  and  C_22
REMARK    5  A    between atoms: C_22  and  C_25
REMARK                            x       y       z     vdW  Elec       q    Type
REMARK                         _______ _______ _______ _____ _____    ______ ____
ROOT
ATOM      1  O   UNL     1      34.558 -17.442 -25.183  0.00  0.00    -0.275 OA
ATOM      2  N   UNL     1      35.011 -17.410 -22.907  0.00  0.00    -0.281 N 
ATOM      3  C   UNL     1      33.705 -14.856 -22.725  0.00  0.00    +0.015 C 
ATOM      4  C   UNL     1      34.711 -15.266 -21.634  0.00  0.00    -0.041 C 
ATOM      5  C   UNL     1      34.797 -16.790 -21.600  0.00  0.00    +0.072 C 
ATOM      6  C   UNL     1      34.215 -15.373 -24.073  0.00  0.00    +0.088 C 
ATOM      7  C   UNL     1      34.578 -16.845 -24.104  0.00  0.00    +0.226 C 
ENDROOT
BRANCH   3  11
ATOM      8  F   UNL     1      31.693 -13.550 -21.208  0.00  0.00    -0.204 F 
ATOM      9  F   UNL     1      34.697 -10.434 -24.550  0.00  0.00    -0.202 F 
ATOM     10  F   UNL     1      32.724  -9.307 -23.030  0.00  0.00    -0.202 F 
ATOM     11  C   UNL     1      33.438 -13.361 -22.805  0.00  0.00    +0.006 C 
ATOM     12  C   UNL     1      32.433 -12.793 -22.029  0.00  0.00    +0.138 C 
ATOM     13  C   UNL     1      34.204 -12.571 -23.657  0.00  0.00    +0.030 C 
ATOM     14  C   UNL     1      33.963 -11.199 -23.733  0.00  0.00    +0.167 C 
ATOM     15  C   UNL     1      32.190 -11.421 -22.106  0.00  0.00    +0.061 C 
ATOM     16  C   UNL     1      32.956 -10.624 -22.958  0.00  0.00    +0.170 C 
ENDBRANCH   3  11
BRANCH   4  17
ATOM     17  N   UNL     1      34.305 -14.797 -20.307  0.00  0.00    +0.383 N 
ATOM     18  H   UNL     1      34.788 -15.341 -19.592  0.00  0.00    -0.089 HD
ATOM     19  H   UNL     1      33.297 -14.912 -20.200  0.00  0.00    -0.089 HD
ATOM     20  H   UNL     1      34.547 -13.811 -20.206  0.00  0.00    -0.089 HD
ENDBRANCH   4  17
BRANCH   2  21
ATOM     21  C   UNL     1      35.464 -18.794 -22.887  0.00  0.00    +0.098 C 
BRANCH  21  22
ATOM     22  C   UNL     1      36.060 -19.196 -21.539  0.00  0.00    +0.048 C 
BRANCH  22  25
ATOM     23  O   UNL     1      35.200 -22.751 -18.223  0.00  0.00    -0.435 OA
ATOM     24  O   UNL     1      32.813 -22.612 -18.522  0.00  0.00    -0.435 OA
ATOM     25  C   UNL     1      35.155 -20.102 -20.742  0.00  0.00    -0.017 C 
ATOM     26  C   UNL     1      35.717 -21.002 -19.847  0.00  0.00    +0.036 C 
ATOM     27  C   UNL     1      33.773 -20.011 -20.926  0.00  0.00    -0.001 C 
ATOM     28  C   UNL     1      34.848 -21.810 -19.140  0.00  0.00    +0.176 C 
ATOM     29  C   UNL     1      33.485 -21.731 -19.312  0.00  0.00    +0.176 C 
ATOM     30  C   UNL     1      32.915 -20.840 -20.198  0.00  0.00    +0.040 C 
ATOM     31  C   UNL     1      33.905 -23.255 -17.835  0.00  0.00    +0.429 C 
ENDBRANCH  22  25
ENDBRANCH  21  22
ENDBRANCH   2  21
TORSDOF 5
ENDMDL
MODEL 2
REMARK VINA RESULT:     -11.9      3.648      5.922
REMARK  Name = 16040279
REMARK  5 active torsions:
REMARK  status: ('A' for Active; 'I' for Inactive)
REMARK    1  A    between atoms: N_2  and  C_21
REMARK    2  A    between atoms: C_3  and  C_11
REMARK    3  A    between atoms: C_4  and  N_17
REMARK    4  A    between atoms: C_21  and  C_22
REMARK    5  A    between atoms: C_22  and  C_25
REMARK                            x       y       z     vdW  Elec       q    Type
REMARK                         _______ _______ _______ _____ _____    ______ ____
ROOT
ATOM      1  O   UNL     1      33.017 -21.435 -19.386  0.00  0.00    -0.275 OA
ATOM      2  N   UNL     1      35.335 -21.363 -19.482  0.00  0.00    -0.281 N 
ATOM      3  C   UNL     1      35.155 -19.009 -21.120  0.00  0.00    +0.015 C 
ATOM      4  C   UNL     1      36.441 -19.854 -21.156  0.00  0.00    -0.041 C 
ATOM      5  C   UNL     1      36.547 -20.633 -19.847  0.00  0.00    +0.072 C 
ATOM      6  C   UNL     1      33.957 -19.954 -20.985  0.00  0.00    +0.088 C 
ATOM      7  C   UNL     1      34.055 -20.961 -19.855  0.00  0.00    +0.226 C 
ENDROOT
BRANCH   3  11
ATOM      8  F   UNL     1      34.735 -19.974 -23.756  0.00  0.00    -0.204 F 
ATOM      9  F   UNL     1      34.854 -14.547 -23.089  0.00  0.00    -0.202 F 
ATOM     10  F   UNL     1      34.458 -15.614 -25.574  0.00  0.00    -0.202 F 
ATOM     11  C   UNL     1      34.967 -18.097 -22.322  0.00  0.00    +0.006 C 
ATOM     12  C   UNL     1      34.766 -18.645 -23.585  0.00  0.00    +0.138 C 
ATOM     13  C   UNL     1      34.998 -16.716 -22.149  0.00  0.00    +0.030 C 
ATOM     14  C   UNL     1      34.826 -15.876 -23.250  0.00  0.00    +0.167 C 
ATOM     15  C   UNL     1      34.594 -17.805 -24.686  0.00  0.00    +0.061 C 
ATOM     16  C   UNL     1      34.624 -16.420 -24.518  0.00  0.00    +0.170 C 
ENDBRANCH   3  11
BRANCH   4  17
ATOM     17  N   UNL     1      37.640 -19.025 -21.298  0.00  0.00    +0.383 N 
ATOM     18  H   UNL     1      37.938 -18.698 -20.379  0.00  0.00    -0.089 HD
ATOM     19  H   UNL     1      37.429 -18.222 -21.893  0.00  0.00    -0.089 HD
ATOM     20  H   UNL     1      38.387 -19.575 -21.722  0.00  0.00    -0.089 HD
ENDBRANCH   4  17
BRANCH   2  21
ATOM     21  C   UNL     1      35.496 -22.397 -18.468  0.00  0.00    +0.098 C 
BRANCH  21  22
ATOM     22  C   UNL     1      36.632 -22.089 -17.494  0.00  0.00    +0.048 C 
BRANCH  22  25
ATOM     23  O   UNL     1      38.473 -24.347 -13.507  0.00  0.00    -0.435 OA
ATOM     24  O   UNL     1      36.283 -24.835 -12.629  0.00  0.00    -0.435 OA
ATOM     25  C   UNL     1      36.501 -22.827 -16.185  0.00  0.00    -0.017 C 
ATOM     26  C   UNL     1      37.650 -23.213 -15.507  0.00  0.00    +0.036 C 
ATOM     27  C   UNL     1      35.225 -23.105 -15.688  0.00  0.00    -0.001 C 
ATOM     28  C   UNL     1      37.479 -23.887 -14.314  0.00  0.00    +0.176 C 
ATOM     29  C   UNL     1      36.228 -24.166 -13.813  0.00  0.00    +0.176 C 
ATOM     30  C   UNL     1      35.079 -23.787 -14.477  0.00  0.00    +0.040 C 
ATOM     31  C   UNL     1      37.708 -24.946 -12.442  0.00  0.00    +0.429 C 
ENDBRANCH  22  25
ENDBRANCH  21  22
ENDBRANCH   2  21
TORSDOF 5
ENDMDL
MODEL 3
REMARK VINA RESULT:     -11.5      4.230      7.042
REMARK  Name = 16040279
REMARK  5 active torsions:
REMARK  status: ('A' for Active; 'I' for Inactive)
REMARK    1  A    between atoms: N_2  and  C_21
REMARK    2  A    between atoms: C_3  and  C_11
REMARK    3  A    between atoms: C_4  and  N_17
REMARK    4  A    between atoms: C_21  and  C_22
REMARK    5  A    between atoms: C_22  and  C_25
REMARK                            x       y       z     vdW  Elec       q    Type
REMARK                         _______ _______ _______ _____ _____    ______ ____
ROOT
ATOM      1  O   UNL     1      32.656 -22.382 -18.731  0.00  0.00    -0.275 OA
ATOM      2  N   UNL     1      34.960 -22.226 -18.499  0.00  0.00    -0.281 N 
ATOM      3  C   UNL     1      34.950 -19.988 -20.302  0.00  0.00    +0.015 C 
ATOM      4  C   UNL     1      36.252 -20.783 -20.097  0.00  0.00    -0.041 C 
ATOM      5  C   UNL     1      36.190 -21.473 -18.736  0.00  0.00    +0.072 C 
ATOM      6  C   UNL     1      33.775 -20.970 -20.276  0.00  0.00    +0.088 C 
ATOM      7  C   UNL     1      33.737 -21.898 -19.077  0.00  0.00    +0.226 C 
ENDROOT
BRANCH   3  11
ATOM      8  F   UNL     1      35.390 -17.185 -20.354  0.00  0.00    -0.204 F 
ATOM      9  F   UNL     1      34.364 -19.627 -25.140  0.00  0.00    -0.202 F 
ATOM     10  F   UNL     1      34.806 -16.930 -25.043  0.00  0.00    -0.202 F 
ATOM     11  C   UNL     1      34.912 -19.162 -21.578  0.00  0.00    +0.006 C 
ATOM     12  C   UNL     1      35.137 -17.790 -21.524  0.00  0.00    +0.138 C 
ATOM     13  C   UNL     1      34.650 -19.786 -22.794  0.00  0.00    +0.030 C 
ATOM     14  C   UNL     1      34.615 -19.031 -23.967  0.00  0.00    +0.167 C 
ATOM     15  C   UNL     1      35.101 -17.034 -22.696  0.00  0.00    +0.061 C 
ATOM     16  C   UNL     1      34.840 -17.655 -23.918  0.00  0.00    +0.170 C 
ENDBRANCH   3  11
BRANCH   4  17
ATOM     17  N   UNL     1      37.434 -19.917 -20.123  0.00  0.00    +0.383 N 
ATOM     18  H   UNL     1      37.282 -19.116 -19.510  0.00  0.00    -0.089 HD
ATOM     19  H   UNL     1      37.596 -19.591 -21.076  0.00  0.00    -0.089 HD
ATOM     20  H   UNL     1      38.248 -20.442 -19.801  0.00  0.00    -0.089 HD
ENDBRANCH   4  17
BRANCH   2  21
ATOM     21  C   UNL     1      35.004 -23.186 -17.404  0.00  0.00    +0.098 C 
BRANCH  21  22
ATOM     22  C   UNL     1      35.803 -22.673 -16.207  0.00  0.00    +0.048 C 
BRANCH  22  25
ATOM     23  O   UNL     1      39.841 -24.864 -14.396  0.00  0.00    -0.435 OA
ATOM     24  O   UNL     1      38.574 -26.690 -13.466  0.00  0.00    -0.435 OA
ATOM     25  C   UNL     1      36.518 -23.773 -15.461  0.00  0.00    -0.017 C 
ATOM     26  C   UNL     1      37.898 -23.712 -15.324  0.00  0.00    +0.036 C 
ATOM     27  C   UNL     1      35.770 -24.827 -14.928  0.00  0.00    -0.001 C 
ATOM     28  C   UNL     1      38.507 -24.741 -14.635  0.00  0.00    +0.176 C 
ATOM     29  C   UNL     1      37.783 -25.785 -14.104  0.00  0.00    +0.176 C 
ATOM     30  C   UNL     1      36.411 -25.856 -14.234  0.00  0.00    +0.040 C 
ATOM     31  C   UNL     1      39.875 -26.100 -13.655  0.00  0.00    +0.429 C 
ENDBRANCH  22  25
ENDBRANCH  21  22
ENDBRANCH   2  21
TORSDOF 5
ENDMDL
MODEL 4
REMARK VINA RESULT:     -11.4      3.067      5.280
REMARK  Name = 16040279
REMARK  5 active torsions:
REMARK  status: ('A' for Active; 'I' for Inactive)
REMARK    1  A    between atoms: N_2  and  C_21
REMARK    2  A    between atoms: C_3  and  C_11
REMARK    3  A    between atoms: C_4  and  N_17
REMARK    4  A    between atoms: C_21  and  C_22
REMARK    5  A    between atoms: C_22  and  C_25
REMARK                            x       y       z     vdW  Elec       q    Type
REMARK                         _______ _______ _______ _____ _____    ______ ____
ROOT
ATOM      1  O   UNL     1      32.907 -21.384 -19.576  0.00  0.00    -0.275 OA
ATOM      2  N   UNL     1      35.220 -21.394 -19.762  0.00  0.00    -0.281 N 
ATOM      3  C   UNL     1      35.102 -18.743 -20.867  0.00  0.00    +0.015 C 
ATOM      4  C   UNL     1      36.341 -19.616 -21.137  0.00  0.00    -0.041 C 
ATOM      5  C   UNL     1      36.454 -20.656 -20.024  0.00  0.00    +0.072 C 
ATOM      6  C   UNL     1      33.864 -19.643 -20.875  0.00  0.00    +0.088 C 
ATOM      7  C   UNL     1      33.950 -20.867 -19.984  0.00  0.00    +0.226 C 
ENDROOT
BRANCH   3  11
ATOM      8  F   UNL     1      34.562 -16.080 -20.050  0.00  0.00    -0.204 F 
ATOM      9  F   UNL     1      34.940 -16.999 -25.428  0.00  0.00    -0.202 F 
ATOM     10  F   UNL     1      34.422 -14.479 -24.501  0.00  0.00    -0.202 F 
ATOM     11  C   UNL     1      34.919 -17.593 -21.844  0.00  0.00    +0.006 C 
ATOM     12  C   UNL     1      34.655 -16.312 -21.367  0.00  0.00    +0.138 C 
ATOM     13  C   UNL     1      35.015 -17.830 -23.212  0.00  0.00    +0.030 C 
ATOM     14  C   UNL     1      34.847 -16.776 -24.111  0.00  0.00    +0.167 C 
ATOM     15  C   UNL     1      34.487 -15.259 -22.266  0.00  0.00    +0.061 C 
ATOM     16  C   UNL     1      34.583 -15.491 -23.638  0.00  0.00    +0.170 C 
ENDBRANCH   3  11
BRANCH   4  17
ATOM     17  N   UNL     1      37.575 -18.828 -21.160  0.00  0.00    +0.383 N 
ATOM     18  H   UNL     1      37.569 -18.165 -20.385  0.00  0.00    -0.089 HD
ATOM     19  H   UNL     1      37.637 -18.319 -22.043  0.00  0.00    -0.089 HD
ATOM     20  H   UNL     1      38.379 -19.450 -21.069  0.00  0.00    -0.089 HD
ENDBRANCH   4  17
BRANCH   2  21
ATOM     21  C   UNL     1      35.365 -22.623 -18.993  0.00  0.00    +0.098 C 
BRANCH  21  22
ATOM     22  C   UNL     1      36.015 -22.388 -17.631  0.00  0.00    +0.048 C 
BRANCH  22  25
ATOM     23  O   UNL     1      31.867 -24.074 -15.551  0.00  0.00    -0.435 OA
ATOM     24  O   UNL     1      32.982 -24.602 -13.481  0.00  0.00    -0.435 OA
ATOM     25  C   UNL     1      35.228 -22.986 -16.491  0.00  0.00    -0.017 C 
ATOM     26  C   UNL     1      33.870 -23.223 -16.657  0.00  0.00    +0.036 C 
ATOM     27  C   UNL     1      35.888 -23.287 -15.296  0.00  0.00    -0.001 C 
ATOM     28  C   UNL     1      33.193 -23.771 -15.587  0.00  0.00    +0.176 C 
ATOM     29  C   UNL     1      33.830 -24.072 -14.404  0.00  0.00    +0.176 C 
ATOM     30  C   UNL     1      35.179 -23.841 -14.228  0.00  0.00    +0.040 C 
ATOM     31  C   UNL     1      31.741 -24.601 -14.214  0.00  0.00    +0.429 C 
ENDBRANCH  22  25
ENDBRANCH  21  22
ENDBRANCH   2  21
TORSDOF 5
ENDMDL
MODEL 5
REMARK VINA RESULT:     -11.4      1.543      2.715
REMARK  Name = 16040279
REMARK  5 active torsions:
REMARK  status: ('A' for Active; 'I' for Inactive)
REMARK    1  A    between atoms: N_2  and  C_21
REMARK    2  A    between atoms: C_3  and  C_11
REMARK    3  A    between atoms: C_4  and  N_17
REMARK    4  A    between atoms: C_21  and  C_22
REMARK    5  A    between atoms: C_22  and  C_25
REMARK                            x       y       z     vdW  Elec       q    Type
REMARK                         _______ _______ _______ _____ _____    ______ ____
ROOT
ATOM      1  O   UNL     1      35.020 -16.659 -20.087  0.00  0.00    -0.275 OA
ATOM      2  N   UNL     1      34.776 -16.865 -22.385  0.00  0.00    -0.281 N 
ATOM      3  C   UNL     1      34.049 -14.088 -22.517  0.00  0.00    +0.015 C 
ATOM      4  C   UNL     1      33.630 -15.030 -23.660  0.00  0.00    -0.041 C 
ATOM      5  C   UNL     1      34.587 -16.220 -23.683  0.00  0.00    +0.072 C 
ATOM      6  C   UNL     1      33.948 -14.855 -21.196  0.00  0.00    +0.088 C 
ATOM      7  C   UNL     1      34.661 -16.193 -21.171  0.00  0.00    +0.226 C 
ENDROOT
BRANCH   3  11
ATOM      8  F   UNL     1      34.692 -11.755 -24.000  0.00  0.00    -0.204 F 
ATOM      9  F   UNL     1      30.320 -11.488 -20.725  0.00  0.00    -0.202 F 
ATOM     10  F   UNL     1      31.054  -9.314 -22.211  0.00  0.00    -0.202 F 
ATOM     11  C   UNL     1      33.244 -12.801 -22.436  0.00  0.00    +0.006 C 
ATOM     12  C   UNL     1      33.622 -11.697 -23.195  0.00  0.00    +0.138 C 
ATOM     13  C   UNL     1      32.132 -12.735 -21.602  0.00  0.00    +0.030 C 
ATOM     14  C   UNL     1      31.391 -11.556 -21.526  0.00  0.00    +0.167 C 
ATOM     15  C   UNL     1      32.881 -10.516 -23.119  0.00  0.00    +0.061 C 
ATOM     16  C   UNL     1      31.766 -10.447 -22.284  0.00  0.00    +0.170 C 
ENDBRANCH   3  11
BRANCH   4  17
ATOM     17  N   UNL     1      33.685 -14.369 -24.966  0.00  0.00    +0.383 N 
ATOM     18  H   UNL     1      34.243 -13.518 -24.893  0.00  0.00    -0.089 HD
ATOM     19  H   UNL     1      32.738 -14.130 -25.266  0.00  0.00    -0.089 HD
ATOM     20  H   UNL     1      34.109 -14.997 -25.649  0.00  0.00    -0.089 HD
ENDBRANCH   4  17
BRANCH   2  21
ATOM     21  C   UNL     1      35.366 -18.197 -22.417  0.00  0.00    +0.098 C 
BRANCH  21  22
ATOM     22  C   UNL     1      34.316 -19.304 -22.339  0.00  0.00    +0.048 C 
BRANCH  22  25
ATOM     23  O   UNL     1      32.659 -22.220 -18.716  0.00  0.00    -0.435 OA
ATOM     24  O   UNL     1      34.884 -22.687 -17.917  0.00  0.00    -0.435 OA
ATOM     25  C   UNL     1      34.506 -20.212 -21.149  0.00  0.00    -0.017 C 
ATOM     26  C   UNL     1      33.391 -20.765 -20.535  0.00  0.00    +0.036 C 
ATOM     27  C   UNL     1      35.802 -20.473 -20.696  0.00  0.00    -0.001 C 
ATOM     28  C   UNL     1      33.615 -21.588 -19.450  0.00  0.00    +0.176 C 
ATOM     29  C   UNL     1      34.886 -21.854 -18.993  0.00  0.00    +0.176 C 
ATOM     30  C   UNL     1      36.002 -21.311 -19.596  0.00  0.00    +0.040 C 
ATOM     31  C   UNL     1      33.471 -22.915 -17.747  0.00  0.00    +0.429 C 
ENDBRANCH  22  25
ENDBRANCH  21  22
ENDBRANCH   2  21
TORSDOF 5
ENDMDL
MODEL 6
REMARK VINA RESULT:     -11.2      4.104      9.000
REMARK  Name = 16040279
REMARK  5 active torsions:
REMARK  status: ('A' for Active; 'I' for Inactive)
REMARK    1  A    between atoms: N_2  and  C_21
REMARK    2  A    between atoms: C_3  and  C_11
REMARK    3  A    between atoms: C_4  and  N_17
REMARK    4  A    between atoms: C_21  and  C_22
REMARK    5  A    between atoms: C_22  and  C_25
REMARK                            x       y       z     vdW  Elec       q    Type
REMARK                         _______ _______ _______ _____ _____    ______ ____
ROOT
ATOM      1  O   UNL     1      34.630 -15.306 -20.988  0.00  0.00    -0.275 OA
ATOM      2  N   UNL     1      35.002 -16.523 -22.929  0.00  0.00    -0.281 N 
ATOM      3  C   UNL     1      34.398 -18.934 -21.486  0.00  0.00    +0.015 C 
ATOM      4  C   UNL     1      35.227 -19.020 -22.779  0.00  0.00    -0.041 C 
ATOM      5  C   UNL     1      34.913 -17.797 -23.640  0.00  0.00    +0.072 C 
ATOM      6  C   UNL     1      34.799 -17.660 -20.736  0.00  0.00    +0.088 C 
ATOM      7  C   UNL     1      34.769 -16.389 -21.563  0.00  0.00    +0.226 C 
ENDROOT
BRANCH   3  11
ATOM      8  F   UNL     1      32.169 -20.337 -20.428  0.00  0.00    -0.204 F 
ATOM      9  F   UNL     1      37.136 -22.159 -19.042  0.00  0.00    -0.202 F 
ATOM     10  F   UNL     1      34.901 -23.416 -18.094  0.00  0.00    -0.202 F 
ATOM     11  C   UNL     1      34.531 -20.141 -20.572  0.00  0.00    +0.006 C 
ATOM     12  C   UNL     1      33.390 -20.778 -20.092  0.00  0.00    +0.138 C 
ATOM     13  C   UNL     1      35.796 -20.603 -20.221  0.00  0.00    +0.030 C 
ATOM     14  C   UNL     1      35.922 -21.711 -19.383  0.00  0.00    +0.167 C 
ATOM     15  C   UNL     1      33.515 -21.886 -19.253  0.00  0.00    +0.061 C 
ATOM     16  C   UNL     1      34.781 -22.352 -18.899  0.00  0.00    +0.170 C 
ENDBRANCH   3  11
BRANCH   4  17
ATOM     17  N   UNL     1      34.914 -20.222 -23.555  0.00  0.00    +0.383 N 
ATOM     18  H   UNL     1      34.893 -21.031 -22.934  0.00  0.00    -0.089 HD
ATOM     19  H   UNL     1      35.629 -20.361 -24.270  0.00  0.00    -0.089 HD
ATOM     20  H   UNL     1      34.004 -20.112 -24.001  0.00  0.00    -0.089 HD
ENDBRANCH   4  17
BRANCH   2  21
ATOM     21  C   UNL     1      35.080 -15.333 -23.766  0.00  0.00    +0.098 C 
BRANCH  21  22
ATOM     22  C   UNL     1      33.704 -14.823 -24.189  0.00  0.00    +0.048 C 
BRANCH  22  25
ATOM     23  O   UNL     1      31.394 -11.850 -20.994  0.00  0.00    -0.435 OA
ATOM     24  O   UNL     1      32.389  -9.870 -21.940  0.00  0.00    -0.435 OA
ATOM     25  C   UNL     1      33.372 -13.471 -23.607  0.00  0.00    -0.017 C 
ATOM     26  C   UNL     1      32.496 -13.393 -22.533  0.00  0.00    +0.036 C 
ATOM     27  C   UNL     1      33.956 -12.331 -24.166  0.00  0.00    -0.001 C 
ATOM     28  C   UNL     1      32.222 -12.135 -22.035  0.00  0.00    +0.176 C 
ATOM     29  C   UNL     1      32.791 -11.004 -22.576  0.00  0.00    +0.176 C 
ATOM     30  C   UNL     1      33.663 -11.069 -23.643  0.00  0.00    +0.040 C 
ATOM     31  C   UNL     1      31.505 -10.413 -20.939  0.00  0.00    +0.429 C 
ENDBRANCH  22  25
ENDBRANCH  21  22
ENDBRANCH   2  21
TORSDOF 5
ENDMDL
MODEL 7
REMARK VINA RESULT:     -11.1      5.514     11.262
REMARK  Name = 16040279
REMARK  5 active torsions:
REMARK  status: ('A' for Active; 'I' for Inactive)
REMARK    1  A    between atoms: N_2  and  C_21
REMARK    2  A    between atoms: C_3  and  C_11
REMARK    3  A    between atoms: C_4  and  N_17
REMARK    4  A    between atoms: C_21  and  C_22
REMARK    5  A    between atoms: C_22  and  C_25
REMARK                            x       y       z     vdW  Elec       q    Type
REMARK                         _______ _______ _______ _____ _____    ______ ____
ROOT
ATOM      1  O   UNL     1      30.695 -11.528 -20.591  0.00  0.00    -0.275 OA
ATOM      2  N   UNL     1      32.162 -10.389 -21.982  0.00  0.00    -0.281 N 
ATOM      3  C   UNL     1      32.896 -12.891 -23.190  0.00  0.00    +0.015 C 
ATOM      4  C   UNL     1      33.857 -11.694 -23.297  0.00  0.00    -0.041 C 
ATOM      5  C   UNL     1      33.049 -10.407 -23.144  0.00  0.00    +0.072 C 
ATOM      6  C   UNL     1      32.236 -12.860 -21.809  0.00  0.00    +0.088 C 
ATOM      7  C   UNL     1      31.602 -11.536 -21.427  0.00  0.00    +0.226 C 
ENDROOT
BRANCH   3  11
ATOM      8  F   UNL     1      32.868 -14.213 -25.702  0.00  0.00    -0.204 F 
ATOM      9  F   UNL     1      35.423 -16.754 -21.587  0.00  0.00    -0.202 F 
ATOM     10  F   UNL     1      35.319 -17.914 -24.060  0.00  0.00    -0.202 F 
ATOM     11  C   UNL     1      33.548 -14.244 -23.427  0.00  0.00    +0.006 C 
ATOM     12  C   UNL     1      33.492 -14.830 -24.688  0.00  0.00    +0.138 C 
ATOM     13  C   UNL     1      34.197 -14.889 -22.378  0.00  0.00    +0.030 C 
ATOM     14  C   UNL     1      34.797 -16.130 -22.592  0.00  0.00    +0.167 C 
ATOM     15  C   UNL     1      34.091 -16.072 -24.903  0.00  0.00    +0.061 C 
ATOM     16  C   UNL     1      34.743 -16.722 -23.854  0.00  0.00    +0.170 C 
ENDBRANCH   3  11
BRANCH   4  17
ATOM     17  N   UNL     1      34.545 -11.655 -24.590  0.00  0.00    +0.383 N 
ATOM     18  H   UNL     1      35.514 -11.367 -24.451  0.00  0.00    -0.089 HD
ATOM     19  H   UNL     1      34.077 -10.988 -25.205  0.00  0.00    -0.089 HD
ATOM     20  H   UNL     1      34.524 -12.582 -25.015  0.00  0.00    -0.089 HD
ENDBRANCH   4  17
BRANCH   2  21
ATOM     21  C   UNL     1      31.663  -9.079 -21.584  0.00  0.00    +0.098 C 
BRANCH  21  22
ATOM     22  C   UNL     1      32.774  -8.038 -21.471  0.00  0.00    +0.048 C 
BRANCH  22  25
ATOM     23  O   UNL     1      30.384  -3.968 -22.922  0.00  0.00    -0.435 OA
ATOM     24  O   UNL     1      31.886  -3.605 -24.770  0.00  0.00    -0.435 OA
ATOM     25  C   UNL     1      32.564  -6.852 -22.380  0.00  0.00    -0.017 C 
ATOM     26  C   UNL     1      31.505  -5.989 -22.134  0.00  0.00    +0.036 C 
ATOM     27  C   UNL     1      33.443  -6.654 -23.449  0.00  0.00    -0.001 C 
ATOM     28  C   UNL     1      31.354  -4.920 -22.993  0.00  0.00    +0.176 C 
ATOM     29  C   UNL     1      32.212  -4.712 -24.050  0.00  0.00    +0.176 C 
ATOM     30  C   UNL     1      33.268  -5.563 -24.304  0.00  0.00    +0.040 C 
ATOM     31  C   UNL     1      30.728  -3.138 -24.050  0.00  0.00    +0.429 C 
ENDBRANCH  22  25
ENDBRANCH  21  22
ENDBRANCH   2  21
TORSDOF 5
ENDMDL
MODEL 8
REMARK VINA RESULT:     -10.8      4.192      9.389
REMARK  Name = 16040279
REMARK  5 active torsions:
REMARK  status: ('A' for Active; 'I' for Inactive)
REMARK    1  A    between atoms: N_2  and  C_21
REMARK    2  A    between atoms: C_3  and  C_11
REMARK    3  A    between atoms: C_4  and  N_17
REMARK    4  A    between atoms: C_21  and  C_22
REMARK    5  A    between atoms: C_22  and  C_25
REMARK                            x       y       z     vdW  Elec       q    Type
REMARK                         _______ _______ _______ _____ _____    ______ ____
ROOT
ATOM      1  O   UNL     1      34.878 -16.570 -25.481  0.00  0.00    -0.275 OA
ATOM      2  N   UNL     1      34.378 -15.354 -23.569  0.00  0.00    -0.281 N 
ATOM      3  C   UNL     1      35.368 -17.530 -21.974  0.00  0.00    +0.015 C 
ATOM      4  C   UNL     1      34.395 -16.518 -21.344  0.00  0.00    -0.041 C 
ATOM      5  C   UNL     1      34.491 -15.205 -22.119  0.00  0.00    +0.072 C 
ATOM      6  C   UNL     1      34.951 -17.761 -23.429  0.00  0.00    +0.088 C 
ATOM      7  C   UNL     1      34.766 -16.502 -24.255  0.00  0.00    +0.226 C 
ENDROOT
BRANCH   3  11
ATOM      8  F   UNL     1      37.825 -18.714 -21.191  0.00  0.00    -0.204 F 
ATOM      9  F   UNL     1      33.249 -21.436 -19.942  0.00  0.00    -0.202 F 
ATOM     10  F   UNL     1      35.687 -22.461 -19.247  0.00  0.00    -0.202 F 
ATOM     11  C   UNL     1      35.457 -18.858 -21.240  0.00  0.00    +0.006 C 
ATOM     12  C   UNL     1      36.700 -19.376 -20.889  0.00  0.00    +0.138 C 
ATOM     13  C   UNL     1      34.291 -19.549 -20.924  0.00  0.00    +0.030 C 
ATOM     14  C   UNL     1      34.368 -20.768 -20.249  0.00  0.00    +0.167 C 
ATOM     15  C   UNL     1      36.778 -20.595 -20.215  0.00  0.00    +0.061 C 
ATOM     16  C   UNL     1      35.612 -21.291 -19.895  0.00  0.00    +0.170 C 
ENDBRANCH   3  11
BRANCH   4  17
ATOM     17  N   UNL     1      34.715 -16.249 -19.940  0.00  0.00    +0.383 N 
ATOM     18  H   UNL     1      34.435 -15.297 -19.703  0.00  0.00    -0.089 HD
ATOM     19  H   UNL     1      35.721 -16.353 -19.794  0.00  0.00    -0.089 HD
ATOM     20  H   UNL     1      34.215 -16.909 -19.344  0.00  0.00    -0.089 HD
ENDBRANCH   4  17
BRANCH   2  21
ATOM     21  C   UNL     1      34.092 -14.134 -24.312  0.00  0.00    +0.098 C 
BRANCH  21  22
ATOM     22  C   UNL     1      32.945 -13.331 -23.701  0.00  0.00    +0.048 C 
BRANCH  22  25
ATOM     23  O   UNL     1      32.167  -8.848 -21.783  0.00  0.00    -0.435 OA
ATOM     24  O   UNL     1      34.104  -7.918 -22.873  0.00  0.00    -0.435 OA
ATOM     25  C   UNL     1      33.287 -11.875 -23.500  0.00  0.00    -0.017 C 
ATOM     26  C   UNL     1      32.476 -11.096 -22.686  0.00  0.00    +0.036 C 
ATOM     27  C   UNL     1      34.413 -11.349 -24.139  0.00  0.00    -0.001 C 
ATOM     28  C   UNL     1      32.830  -9.770 -22.532  0.00  0.00    +0.176 C 
ATOM     29  C   UNL     1      33.936  -9.239 -23.156  0.00  0.00    +0.176 C 
ATOM     30  C   UNL     1      34.749 -10.004 -23.967  0.00  0.00    +0.040 C 
ATOM     31  C   UNL     1      32.980  -7.678 -22.003  0.00  0.00    +0.429 C 
ENDBRANCH  22  25
ENDBRANCH  21  22
ENDBRANCH   2  21
TORSDOF 5
ENDMDL
MODEL 9
REMARK VINA RESULT:     -10.8      4.172      9.274
REMARK  Name = 16040279
REMARK  5 active torsions:
REMARK  status: ('A' for Active; 'I' for Inactive)
REMARK    1  A    between atoms: N_2  and  C_21
REMARK    2  A    between atoms: C_3  and  C_11
REMARK    3  A    between atoms: C_4  and  N_17
REMARK    4  A    between atoms: C_21  and  C_22
REMARK    5  A    between atoms: C_22  and  C_25
REMARK                            x       y       z     vdW  Elec       q    Type
REMARK                         _______ _______ _______ _____ _____    ______ ____
ROOT
ATOM      1  O   UNL     1      34.676 -15.134 -21.019  0.00  0.00    -0.275 OA
ATOM      2  N   UNL     1      34.953 -16.339 -22.983  0.00  0.00    -0.281 N 
ATOM      3  C   UNL     1      34.536 -18.768 -21.505  0.00  0.00    +0.015 C 
ATOM      4  C   UNL     1      35.275 -18.826 -22.854  0.00  0.00    -0.041 C 
ATOM      5  C   UNL     1      34.859 -17.616 -23.688  0.00  0.00    +0.072 C 
ATOM      6  C   UNL     1      34.944 -17.481 -20.784  0.00  0.00    +0.088 C 
ATOM      7  C   UNL     1      34.812 -16.212 -21.604  0.00  0.00    +0.226 C 
ENDROOT
BRANCH   3  11
ATOM      8  F   UNL     1      37.124 -19.674 -20.773  0.00  0.00    -0.204 F 
ATOM      9  F   UNL     1      32.862 -22.465 -18.785  0.00  0.00    -0.202 F 
ATOM     10  F   UNL     1      35.412 -23.229 -18.161  0.00  0.00    -0.202 F 
ATOM     11  C   UNL     1      34.775 -19.969 -20.605  0.00  0.00    +0.006 C 
ATOM     12  C   UNL     1      36.075 -20.353 -20.290  0.00  0.00    +0.138 C 
ATOM     13  C   UNL     1      33.689 -20.678 -20.100  0.00  0.00    +0.030 C 
ATOM     14  C   UNL     1      33.904 -21.781 -19.273  0.00  0.00    +0.167 C 
ATOM     15  C   UNL     1      36.291 -21.457 -19.464  0.00  0.00    +0.061 C 
ATOM     16  C   UNL     1      35.205 -22.170 -18.955  0.00  0.00    +0.170 C 
ENDBRANCH   3  11
BRANCH   4  17
ATOM     17  N   UNL     1      34.951 -20.039 -23.607  0.00  0.00    +0.383 N 
ATOM     18  H   UNL     1      34.332 -20.630 -23.051  0.00  0.00    -0.089 HD
ATOM     19  H   UNL     1      35.811 -20.549 -23.817  0.00  0.00    -0.089 HD
ATOM     20  H   UNL     1      34.486 -19.785 -24.479  0.00  0.00    -0.089 HD
ENDBRANCH   4  17
BRANCH   2  21
ATOM     21  C   UNL     1      34.930 -15.147 -23.822  0.00  0.00    +0.098 C 
BRANCH  21  22
ATOM     22  C   UNL     1      33.511 -14.664 -24.114  0.00  0.00    +0.048 C 
BRANCH  22  25
ATOM     23  O   UNL     1      33.994  -9.775 -23.624  0.00  0.00    -0.435 OA
ATOM     24  O   UNL     1      32.427  -9.687 -21.796  0.00  0.00    -0.435 OA
ATOM     25  C   UNL     1      33.195 -13.339 -23.466  0.00  0.00    -0.017 C 
ATOM     26  C   UNL     1      33.815 -12.190 -23.938  0.00  0.00    +0.036 C 
ATOM     27  C   UNL     1      32.285 -13.303 -22.406  0.00  0.00    -0.001 C 
ATOM     28  C   UNL     1      33.495 -11.002 -23.313  0.00  0.00    +0.176 C 
ATOM     29  C   UNL     1      32.600 -10.952 -22.267  0.00  0.00    +0.176 C 
ATOM     30  C   UNL     1      31.977 -12.087 -21.791  0.00  0.00    +0.040 C 
ATOM     31  C   UNL     1      33.312  -8.947 -22.660  0.00  0.00    +0.429 C 
ENDBRANCH  22  25
ENDBRANCH  21  22
ENDBRANCH   2  21
TORSDOF 5
ENDMDL
