MODEL 1
REMARK VINA RESULT:     -12.4      0.000      0.000
REMARK  Name = 24794406
REMARK  5 active torsions:
REMARK  status: ('A' for Active; 'I' for Inactive)
REMARK    1  A    between atoms: C_1  and  S_24
REMARK    2  A    between atoms: C_2  and  N_8
REMARK    3  A    between atoms: C_9  and  C_11
REMARK    4  A    between atoms: C_12  and  N_18
REMARK    5  A    between atoms: S_24  and  N_28
REMARK                            x       y       z     vdW  Elec       q    Type
REMARK                         _______ _______ _______ _____ _____    ______ ____
ROOT
ATOM      1  C   UNL     1      32.872 -24.193 -14.680  0.00  0.00    +0.139 C 
ATOM      2  C   UNL     1      32.018 -23.741 -15.686  0.00  0.00    +0.070 C 
ATOM      3  C   UNL     1      32.374 -24.994 -13.651  0.00  0.00    +0.021 C 
ATOM      4  C   UNL     1      30.667 -24.088 -15.663  0.00  0.00    +0.016 C 
ATOM      5  C   UNL     1      31.023 -25.341 -13.628  0.00  0.00    +0.001 C 
ATOM      6  C   UNL     1      30.170 -24.888 -14.635  0.00  0.00    +0.001 C 
ENDROOT
BRANCH   2   8
ATOM      7  O   UNL     1      33.607 -24.465 -18.123  0.00  0.00    -0.270 OA
ATOM      8  N   UNL     1      32.497 -22.927 -16.741  0.00  0.00    -0.279 N 
ATOM      9  C   UNL     1      33.241 -23.307 -17.869  0.00  0.00    +0.250 C 
ATOM     10  H   UNL     1      32.281 -21.969 -16.675  0.00  0.00    +0.155 HD
BRANCH   9  11
ATOM     11  C   UNL     1      33.615 -22.232 -18.773  0.00  0.00    +0.054 C 
ATOM     12  C   UNL     1      34.331 -20.169 -20.509  0.00  0.00    +0.058 C 
ATOM     13  C   UNL     1      32.632 -21.402 -19.313  0.00  0.00    +0.006 C 
ATOM     14  C   UNL     1      34.955 -22.029 -19.101  0.00  0.00    +0.006 C 
ATOM     15  C   UNL     1      32.990 -20.371 -20.182  0.00  0.00    +0.015 C 
ATOM     16  C   UNL     1      35.313 -20.999 -19.969  0.00  0.00    +0.015 C 
BRANCH  12  18
ATOM     17  O   UNL     1      34.859 -20.471 -23.337  0.00  0.00    -0.269 OA
ATOM     18  N   UNL     1      34.703 -19.097 -21.412  0.00  0.00    -0.233 N 
ATOM     19  C   UNL     1      34.898 -19.368 -22.791  0.00  0.00    +0.257 C 
ATOM     20  C   UNL     1      34.896 -17.800 -20.930  0.00  0.00    +0.072 C 
ATOM     21  C   UNL     1      35.235 -18.198 -23.659  0.00  0.00    +0.059 C 
ATOM     22  C   UNL     1      35.230 -16.775 -21.722  0.00  0.00    +0.017 C 
ATOM     23  C   UNL     1      35.397 -16.983 -23.129  0.00  0.00    +0.006 C 
ENDBRANCH  12  18
ENDBRANCH   9  11
ENDBRANCH   2   8
BRANCH   1  24
ATOM     24  S   UNL     1      34.574 -23.781 -14.672  0.00  0.00    +0.076 S 
ATOM     25  O   UNL     1      35.005 -23.723 -13.282  0.00  0.00    -0.150 OA
ATOM     26  O   UNL     1      34.769 -22.614 -15.521  0.00  0.00    -0.150 OA
BRANCH  24  28
ATOM     27 CL   UNL     1      40.729 -26.560 -13.633  0.00  0.00    -0.081 Cl
ATOM     28  N   UNL     1      35.299 -25.160 -15.404  0.00  0.00    -0.199 N 
ATOM     29  N   UNL     1      37.469 -24.531 -14.694  0.00  0.00    -0.227 NA
ATOM     30  C   UNL     1      36.618 -25.543 -14.975  0.00  0.00    +0.147 C 
ATOM     31  C   UNL     1      36.945 -26.885 -14.870  0.00  0.00    +0.036 C 
ATOM     32  C   UNL     1      38.230 -27.210 -14.449  0.00  0.00    +0.016 C 
ATOM     33  C   UNL     1      38.709 -24.886 -14.289  0.00  0.00    +0.112 C 
ATOM     34  C   UNL     1      39.135 -26.197 -14.151  0.00  0.00    +0.077 C 
ATOM     35  H   UNL     1      34.825 -25.672 -16.099  0.00  0.00    +0.175 HD
ENDBRANCH  24  28
ENDBRANCH   1  24
TORSDOF 5
ENDMDL
MODEL 2
REMARK VINA RESULT:     -10.4      3.367      5.665
REMARK  Name = 24794406
REMARK  5 active torsions:
REMARK  status: ('A' for Active; 'I' for Inactive)
REMARK    1  A    between atoms: C_1  and  S_24
REMARK    2  A    between atoms: C_2  and  N_8
REMARK    3  A    between atoms: C_9  and  C_11
REMARK    4  A    between atoms: C_12  and  N_18
REMARK    5  A    between atoms: S_24  and  N_28
REMARK                            x       y       z     vdW  Elec       q    Type
REMARK                         _______ _______ _______ _____ _____    ______ ____
ROOT
ATOM      1  C   UNL     1      35.199 -23.535 -16.347  0.00  0.00    +0.139 C 
ATOM      2  C   UNL     1      36.190 -22.656 -16.784  0.00  0.00    +0.070 C 
ATOM      3  C   UNL     1      35.474 -24.440 -15.321  0.00  0.00    +0.021 C 
ATOM      4  C   UNL     1      37.456 -22.684 -16.198  0.00  0.00    +0.016 C 
ATOM      5  C   UNL     1      36.739 -24.467 -14.735  0.00  0.00    +0.001 C 
ATOM      6  C   UNL     1      37.730 -23.588 -15.173  0.00  0.00    +0.001 C 
ENDROOT
BRANCH   2   8
ATOM      7  O   UNL     1      36.122 -23.046 -19.756  0.00  0.00    -0.270 OA
ATOM      8  N   UNL     1      35.938 -21.728 -17.824  0.00  0.00    -0.279 N 
ATOM      9  C   UNL     1      35.916 -21.952 -19.209  0.00  0.00    +0.250 C 
ATOM     10  H   UNL     1      35.756 -20.804 -17.538  0.00  0.00    +0.155 HD
BRANCH   9  11
ATOM     11  C   UNL     1      35.653 -20.785 -20.035  0.00  0.00    +0.054 C 
ATOM     12  C   UNL     1      35.152 -18.545 -21.621  0.00  0.00    +0.058 C 
ATOM     13  C   UNL     1      36.709 -19.972 -20.447  0.00  0.00    +0.006 C 
ATOM     14  C   UNL     1      34.348 -20.478 -20.416  0.00  0.00    +0.006 C 
ATOM     15  C   UNL     1      36.458 -18.851 -21.240  0.00  0.00    +0.015 C 
ATOM     16  C   UNL     1      34.096 -19.359 -21.208  0.00  0.00    +0.015 C 
BRANCH  12  18
ATOM     17  O   UNL     1      34.499 -15.907 -20.631  0.00  0.00    -0.269 OA
ATOM     18  N   UNL     1      34.891 -17.381 -22.446  0.00  0.00    -0.233 N 
ATOM     19  C   UNL     1      34.619 -16.129 -21.837  0.00  0.00    +0.257 C 
ATOM     20  C   UNL     1      34.880 -17.487 -23.839  0.00  0.00    +0.072 C 
ATOM     21  C   UNL     1      34.407 -14.971 -22.759  0.00  0.00    +0.059 C 
ATOM     22  C   UNL     1      34.654 -16.443 -24.643  0.00  0.00    +0.017 C 
ATOM     23  C   UNL     1      34.418 -15.146 -24.082  0.00  0.00    +0.006 C 
ENDBRANCH  12  18
ENDBRANCH   9  11
ENDBRANCH   2   8
BRANCH   1  24
ATOM     24  S   UNL     1      33.598 -23.533 -17.056  0.00  0.00    +0.076 S 
ATOM     25  O   UNL     1      33.592 -24.518 -18.130  0.00  0.00    -0.150 OA
ATOM     26  O   UNL     1      33.230 -22.157 -17.359  0.00  0.00    -0.150 OA
BRANCH  24  28
ATOM     27 CL   UNL     1      26.849 -23.031 -16.115  0.00  0.00    -0.081 Cl
ATOM     28  N   UNL     1      32.617 -24.128 -15.774  0.00  0.00    -0.199 N 
ATOM     29  N   UNL     1      30.812 -22.705 -16.348  0.00  0.00    -0.227 NA
ATOM     30  C   UNL     1      31.198 -23.897 -15.840  0.00  0.00    +0.147 C 
ATOM     31  C   UNL     1      30.320 -24.872 -15.396  0.00  0.00    +0.036 C 
ATOM     32  C   UNL     1      28.957 -24.608 -15.481  0.00  0.00    +0.016 C 
ATOM     33  C   UNL     1      29.480 -22.484 -16.415  0.00  0.00    +0.112 C 
ATOM     34  C   UNL     1      28.521 -23.393 -15.999  0.00  0.00    +0.077 C 
ATOM     35  H   UNL     1      33.015 -24.612 -15.015  0.00  0.00    +0.175 HD
ENDBRANCH  24  28
ENDBRANCH   1  24
TORSDOF 5
ENDMDL
MODEL 3
REMARK VINA RESULT:     -10.1      3.304      5.493
REMARK  Name = 24794406
REMARK  5 active torsions:
REMARK  status: ('A' for Active; 'I' for Inactive)
REMARK    1  A    between atoms: C_1  and  S_24
REMARK    2  A    between atoms: C_2  and  N_8
REMARK    3  A    between atoms: C_9  and  C_11
REMARK    4  A    between atoms: C_12  and  N_18
REMARK    5  A    between atoms: S_24  and  N_28
REMARK                            x       y       z     vdW  Elec       q    Type
REMARK                         _______ _______ _______ _____ _____    ______ ____
ROOT
ATOM      1  C   UNL     1      35.154 -23.541 -16.367  0.00  0.00    +0.139 C 
ATOM      2  C   UNL     1      36.149 -22.669 -16.809  0.00  0.00    +0.070 C 
ATOM      3  C   UNL     1      35.429 -24.452 -15.346  0.00  0.00    +0.021 C 
ATOM      4  C   UNL     1      37.418 -22.708 -16.232  0.00  0.00    +0.016 C 
ATOM      5  C   UNL     1      36.698 -24.490 -14.768  0.00  0.00    +0.001 C 
ATOM      6  C   UNL     1      37.692 -23.617 -15.211  0.00  0.00    +0.001 C 
ENDROOT
BRANCH   2   8
ATOM      7  O   UNL     1      36.067 -23.047 -19.782  0.00  0.00    -0.270 OA
ATOM      8  N   UNL     1      35.897 -21.735 -17.844  0.00  0.00    -0.279 N 
ATOM      9  C   UNL     1      35.868 -21.954 -19.229  0.00  0.00    +0.250 C 
ATOM     10  H   UNL     1      35.720 -20.811 -17.554  0.00  0.00    +0.155 HD
BRANCH   9  11
ATOM     11  C   UNL     1      35.608 -20.783 -20.051  0.00  0.00    +0.054 C 
ATOM     12  C   UNL     1      35.105 -18.538 -21.628  0.00  0.00    +0.058 C 
ATOM     13  C   UNL     1      34.299 -20.464 -20.413  0.00  0.00    +0.006 C 
ATOM     14  C   UNL     1      36.664 -19.979 -20.477  0.00  0.00    +0.006 C 
ATOM     15  C   UNL     1      34.048 -19.341 -21.203  0.00  0.00    +0.015 C 
ATOM     16  C   UNL     1      36.414 -18.857 -21.266  0.00  0.00    +0.015 C 
BRANCH  12  18
ATOM     17  O   UNL     1      34.800 -18.549 -24.504  0.00  0.00    -0.269 OA
ATOM     18  N   UNL     1      34.844 -17.370 -22.448  0.00  0.00    -0.233 N 
ATOM     19  C   UNL     1      34.675 -17.513 -23.849  0.00  0.00    +0.257 C 
ATOM     20  C   UNL     1      34.782 -16.099 -21.872  0.00  0.00    +0.072 C 
ATOM     21  C   UNL     1      34.364 -16.266 -24.614  0.00  0.00    +0.059 C 
ATOM     22  C   UNL     1      34.535 -14.993 -22.582  0.00  0.00    +0.017 C 
ATOM     23  C   UNL     1      34.313 -15.085 -23.994  0.00  0.00    +0.006 C 
ENDBRANCH  12  18
ENDBRANCH   9  11
ENDBRANCH   2   8
BRANCH   1  24
ATOM     24  S   UNL     1      33.548 -23.524 -17.065  0.00  0.00    +0.076 S 
ATOM     25  O   UNL     1      33.530 -24.500 -18.146  0.00  0.00    -0.150 OA
ATOM     26  O   UNL     1      33.186 -22.144 -17.354  0.00  0.00    -0.150 OA
BRANCH  24  28
ATOM     27 CL   UNL     1      26.802 -23.036 -16.098  0.00  0.00    -0.081 Cl
ATOM     28  N   UNL     1      32.573 -24.124 -15.781  0.00  0.00    -0.199 N 
ATOM     29  N   UNL     1      30.764 -22.703 -16.345  0.00  0.00    -0.227 NA
ATOM     30  C   UNL     1      31.153 -23.896 -15.841  0.00  0.00    +0.147 C 
ATOM     31  C   UNL     1      30.278 -24.874 -15.397  0.00  0.00    +0.036 C 
ATOM     32  C   UNL     1      28.914 -24.611 -15.476  0.00  0.00    +0.016 C 
ATOM     33  C   UNL     1      29.431 -22.484 -16.406  0.00  0.00    +0.112 C 
ATOM     34  C   UNL     1      28.475 -23.395 -15.989  0.00  0.00    +0.077 C 
ATOM     35  H   UNL     1      32.974 -24.610 -15.024  0.00  0.00    +0.175 HD
ENDBRANCH  24  28
ENDBRANCH   1  24
TORSDOF 5
ENDMDL
MODEL 4
REMARK VINA RESULT:      -9.6      3.187      5.458
REMARK  Name = 24794406
REMARK  5 active torsions:
REMARK  status: ('A' for Active; 'I' for Inactive)
REMARK    1  A    between atoms: C_1  and  S_24
REMARK    2  A    between atoms: C_2  and  N_8
REMARK    3  A    between atoms: C_9  and  C_11
REMARK    4  A    between atoms: C_12  and  N_18
REMARK    5  A    between atoms: S_24  and  N_28
REMARK                            x       y       z     vdW  Elec       q    Type
REMARK                         _______ _______ _______ _____ _____    ______ ____
ROOT
ATOM      1  C   UNL     1      34.038 -24.170 -14.684  0.00  0.00    +0.139 C 
ATOM      2  C   UNL     1      35.080 -24.053 -15.603  0.00  0.00    +0.070 C 
ATOM      3  C   UNL     1      34.138 -25.076 -13.628  0.00  0.00    +0.021 C 
ATOM      4  C   UNL     1      36.222 -24.843 -15.467  0.00  0.00    +0.016 C 
ATOM      5  C   UNL     1      35.280 -25.866 -13.492  0.00  0.00    +0.001 C 
ATOM      6  C   UNL     1      36.322 -25.748 -14.412  0.00  0.00    +0.001 C 
ENDROOT
BRANCH   2   8
ATOM      7  O   UNL     1      33.774 -24.334 -18.287  0.00  0.00    -0.270 OA
ATOM      8  N   UNL     1      35.004 -23.141 -16.684  0.00  0.00    -0.279 N 
ATOM      9  C   UNL     1      34.381 -23.312 -17.929  0.00  0.00    +0.250 C 
ATOM     10  H   UNL     1      35.448 -22.273 -16.545  0.00  0.00    +0.155 HD
BRANCH   9  11
ATOM     11  C   UNL     1      34.497 -22.198 -18.855  0.00  0.00    +0.054 C 
ATOM     12  C   UNL     1      34.721 -20.057 -20.630  0.00  0.00    +0.058 C 
ATOM     13  C   UNL     1      35.757 -21.738 -19.238  0.00  0.00    +0.006 C 
ATOM     14  C   UNL     1      33.350 -21.586 -19.359  0.00  0.00    +0.006 C 
ATOM     15  C   UNL     1      35.869 -20.668 -20.126  0.00  0.00    +0.015 C 
ATOM     16  C   UNL     1      33.461 -20.516 -20.246  0.00  0.00    +0.015 C 
BRANCH  12  18
ATOM     17  O   UNL     1      34.922 -20.286 -23.507  0.00  0.00    -0.269 OA
ATOM     18  N   UNL     1      34.837 -18.945 -21.554  0.00  0.00    -0.233 N 
ATOM     19  C   UNL     1      34.889 -19.188 -22.950  0.00  0.00    +0.257 C 
ATOM     20  C   UNL     1      34.922 -17.635 -21.077  0.00  0.00    +0.072 C 
ATOM     21  C   UNL     1      34.962 -17.983 -23.834  0.00  0.00    +0.059 C 
ATOM     22  C   UNL     1      35.021 -16.575 -21.888  0.00  0.00    +0.017 C 
ATOM     23  C   UNL     1      35.034 -16.758 -23.308  0.00  0.00    +0.006 C 
ENDBRANCH  12  18
ENDBRANCH   9  11
ENDBRANCH   2   8
BRANCH   1  24
ATOM     24  S   UNL     1      32.588 -23.196 -14.818  0.00  0.00    +0.076 S 
ATOM     25  O   UNL     1      32.725 -22.367 -16.008  0.00  0.00    -0.150 OA
ATOM     26  O   UNL     1      32.344 -22.554 -13.535  0.00  0.00    -0.150 OA
BRANCH  24  28
ATOM     27 CL   UNL     1      25.911 -22.379 -16.013  0.00  0.00    -0.081 Cl
ATOM     28  N   UNL     1      31.370 -24.374 -15.118  0.00  0.00    -0.199 N 
ATOM     29  N   UNL     1      29.623 -22.847 -14.646  0.00  0.00    -0.227 NA
ATOM     30  C   UNL     1      30.028 -23.917 -15.366  0.00  0.00    +0.147 C 
ATOM     31  C   UNL     1      29.239 -24.569 -16.298  0.00  0.00    +0.036 C 
ATOM     32  C   UNL     1      27.949 -24.092 -16.507  0.00  0.00    +0.016 C 
ATOM     33  C   UNL     1      28.363 -22.412 -14.875  0.00  0.00    +0.112 C 
ATOM     34  C   UNL     1      27.495 -22.993 -15.785  0.00  0.00    +0.077 C 
ATOM     35  H   UNL     1      31.584 -25.335 -15.120  0.00  0.00    +0.175 HD
ENDBRANCH  24  28
ENDBRANCH   1  24
TORSDOF 5
ENDMDL
MODEL 5
REMARK VINA RESULT:      -9.5     11.895     17.959
REMARK  Name = 24794406
REMARK  5 active torsions:
REMARK  status: ('A' for Active; 'I' for Inactive)
REMARK    1  A    between atoms: C_1  and  S_24
REMARK    2  A    between atoms: C_2  and  N_8
REMARK    3  A    between atoms: C_9  and  C_11
REMARK    4  A    between atoms: C_12  and  N_18
REMARK    5  A    between atoms: S_24  and  N_28
REMARK                            x       y       z     vdW  Elec       q    Type
REMARK                         _______ _______ _______ _____ _____    ______ ____
ROOT
ATOM      1  C   UNL     1      31.857  -5.525 -23.275  0.00  0.00    +0.139 C 
ATOM      2  C   UNL     1      31.309  -6.569 -22.530  0.00  0.00    +0.070 C 
ATOM      3  C   UNL     1      31.431  -4.215 -23.057  0.00  0.00    +0.021 C 
ATOM      4  C   UNL     1      30.335  -6.303 -21.568  0.00  0.00    +0.016 C 
ATOM      5  C   UNL     1      30.458  -3.949 -22.094  0.00  0.00    +0.001 C 
ATOM      6  C   UNL     1      29.910  -4.994 -21.349  0.00  0.00    +0.001 C 
ENDROOT
BRANCH   2   8
ATOM      7  O   UNL     1      32.237  -8.629 -20.558  0.00  0.00    -0.270 OA
ATOM      8  N   UNL     1      31.723  -7.909 -22.732  0.00  0.00    -0.279 N 
ATOM      9  C   UNL     1      32.152  -8.843 -21.778  0.00  0.00    +0.250 C 
ATOM     10  H   UNL     1      31.709  -8.226 -23.664  0.00  0.00    +0.155 HD
BRANCH   9  11
ATOM     11  C   UNL     1      32.543 -10.144 -22.296  0.00  0.00    +0.054 C 
ATOM     12  C   UNL     1      33.294 -12.639 -23.293  0.00  0.00    +0.058 C 
ATOM     13  C   UNL     1      33.462 -10.230 -23.342  0.00  0.00    +0.006 C 
ATOM     14  C   UNL     1      32.000 -11.306 -21.749  0.00  0.00    +0.006 C 
ATOM     15  C   UNL     1      33.837 -11.478 -23.841  0.00  0.00    +0.015 C 
ATOM     16  C   UNL     1      32.375 -12.554 -22.247  0.00  0.00    +0.015 C 
BRANCH  12  18
ATOM     17  O   UNL     1      35.020 -14.527 -21.943  0.00  0.00    -0.269 OA
ATOM     18  N   UNL     1      33.684 -13.937 -23.810  0.00  0.00    -0.233 N 
ATOM     19  C   UNL     1      34.507 -14.791 -23.032  0.00  0.00    +0.257 C 
ATOM     20  C   UNL     1      33.275 -14.344 -25.082  0.00  0.00    +0.072 C 
ATOM     21  C   UNL     1      34.824 -16.129 -23.620  0.00  0.00    +0.059 C 
ATOM     22  C   UNL     1      33.600 -15.534 -25.601  0.00  0.00    +0.017 C 
ATOM     23  C   UNL     1      34.392 -16.453 -24.841  0.00  0.00    +0.006 C 
ENDBRANCH  12  18
ENDBRANCH   9  11
ENDBRANCH   2   8
BRANCH   1  24
ATOM     24  S   UNL     1      33.082  -5.817 -24.493  0.00  0.00    +0.076 S 
ATOM     25  O   UNL     1      32.488  -6.661 -25.520  0.00  0.00    -0.150 OA
ATOM     26  O   UNL     1      34.297  -6.264 -23.826  0.00  0.00    -0.150 OA
BRANCH  24  28
ATOM     27 CL   UNL     1      36.806  -3.899 -29.891  0.00  0.00    -0.081 Cl
ATOM     28  N   UNL     1      33.330  -4.250 -25.160  0.00  0.00    -0.199 N 
ATOM     29  N   UNL     1      35.229  -4.954 -26.388  0.00  0.00    -0.227 NA
ATOM     30  C   UNL     1      34.156  -4.133 -26.333  0.00  0.00    +0.147 C 
ATOM     31  C   UNL     1      33.826  -3.218 -27.319  0.00  0.00    +0.036 C 
ATOM     32  C   UNL     1      34.651  -3.141 -28.437  0.00  0.00    +0.016 C 
ATOM     33  C   UNL     1      36.007  -4.850 -27.489  0.00  0.00    +0.112 C 
ATOM     34  C   UNL     1      35.765  -3.969 -28.530  0.00  0.00    +0.077 C 
ATOM     35  H   UNL     1      32.919  -3.454 -24.751  0.00  0.00    +0.175 HD
ENDBRANCH  24  28
ENDBRANCH   1  24
TORSDOF 5
ENDMDL
