MODEL 1
REMARK VINA RESULT:     -11.7      0.000      0.000
REMARK  Name = 56842109
REMARK  7 active torsions:
REMARK  status: ('A' for Active; 'I' for Inactive)
REMARK    1  A    between atoms: C_1  and  C_24
REMARK    2  A    between atoms: C_3  and  C_9
REMARK    3  A    between atoms: C_5  and  O_22
REMARK    4  A    between atoms: N_8  and  C_11
REMARK    5  A    between atoms: C_11  and  C_12
REMARK    6  A    between atoms: C_15  and  C_21
REMARK    7  A    between atoms: C_24  and  C_29
REMARK                            x       y       z     vdW  Elec       q    Type
REMARK                         _______ _______ _______ _____ _____    ______ ____
ROOT
ATOM      1  C   UNL     1      35.920 -24.107 -13.817  0.00  0.00    -0.018 C 
ATOM      2  C   UNL     1      35.246 -23.797 -14.999  0.00  0.00    +0.003 C 
ATOM      3  C   UNL     1      33.852 -23.825 -15.034  0.00  0.00    +0.087 C 
ATOM      4  C   UNL     1      35.199 -24.443 -12.672  0.00  0.00    -0.001 C 
ATOM      5  C   UNL     1      33.131 -24.161 -13.889  0.00  0.00    +0.143 C 
ATOM      6  C   UNL     1      33.805 -24.471 -12.707  0.00  0.00    +0.037 C 
ENDROOT
BRANCH   3   9
ATOM      7  O   UNL     1      31.969 -23.172 -16.269  0.00  0.00    -0.270 OA
ATOM      8  N   UNL     1      33.929 -23.543 -17.451  0.00  0.00    -0.297 N 
ATOM      9  C   UNL     1      33.168 -23.496 -16.278  0.00  0.00    +0.249 C 
ATOM     10  H   UNL     1      34.875 -23.810 -17.383  0.00  0.00    +0.150 HD
BRANCH   8  11
ATOM     11  C   UNL     1      33.401 -23.223 -18.757  0.00  0.00    +0.117 C 
BRANCH  11  12
ATOM     12  C   UNL     1      34.155 -22.100 -19.409  0.00  0.00    -0.003 C 
ATOM     13  C   UNL     1      35.548 -22.069 -19.348  0.00  0.00    -0.003 C 
ATOM     14  C   UNL     1      33.463 -21.088 -20.074  0.00  0.00    -0.003 C 
ATOM     15  C   UNL     1      35.558 -20.015 -20.619  0.00  0.00    +0.071 C 
ATOM     16  C   UNL     1      36.250 -21.027 -19.953  0.00  0.00    +0.004 C 
ATOM     17  C   UNL     1      34.165 -20.046 -20.679  0.00  0.00    +0.004 C 
BRANCH  15  21
ATOM     18  F   UNL     1      35.700 -17.691 -21.101  0.00  0.00    -0.166 F 
ATOM     19  F   UNL     1      37.577 -18.743 -20.788  0.00  0.00    -0.166 F 
ATOM     20  F   UNL     1      36.455 -19.054 -22.617  0.00  0.00    -0.166 F 
ATOM     21  C   UNL     1      36.308 -18.902 -21.268  0.00  0.00    +0.419 C 
ENDBRANCH  15  21
ENDBRANCH  11  12
ENDBRANCH   8  11
ENDBRANCH   3   9
BRANCH   5  22
ATOM     22  O   UNL     1      31.768 -24.191 -13.904  0.00  0.00    -0.471 OA
ATOM     23  C   UNL     1      31.142 -25.380 -13.426  0.00  0.00    +0.252 C 
ENDBRANCH   5  22
BRANCH   1  24
ATOM     24  C   UNL     1      37.428 -24.075 -13.778  0.00  0.00    +0.080 C 
BRANCH  24  29
ATOM     25  O   UNL     1      39.435 -25.212 -13.065  0.00  0.00    -0.428 OA
ATOM     26  O   UNL     1      36.759 -26.985 -14.438  0.00  0.00    -0.271 OA
ATOM     27  O   UNL     1      41.247 -26.345 -13.879  0.00  0.00    -0.226 OA
ATOM     28  N   UNL     1      39.079 -26.976 -14.367  0.00  0.00    -0.218 N 
ATOM     29  C   UNL     1      38.007 -25.335 -13.169  0.00  0.00    +0.250 C 
ATOM     30  C   UNL     1      37.828 -26.529 -14.063  0.00  0.00    +0.271 C 
ATOM     31  C   UNL     1      40.036 -26.205 -13.789  0.00  0.00    +0.408 C 
ATOM     32  H   UNL     1      39.266 -27.760 -14.933  0.00  0.00    +0.161 HD
ENDBRANCH  24  29
ENDBRANCH   1  24
TORSDOF 7
ENDMDL
MODEL 2
REMARK VINA RESULT:     -11.5      7.863     11.489
REMARK  Name = 56842109
REMARK  7 active torsions:
REMARK  status: ('A' for Active; 'I' for Inactive)
REMARK    1  A    between atoms: C_1  and  C_24
REMARK    2  A    between atoms: C_3  and  C_9
REMARK    3  A    between atoms: C_5  and  O_22
REMARK    4  A    between atoms: N_8  and  C_11
REMARK    5  A    between atoms: C_11  and  C_12
REMARK    6  A    between atoms: C_15  and  C_21
REMARK    7  A    between atoms: C_24  and  C_29
REMARK                            x       y       z     vdW  Elec       q    Type
REMARK                         _______ _______ _______ _____ _____    ______ ____
ROOT
ATOM      1  C   UNL     1      35.283 -17.257 -21.524  0.00  0.00    -0.018 C 
ATOM      2  C   UNL     1      34.346 -16.570 -20.752  0.00  0.00    +0.003 C 
ATOM      3  C   UNL     1      33.609 -15.528 -21.314  0.00  0.00    +0.087 C 
ATOM      4  C   UNL     1      35.481 -16.904 -22.858  0.00  0.00    -0.001 C 
ATOM      5  C   UNL     1      33.806 -15.174 -22.649  0.00  0.00    +0.143 C 
ATOM      6  C   UNL     1      34.743 -15.862 -23.421  0.00  0.00    +0.037 C 
ENDROOT
BRANCH   3   9
ATOM      7  O   UNL     1      31.852 -15.459 -19.763  0.00  0.00    -0.270 OA
ATOM      8  N   UNL     1      32.646 -13.427 -20.549  0.00  0.00    -0.297 N 
ATOM      9  C   UNL     1      32.634 -14.825 -20.491  0.00  0.00    +0.249 C 
ATOM     10  H   UNL     1      33.294 -12.991 -21.149  0.00  0.00    +0.150 HD
BRANCH   8  11
ATOM     11  C   UNL     1      31.759 -12.589 -19.775  0.00  0.00    +0.117 C 
BRANCH  11  12
ATOM     12  C   UNL     1      31.806 -11.157 -20.222  0.00  0.00    -0.003 C 
ATOM     13  C   UNL     1      31.965 -10.138 -19.282  0.00  0.00    -0.003 C 
ATOM     14  C   UNL     1      31.691 -10.844 -21.577  0.00  0.00    -0.003 C 
ATOM     15  C   UNL     1      31.894  -8.495 -21.050  0.00  0.00    +0.071 C 
ATOM     16  C   UNL     1      32.009  -8.807 -19.696  0.00  0.00    +0.004 C 
ATOM     17  C   UNL     1      31.734  -9.513 -21.990  0.00  0.00    +0.004 C 
BRANCH  15  21
ATOM     18  F   UNL     1      33.109  -6.762 -22.135  0.00  0.00    -0.166 F 
ATOM     19  F   UNL     1      30.947  -6.734 -22.365  0.00  0.00    -0.166 F 
ATOM     20  F   UNL     1      31.840  -6.175 -20.469  0.00  0.00    -0.166 F 
ATOM     21  C   UNL     1      31.944  -7.072 -21.494  0.00  0.00    +0.419 C 
ENDBRANCH  15  21
ENDBRANCH  11  12
ENDBRANCH   8  11
ENDBRANCH   3   9
BRANCH   5  22
ATOM     22  O   UNL     1      33.093 -14.162 -23.217  0.00  0.00    -0.471 OA
ATOM     23  C   UNL     1      33.834 -13.150 -23.897  0.00  0.00    +0.252 C 
ENDBRANCH   5  22
BRANCH   1  24
ATOM     24  C   UNL     1      36.080 -18.384 -20.915  0.00  0.00    +0.080 C 
BRANCH  24  29
ATOM     25  O   UNL     1      34.065 -19.658 -21.297  0.00  0.00    -0.428 OA
ATOM     26  O   UNL     1      36.853 -21.118 -19.785  0.00  0.00    -0.271 OA
ATOM     27  O   UNL     1      32.327 -20.651 -20.192  0.00  0.00    -0.226 OA
ATOM     28  N   UNL     1      34.532 -21.155 -19.724  0.00  0.00    -0.218 N 
ATOM     29  C   UNL     1      35.499 -19.740 -21.255  0.00  0.00    +0.250 C 
ATOM     30  C   UNL     1      35.755 -20.752 -20.174  0.00  0.00    +0.271 C 
ATOM     31  C   UNL     1      33.528 -20.513 -20.375  0.00  0.00    +0.408 C 
ATOM     32  H   UNL     1      34.394 -21.826 -19.017  0.00  0.00    +0.161 HD
ENDBRANCH  24  29
ENDBRANCH   1  24
TORSDOF 7
ENDMDL
MODEL 3
REMARK VINA RESULT:     -11.3      2.291      2.698
REMARK  Name = 56842109
REMARK  7 active torsions:
REMARK  status: ('A' for Active; 'I' for Inactive)
REMARK    1  A    between atoms: C_1  and  C_24
REMARK    2  A    between atoms: C_3  and  C_9
REMARK    3  A    between atoms: C_5  and  O_22
REMARK    4  A    between atoms: N_8  and  C_11
REMARK    5  A    between atoms: C_11  and  C_12
REMARK    6  A    between atoms: C_15  and  C_21
REMARK    7  A    between atoms: C_24  and  C_29
REMARK                            x       y       z     vdW  Elec       q    Type
REMARK                         _______ _______ _______ _____ _____    ______ ____
ROOT
ATOM      1  C   UNL     1      33.981 -24.323 -13.901  0.00  0.00    -0.018 C 
ATOM      2  C   UNL     1      34.067 -24.216 -15.290  0.00  0.00    +0.003 C 
ATOM      3  C   UNL     1      32.972 -23.762 -16.024  0.00  0.00    +0.087 C 
ATOM      4  C   UNL     1      32.800 -23.973 -13.248  0.00  0.00    -0.001 C 
ATOM      5  C   UNL     1      31.790 -23.412 -15.370  0.00  0.00    +0.143 C 
ATOM      6  C   UNL     1      31.704 -23.519 -13.982  0.00  0.00    +0.037 C 
ENDROOT
BRANCH   3   9
ATOM      7  O   UNL     1      33.536 -24.603 -18.138  0.00  0.00    -0.270 OA
ATOM      8  N   UNL     1      32.641 -22.465 -18.058  0.00  0.00    -0.297 N 
ATOM      9  C   UNL     1      33.084 -23.657 -17.473  0.00  0.00    +0.249 C 
ATOM     10  H   UNL     1      32.295 -21.757 -17.468  0.00  0.00    +0.150 HD
BRANCH   8  11
ATOM     11  C   UNL     1      32.666 -22.220 -19.482  0.00  0.00    +0.117 C 
BRANCH  11  12
ATOM     12  C   UNL     1      33.822 -21.350 -19.882  0.00  0.00    -0.003 C 
ATOM     13  C   UNL     1      35.118 -21.688 -19.489  0.00  0.00    -0.003 C 
ATOM     14  C   UNL     1      33.603 -20.204 -20.646  0.00  0.00    -0.003 C 
ATOM     15  C   UNL     1      35.972 -19.735 -20.625  0.00  0.00    +0.071 C 
ATOM     16  C   UNL     1      36.193 -20.881 -19.860  0.00  0.00    +0.004 C 
ATOM     17  C   UNL     1      34.677 -19.397 -21.017  0.00  0.00    +0.004 C 
BRANCH  15  21
ATOM     18  F   UNL     1      37.978 -18.627 -19.990  0.00  0.00    -0.166 F 
ATOM     19  F   UNL     1      37.892 -19.413 -22.016  0.00  0.00    -0.166 F 
ATOM     20  F   UNL     1      36.749 -17.646 -21.492  0.00  0.00    -0.166 F 
ATOM     21  C   UNL     1      37.122 -18.874 -21.024  0.00  0.00    +0.419 C 
ENDBRANCH  15  21
ENDBRANCH  11  12
ENDBRANCH   8  11
ENDBRANCH   3   9
BRANCH   5  22
ATOM     22  O   UNL     1      30.710 -22.963 -16.070  0.00  0.00    -0.471 OA
ATOM     23  C   UNL     1      29.438 -23.069 -15.434  0.00  0.00    +0.252 C 
ENDBRANCH   5  22
BRANCH   1  24
ATOM     24  C   UNL     1      35.167 -24.814 -13.108  0.00  0.00    +0.080 C 
BRANCH  24  29
ATOM     25  O   UNL     1      36.632 -23.104 -12.235  0.00  0.00    -0.428 OA
ATOM     26  O   UNL     1      35.234 -25.518 -10.134  0.00  0.00    -0.271 OA
ATOM     27  O   UNL     1      38.710 -22.806 -11.331  0.00  0.00    -0.226 OA
ATOM     28  N   UNL     1      37.176 -24.281 -10.431  0.00  0.00    -0.218 N 
ATOM     29  C   UNL     1      35.479 -23.909 -11.935  0.00  0.00    +0.250 C 
ATOM     30  C   UNL     1      35.907 -24.686 -10.721  0.00  0.00    +0.271 C 
ATOM     31  C   UNL     1      37.617 -23.353 -11.319  0.00  0.00    +0.408 C 
ATOM     32  H   UNL     1      37.707 -24.618  -9.674  0.00  0.00    +0.161 HD
ENDBRANCH  24  29
ENDBRANCH   1  24
TORSDOF 7
ENDMDL
MODEL 4
REMARK VINA RESULT:     -11.3      7.411     11.014
REMARK  Name = 56842109
REMARK  7 active torsions:
REMARK  status: ('A' for Active; 'I' for Inactive)
REMARK    1  A    between atoms: C_1  and  C_24
REMARK    2  A    between atoms: C_3  and  C_9
REMARK    3  A    between atoms: C_5  and  O_22
REMARK    4  A    between atoms: N_8  and  C_11
REMARK    5  A    between atoms: C_11  and  C_12
REMARK    6  A    between atoms: C_15  and  C_21
REMARK    7  A    between atoms: C_24  and  C_29
REMARK                            x       y       z     vdW  Elec       q    Type
REMARK                         _______ _______ _______ _____ _____    ______ ____
ROOT
ATOM      1  C   UNL     1      35.027 -17.926 -22.491  0.00  0.00    -0.018 C 
ATOM      2  C   UNL     1      34.624 -17.015 -21.514  0.00  0.00    +0.003 C 
ATOM      3  C   UNL     1      34.312 -15.703 -21.871  0.00  0.00    +0.087 C 
ATOM      4  C   UNL     1      35.117 -17.525 -23.823  0.00  0.00    -0.001 C 
ATOM      5  C   UNL     1      34.402 -15.301 -23.203  0.00  0.00    +0.143 C 
ATOM      6  C   UNL     1      34.805 -16.213 -24.180  0.00  0.00    +0.037 C 
ENDROOT
BRANCH   3   9
ATOM      7  O   UNL     1      34.733 -14.208 -20.114  0.00  0.00    -0.270 OA
ATOM      8  N   UNL     1      32.518 -14.527 -20.719  0.00  0.00    -0.297 N 
ATOM      9  C   UNL     1      33.891 -14.768 -20.835  0.00  0.00    +0.249 C 
ATOM     10  H   UNL     1      31.907 -15.007 -21.324  0.00  0.00    +0.150 HD
BRANCH   8  11
ATOM     11  C   UNL     1      31.948 -13.611 -19.758  0.00  0.00    +0.117 C 
BRANCH  11  12
ATOM     12  C   UNL     1      31.907 -12.204 -20.278  0.00  0.00    -0.003 C 
ATOM     13  C   UNL     1      31.804 -11.134 -19.388  0.00  0.00    -0.003 C 
ATOM     14  C   UNL     1      31.973 -11.964 -21.651  0.00  0.00    -0.003 C 
ATOM     15  C   UNL     1      31.832  -9.587 -21.243  0.00  0.00    +0.071 C 
ATOM     16  C   UNL     1      31.766  -9.826 -19.870  0.00  0.00    +0.004 C 
ATOM     17  C   UNL     1      31.935 -10.657 -22.133  0.00  0.00    +0.004 C 
BRANCH  15  21
ATOM     18  F   UNL     1      30.902  -8.029 -22.779  0.00  0.00    -0.166 F 
ATOM     19  F   UNL     1      31.440  -7.266 -20.815  0.00  0.00    -0.166 F 
ATOM     20  F   UNL     1      32.993  -7.753 -22.248  0.00  0.00    -0.166 F 
ATOM     21  C   UNL     1      31.795  -8.189 -21.758  0.00  0.00    +0.419 C 
ENDBRANCH  15  21
ENDBRANCH  11  12
ENDBRANCH   8  11
ENDBRANCH   3   9
BRANCH   5  22
ATOM     22  O   UNL     1      34.098 -14.025 -23.571  0.00  0.00    -0.471 OA
ATOM     23  C   UNL     1      33.428 -13.854 -24.819  0.00  0.00    +0.252 C 
ENDBRANCH   5  22
BRANCH   1  24
ATOM     24  C   UNL     1      35.364 -19.345 -22.104  0.00  0.00    +0.080 C 
BRANCH  24  29
ATOM     25  O   UNL     1      36.355 -20.187 -20.070  0.00  0.00    -0.428 OA
ATOM     26  O   UNL     1      32.936 -20.540 -20.682  0.00  0.00    -0.271 OA
ATOM     27  O   UNL     1      36.868 -22.136 -18.991  0.00  0.00    -0.226 OA
ATOM     28  N   UNL     1      34.725 -21.650 -19.703  0.00  0.00    -0.218 N 
ATOM     29  C   UNL     1      35.169 -19.592 -20.623  0.00  0.00    +0.250 C 
ATOM     30  C   UNL     1      34.110 -20.624 -20.357  0.00  0.00    +0.271 C 
ATOM     31  C   UNL     1      36.050 -21.406 -19.532  0.00  0.00    +0.408 C 
ATOM     32  H   UNL     1      34.266 -22.464 -19.393  0.00  0.00    +0.161 HD
ENDBRANCH  24  29
ENDBRANCH   1  24
TORSDOF 7
ENDMDL
MODEL 5
REMARK VINA RESULT:     -11.3      2.509      5.999
REMARK  Name = 56842109
REMARK  7 active torsions:
REMARK  status: ('A' for Active; 'I' for Inactive)
REMARK    1  A    between atoms: C_1  and  C_24
REMARK    2  A    between atoms: C_3  and  C_9
REMARK    3  A    between atoms: C_5  and  O_22
REMARK    4  A    between atoms: N_8  and  C_11
REMARK    5  A    between atoms: C_11  and  C_12
REMARK    6  A    between atoms: C_15  and  C_21
REMARK    7  A    between atoms: C_24  and  C_29
REMARK                            x       y       z     vdW  Elec       q    Type
REMARK                         _______ _______ _______ _____ _____    ______ ____
ROOT
ATOM      1  C   UNL     1      32.187 -23.630 -14.428  0.00  0.00    -0.018 C 
ATOM      2  C   UNL     1      33.335 -23.090 -15.009  0.00  0.00    +0.003 C 
ATOM      3  C   UNL     1      34.573 -23.700 -14.805  0.00  0.00    +0.087 C 
ATOM      4  C   UNL     1      32.278 -24.779 -13.645  0.00  0.00    -0.001 C 
ATOM      5  C   UNL     1      34.664 -24.849 -14.021  0.00  0.00    +0.143 C 
ATOM      6  C   UNL     1      33.516 -25.389 -13.440  0.00  0.00    +0.037 C 
ENDROOT
BRANCH   3   9
ATOM      7  O   UNL     1      36.741 -22.809 -14.727  0.00  0.00    -0.270 OA
ATOM      8  N   UNL     1      35.737 -22.961 -16.812  0.00  0.00    -0.297 N 
ATOM      9  C   UNL     1      35.759 -23.121 -15.422  0.00  0.00    +0.249 C 
ATOM     10  H   UNL     1      34.924 -23.229 -17.299  0.00  0.00    +0.150 HD
BRANCH   8  11
ATOM     11  C   UNL     1      36.843 -22.423 -17.570  0.00  0.00    +0.117 C 
BRANCH  11  12
ATOM     12  C   UNL     1      36.378 -21.593 -18.731  0.00  0.00    -0.003 C 
ATOM     13  C   UNL     1      37.259 -20.708 -19.352  0.00  0.00    -0.003 C 
ATOM     14  C   UNL     1      35.065 -21.705 -19.188  0.00  0.00    -0.003 C 
ATOM     15  C   UNL     1      35.515 -20.049 -20.888  0.00  0.00    +0.071 C 
ATOM     16  C   UNL     1      36.828 -19.936 -20.431  0.00  0.00    +0.004 C 
ATOM     17  C   UNL     1      34.634 -20.934 -20.266  0.00  0.00    +0.004 C 
BRANCH  15  21
ATOM     18  F   UNL     1      34.025 -19.807 -22.725  0.00  0.00    -0.166 F 
ATOM     19  F   UNL     1      34.605 -17.986 -21.687  0.00  0.00    -0.166 F 
ATOM     20  F   UNL     1      36.027 -18.997 -22.975  0.00  0.00    -0.166 F 
ATOM     21  C   UNL     1      35.055 -19.226 -22.043  0.00  0.00    +0.419 C 
ENDBRANCH  15  21
ENDBRANCH  11  12
ENDBRANCH   8  11
ENDBRANCH   3   9
BRANCH   5  22
ATOM     22  O   UNL     1      35.863 -25.462 -13.813  0.00  0.00    -0.471 OA
ATOM     23  C   UNL     1      36.356 -25.481 -12.474  0.00  0.00    +0.252 C 
ENDBRANCH   5  22
BRANCH   1  24
ATOM     24  C   UNL     1      30.849 -22.970 -14.650  0.00  0.00    +0.080 C 
BRANCH  24  29
ATOM     25  O   UNL     1      29.438 -22.599 -16.574  0.00  0.00    -0.428 OA
ATOM     26  O   UNL     1      29.013 -25.412 -14.550  0.00  0.00    -0.271 OA
ATOM     27  O   UNL     1      27.288 -22.080 -17.156  0.00  0.00    -0.226 OA
ATOM     28  N   UNL     1      27.797 -23.885 -15.807  0.00  0.00    -0.218 N 
ATOM     29  C   UNL     1      30.078 -23.614 -15.783  0.00  0.00    +0.250 C 
ATOM     30  C   UNL     1      28.927 -24.441 -15.285  0.00  0.00    +0.271 C 
ATOM     31  C   UNL     1      28.084 -22.795 -16.564  0.00  0.00    +0.408 C 
ATOM     32  H   UNL     1      26.888 -24.230 -15.654  0.00  0.00    +0.161 HD
ENDBRANCH  24  29
ENDBRANCH   1  24
TORSDOF 7
ENDMDL
MODEL 6
REMARK VINA RESULT:     -11.2      5.353      9.609
REMARK  Name = 56842109
REMARK  7 active torsions:
REMARK  status: ('A' for Active; 'I' for Inactive)
REMARK    1  A    between atoms: C_1  and  C_24
REMARK    2  A    between atoms: C_3  and  C_9
REMARK    3  A    between atoms: C_5  and  O_22
REMARK    4  A    between atoms: N_8  and  C_11
REMARK    5  A    between atoms: C_11  and  C_12
REMARK    6  A    between atoms: C_15  and  C_21
REMARK    7  A    between atoms: C_24  and  C_29
REMARK                            x       y       z     vdW  Elec       q    Type
REMARK                         _______ _______ _______ _____ _____    ______ ____
ROOT
ATOM      1  C   UNL     1      35.398 -20.031 -20.919  0.00  0.00    -0.018 C 
ATOM      2  C   UNL     1      34.509 -20.861 -20.236  0.00  0.00    +0.003 C 
ATOM      3  C   UNL     1      34.966 -21.656 -19.184  0.00  0.00    +0.087 C 
ATOM      4  C   UNL     1      36.742 -19.995 -20.549  0.00  0.00    -0.001 C 
ATOM      5  C   UNL     1      36.309 -21.620 -18.814  0.00  0.00    +0.143 C 
ATOM      6  C   UNL     1      37.198 -20.789 -19.497  0.00  0.00    +0.037 C 
ENDROOT
BRANCH   3   9
ATOM      7  O   UNL     1      32.920 -22.785 -18.993  0.00  0.00    -0.270 OA
ATOM      8  N   UNL     1      34.424 -23.023 -17.244  0.00  0.00    -0.297 N 
ATOM      9  C   UNL     1      34.020 -22.514 -18.483  0.00  0.00    +0.249 C 
ATOM     10  H   UNL     1      35.310 -22.766 -16.901  0.00  0.00    +0.150 HD
BRANCH   8  11
ATOM     11  C   UNL     1      33.608 -23.905 -16.440  0.00  0.00    +0.117 C 
BRANCH  11  12
ATOM     12  C   UNL     1      34.275 -24.261 -15.144  0.00  0.00    -0.003 C 
ATOM     13  C   UNL     1      35.644 -24.528 -15.114  0.00  0.00    -0.003 C 
ATOM     14  C   UNL     1      33.527 -24.327 -13.969  0.00  0.00    -0.003 C 
ATOM     15  C   UNL     1      35.517 -24.923 -12.736  0.00  0.00    +0.071 C 
ATOM     16  C   UNL     1      36.266 -24.859 -13.910  0.00  0.00    +0.004 C 
ATOM     17  C   UNL     1      34.147 -24.658 -12.765  0.00  0.00    +0.004 C 
BRANCH  15  21
ATOM     18  F   UNL     1      35.291 -25.432 -10.424  0.00  0.00    -0.166 F 
ATOM     19  F   UNL     1      36.890 -26.442 -11.497  0.00  0.00    -0.166 F 
ATOM     20  F   UNL     1      37.073 -24.334 -11.017  0.00  0.00    -0.166 F 
ATOM     21  C   UNL     1      36.181 -25.275 -11.447  0.00  0.00    +0.419 C 
ENDBRANCH  15  21
ENDBRANCH  11  12
ENDBRANCH   8  11
ENDBRANCH   3   9
BRANCH   5  22
ATOM     22  O   UNL     1      36.773 -22.386 -17.787  0.00  0.00    -0.471 OA
ATOM     23  C   UNL     1      37.474 -21.713 -16.743  0.00  0.00    +0.252 C 
ENDBRANCH   5  22
BRANCH   1  24
ATOM     24  C   UNL     1      34.905 -19.171 -22.056  0.00  0.00    +0.080 C 
BRANCH  24  29
ATOM     25  O   UNL     1      35.150 -17.124 -20.799  0.00  0.00    -0.428 OA
ATOM     26  O   UNL     1      34.980 -17.081 -24.286  0.00  0.00    -0.271 OA
ATOM     27  O   UNL     1      34.024 -15.218 -20.226  0.00  0.00    -0.226 OA
ATOM     28  N   UNL     1      34.336 -15.850 -22.426  0.00  0.00    -0.218 N 
ATOM     29  C   UNL     1      35.510 -17.783 -22.024  0.00  0.00    +0.250 C 
ATOM     30  C   UNL     1      34.928 -16.888 -23.082  0.00  0.00    +0.271 C 
ATOM     31  C   UNL     1      34.455 -15.980 -21.080  0.00  0.00    +0.408 C 
ATOM     32  H   UNL     1      33.879 -15.100 -22.872  0.00  0.00    +0.161 HD
ENDBRANCH  24  29
ENDBRANCH   1  24
TORSDOF 7
ENDMDL
MODEL 7
REMARK VINA RESULT:     -11.1      2.202      3.707
REMARK  Name = 56842109
REMARK  7 active torsions:
REMARK  status: ('A' for Active; 'I' for Inactive)
REMARK    1  A    between atoms: C_1  and  C_24
REMARK    2  A    between atoms: C_3  and  C_9
REMARK    3  A    between atoms: C_5  and  O_22
REMARK    4  A    between atoms: N_8  and  C_11
REMARK    5  A    between atoms: C_11  and  C_12
REMARK    6  A    between atoms: C_15  and  C_21
REMARK    7  A    between atoms: C_24  and  C_29
REMARK                            x       y       z     vdW  Elec       q    Type
REMARK                         _______ _______ _______ _____ _____    ______ ____
ROOT
ATOM      1  C   UNL     1      37.534 -25.305 -13.997  0.00  0.00    -0.018 C 
ATOM      2  C   UNL     1      36.330 -24.832 -14.520  0.00  0.00    +0.003 C 
ATOM      3  C   UNL     1      36.338 -23.849 -15.509  0.00  0.00    +0.087 C 
ATOM      4  C   UNL     1      38.744 -24.795 -14.464  0.00  0.00    -0.001 C 
ATOM      5  C   UNL     1      37.549 -23.339 -15.976  0.00  0.00    +0.143 C 
ATOM      6  C   UNL     1      38.752 -23.811 -15.453  0.00  0.00    +0.037 C 
ENDROOT
BRANCH   3   9
ATOM      7  O   UNL     1      34.140 -23.066 -15.277  0.00  0.00    -0.270 OA
ATOM      8  N   UNL     1      34.970 -23.256 -17.434  0.00  0.00    -0.297 N 
ATOM      9  C   UNL     1      35.070 -23.371 -16.043  0.00  0.00    +0.249 C 
ATOM     10  H   UNL     1      35.747 -23.517 -17.980  0.00  0.00    +0.150 HD
BRANCH   8  11
ATOM     11  C   UNL     1      33.787 -22.776 -18.111  0.00  0.00    +0.117 C 
BRANCH  11  12
ATOM     12  C   UNL     1      34.120 -21.783 -19.187  0.00  0.00    -0.003 C 
ATOM     13  C   UNL     1      35.447 -21.588 -19.569  0.00  0.00    -0.003 C 
ATOM     14  C   UNL     1      33.102 -21.056 -19.805  0.00  0.00    -0.003 C 
ATOM     15  C   UNL     1      34.740 -19.940 -21.186  0.00  0.00    +0.071 C 
ATOM     16  C   UNL     1      35.758 -20.666 -20.568  0.00  0.00    +0.004 C 
ATOM     17  C   UNL     1      33.412 -20.135 -20.804  0.00  0.00    +0.004 C 
BRANCH  15  21
ATOM     18  F   UNL     1      34.753 -17.674 -21.909  0.00  0.00    -0.166 F 
ATOM     19  F   UNL     1      36.397 -18.928 -22.584  0.00  0.00    -0.166 F 
ATOM     20  F   UNL     1      34.419 -19.188 -23.435  0.00  0.00    -0.166 F 
ATOM     21  C   UNL     1      35.071 -18.956 -22.257  0.00  0.00    +0.419 C 
ENDBRANCH  15  21
ENDBRANCH  11  12
ENDBRANCH   8  11
ENDBRANCH   3   9
BRANCH   5  22
ATOM     22  O   UNL     1      37.577 -22.380 -16.945  0.00  0.00    -0.471 OA
ATOM     23  C   UNL     1      37.755 -21.032 -16.515  0.00  0.00    +0.252 C 
ENDBRANCH   5  22
BRANCH   1  24
ATOM     24  C   UNL     1      37.525 -26.369 -12.927  0.00  0.00    +0.080 C 
BRANCH  24  29
ATOM     25  O   UNL     1      35.725 -25.620 -11.502  0.00  0.00    -0.428 OA
ATOM     26  O   UNL     1      38.873 -24.115 -11.362  0.00  0.00    -0.271 OA
ATOM     27  O   UNL     1      34.316 -23.851 -11.162  0.00  0.00    -0.226 OA
ATOM     28  N   UNL     1      36.614 -23.609 -11.183  0.00  0.00    -0.218 N 
ATOM     29  C   UNL     1      37.148 -25.810 -11.572  0.00  0.00    +0.250 C 
ATOM     30  C   UNL     1      37.692 -24.425 -11.361  0.00  0.00    +0.271 C 
ATOM     31  C   UNL     1      35.448 -24.301 -11.269  0.00  0.00    +0.408 C 
ATOM     32  H   UNL     1      36.673 -22.642 -11.013  0.00  0.00    +0.161 HD
ENDBRANCH  24  29
ENDBRANCH   1  24
TORSDOF 7
ENDMDL
MODEL 8
REMARK VINA RESULT:     -11.0      2.864      6.226
REMARK  Name = 56842109
REMARK  7 active torsions:
REMARK  status: ('A' for Active; 'I' for Inactive)
REMARK    1  A    between atoms: C_1  and  C_24
REMARK    2  A    between atoms: C_3  and  C_9
REMARK    3  A    between atoms: C_5  and  O_22
REMARK    4  A    between atoms: N_8  and  C_11
REMARK    5  A    between atoms: C_11  and  C_12
REMARK    6  A    between atoms: C_15  and  C_21
REMARK    7  A    between atoms: C_24  and  C_29
REMARK                            x       y       z     vdW  Elec       q    Type
REMARK                         _______ _______ _______ _____ _____    ______ ____
ROOT
ATOM      1  C   UNL     1      32.385 -23.274 -15.154  0.00  0.00    -0.018 C 
ATOM      2  C   UNL     1      32.779 -23.164 -16.488  0.00  0.00    +0.003 C 
ATOM      3  C   UNL     1      34.131 -23.244 -16.824  0.00  0.00    +0.087 C 
ATOM      4  C   UNL     1      33.342 -23.465 -14.158  0.00  0.00    -0.001 C 
ATOM      5  C   UNL     1      35.087 -23.434 -15.828  0.00  0.00    +0.143 C 
ATOM      6  C   UNL     1      34.693 -23.545 -14.495  0.00  0.00    +0.037 C 
ENDROOT
BRANCH   3   9
ATOM      7  O   UNL     1      33.860 -23.696 -19.109  0.00  0.00    -0.270 OA
ATOM      8  N   UNL     1      35.641 -22.339 -18.506  0.00  0.00    -0.297 N 
ATOM      9  C   UNL     1      34.520 -23.128 -18.223  0.00  0.00    +0.249 C 
ATOM     10  H   UNL     1      36.117 -21.919 -17.754  0.00  0.00    +0.150 HD
BRANCH   8  11
ATOM     11  C   UNL     1      36.137 -22.109 -19.844  0.00  0.00    +0.117 C 
BRANCH  11  12
ATOM     12  C   UNL     1      35.830 -20.722 -20.326  0.00  0.00    -0.003 C 
ATOM     13  C   UNL     1      34.512 -20.356 -20.603  0.00  0.00    -0.003 C 
ATOM     14  C   UNL     1      36.860 -19.798 -20.499  0.00  0.00    -0.003 C 
ATOM     15  C   UNL     1      35.256 -18.144 -21.223  0.00  0.00    +0.071 C 
ATOM     16  C   UNL     1      34.225 -19.067 -21.052  0.00  0.00    +0.004 C 
ATOM     17  C   UNL     1      36.574 -18.509 -20.947  0.00  0.00    +0.004 C 
BRANCH  15  21
ATOM     18  F   UNL     1      35.715 -16.395 -22.768  0.00  0.00    -0.166 F 
ATOM     19  F   UNL     1      33.654 -16.600 -22.105  0.00  0.00    -0.166 F 
ATOM     20  F   UNL     1      35.151 -15.800 -20.754  0.00  0.00    -0.166 F 
ATOM     21  C   UNL     1      34.949 -16.764 -21.700  0.00  0.00    +0.419 C 
ENDBRANCH  15  21
ENDBRANCH  11  12
ENDBRANCH   8  11
ENDBRANCH   3   9
BRANCH   5  22
ATOM     22  O   UNL     1      36.412 -23.518 -16.138  0.00  0.00    -0.471 OA
ATOM     23  C   UNL     1      37.331 -22.952 -15.205  0.00  0.00    +0.252 C 
ENDBRANCH   5  22
BRANCH   1  24
ATOM     24  C   UNL     1      30.923 -23.188 -14.791  0.00  0.00    +0.080 C 
BRANCH  24  29
ATOM     25  O   UNL     1      29.393 -22.638 -16.577  0.00  0.00    -0.428 OA
ATOM     26  O   UNL     1      28.959 -25.528 -14.666  0.00  0.00    -0.271 OA
ATOM     27  O   UNL     1      27.240 -21.971 -16.961  0.00  0.00    -0.226 OA
ATOM     28  N   UNL     1      27.743 -23.871 -15.746  0.00  0.00    -0.218 N 
ATOM     29  C   UNL     1      30.031 -23.728 -15.890  0.00  0.00    +0.250 C 
ATOM     30  C   UNL     1      28.875 -24.516 -15.344  0.00  0.00    +0.271 C 
ATOM     31  C   UNL     1      28.036 -22.760 -16.470  0.00  0.00    +0.408 C 
ATOM     32  H   UNL     1      26.829 -24.173 -15.539  0.00  0.00    +0.161 HD
ENDBRANCH  24  29
ENDBRANCH   1  24
TORSDOF 7
ENDMDL
MODEL 9
REMARK VINA RESULT:     -11.0     10.163     14.882
REMARK  Name = 56842109
REMARK  7 active torsions:
REMARK  status: ('A' for Active; 'I' for Inactive)
REMARK    1  A    between atoms: C_1  and  C_24
REMARK    2  A    between atoms: C_3  and  C_9
REMARK    3  A    between atoms: C_5  and  O_22
REMARK    4  A    between atoms: N_8  and  C_11
REMARK    5  A    between atoms: C_11  and  C_12
REMARK    6  A    between atoms: C_15  and  C_21
REMARK    7  A    between atoms: C_24  and  C_29
REMARK                            x       y       z     vdW  Elec       q    Type
REMARK                         _______ _______ _______ _____ _____    ______ ____
ROOT
ATOM      1  C   UNL     1      32.385  -9.761 -22.338  0.00  0.00    -0.018 C 
ATOM      2  C   UNL     1      33.037 -10.688 -23.152  0.00  0.00    +0.003 C 
ATOM      3  C   UNL     1      32.933 -12.052 -22.876  0.00  0.00    +0.087 C 
ATOM      4  C   UNL     1      31.629 -10.197 -21.251  0.00  0.00    -0.001 C 
ATOM      5  C   UNL     1      32.177 -12.489 -21.788  0.00  0.00    +0.143 C 
ATOM      6  C   UNL     1      31.526 -11.561 -20.975  0.00  0.00    +0.037 C 
ENDROOT
BRANCH   3   9
ATOM      7  O   UNL     1      33.725 -12.785 -24.957  0.00  0.00    -0.270 OA
ATOM      8  N   UNL     1      34.161 -14.139 -23.127  0.00  0.00    -0.297 N 
ATOM      9  C   UNL     1      33.620 -13.004 -23.739  0.00  0.00    +0.249 C 
ATOM     10  H   UNL     1      34.038 -14.248 -22.156  0.00  0.00    +0.150 HD
BRANCH   8  11
ATOM     11  C   UNL     1      34.889 -15.161 -23.843  0.00  0.00    +0.117 C 
BRANCH  11  12
ATOM     12  C   UNL     1      34.950 -16.450 -23.077  0.00  0.00    -0.003 C 
ATOM     13  C   UNL     1      34.978 -16.432 -21.683  0.00  0.00    -0.003 C 
ATOM     14  C   UNL     1      34.979 -17.667 -23.759  0.00  0.00    -0.003 C 
ATOM     15  C   UNL     1      35.063 -18.845 -21.651  0.00  0.00    +0.071 C 
ATOM     16  C   UNL     1      35.034 -17.629 -20.969  0.00  0.00    +0.004 C 
ATOM     17  C   UNL     1      35.036 -18.864 -23.046  0.00  0.00    +0.004 C 
BRANCH  15  21
ATOM     18  F   UNL     1      35.101 -21.222 -21.702  0.00  0.00    -0.166 F 
ATOM     19  F   UNL     1      36.244 -20.257 -20.123  0.00  0.00    -0.166 F 
ATOM     20  F   UNL     1      34.078 -20.294 -20.022  0.00  0.00    -0.166 F 
ATOM     21  C   UNL     1      35.120 -20.125 -20.889  0.00  0.00    +0.419 C 
ENDBRANCH  15  21
ENDBRANCH  11  12
ENDBRANCH   8  11
ENDBRANCH   3   9
BRANCH   5  22
ATOM     22  O   UNL     1      32.061 -13.817 -21.505  0.00  0.00    -0.471 OA
ATOM     23  C   UNL     1      32.345 -14.220 -20.166  0.00  0.00    +0.252 C 
ENDBRANCH   5  22
BRANCH   1  24
ATOM     24  C   UNL     1      32.497  -8.287 -22.637  0.00  0.00    +0.080 C 
BRANCH  24  29
ATOM     25  O   UNL     1      30.734  -6.655 -22.887  0.00  0.00    -0.428 OA
ATOM     26  O   UNL     1      32.697  -6.750 -20.002  0.00  0.00    -0.271 OA
ATOM     27  O   UNL     1      30.383  -4.414 -23.173  0.00  0.00    -0.226 OA
ATOM     28  N   UNL     1      31.616  -5.253 -21.408  0.00  0.00    -0.218 N 
ATOM     29  C   UNL     1      31.424  -7.481 -21.935  0.00  0.00    +0.250 C 
ATOM     30  C   UNL     1      32.006  -6.484 -20.972  0.00  0.00    +0.271 C 
ATOM     31  C   UNL     1      30.870  -5.340 -22.540  0.00  0.00    +0.408 C 
ATOM     32  H   UNL     1      31.846  -4.407 -20.960  0.00  0.00    +0.161 HD
ENDBRANCH  24  29
ENDBRANCH   1  24
TORSDOF 7
ENDMDL
