MODEL 1
REMARK VINA RESULT:     -11.8      0.000      0.000
REMARK  Name = 46937134
REMARK  9 active torsions:
REMARK  status: ('A' for Active; 'I' for Inactive)
REMARK    1  A    between atoms: N_2  and  C_15
REMARK    2  A    between atoms: N_6  and  C_29
REMARK    3  A    between atoms: C_16  and  O_19
REMARK    4  A    between atoms: C_18  and  C_21
REMARK    5  A    between atoms: C_21  and  O_22
REMARK    6  A    between atoms: O_22  and  P_23
REMARK    7  A    between atoms: P_23  and  O_25
REMARK    8  A    between atoms: P_23  and  O_27
REMARK    9  A    between atoms: C_29  and  C_30
REMARK                            x       y       z     vdW  Elec       q    Type
REMARK                         _______ _______ _______ _____ _____    ______ ____
ROOT
ATOM      1  O   UNL     1      37.332 -23.118 -14.073  0.00  0.00    -0.208 OA
ATOM      2  N   UNL     1      33.157 -24.829 -13.814  0.00  0.00    -0.209 NA
ATOM      3  N   UNL     1      33.797 -23.830 -15.937  0.00  0.00    -0.279 N 
ATOM      4  N   UNL     1      35.084 -24.467 -12.724  0.00  0.00    -0.241 NA
ATOM      5  N   UNL     1      36.029 -22.947 -15.982  0.00  0.00    -0.301 NA
ATOM      6  N   UNL     1      34.611 -22.843 -17.834  0.00  0.00    -0.292 N 
ATOM      7  C   UNL     1      33.995 -24.201 -14.669  0.00  0.00    +0.191 C 
ATOM      8  C   UNL     1      33.864 -24.968 -12.641  0.00  0.00    +0.205 C 
ATOM      9  C   UNL     1      35.164 -23.985 -14.000  0.00  0.00    +0.183 C 
ATOM     10  C   UNL     1      34.868 -23.193 -16.560  0.00  0.00    +0.248 C 
ATOM     11  C   UNL     1      36.274 -23.322 -14.655  0.00  0.00    +0.224 C 
ATOM     12  H   UNL     1      32.945 -23.996 -16.403  0.00  0.00    +0.152 HD
ATOM     13  H   UNL     1      33.726 -23.052 -18.210  0.00  0.00    +0.151 HD
ENDROOT
BRANCH   2  15
ATOM     14  O   UNL     1      31.186 -24.697 -15.255  0.00  0.00    -0.338 OA
ATOM     15  C   UNL     1      31.742 -25.287 -14.065  0.00  0.00    +0.182 C 
ATOM     16  C   UNL     1      29.455 -24.894 -13.636  0.00  0.00    +0.144 C 
ATOM     17  C   UNL     1      30.789 -24.938 -12.927  0.00  0.00    +0.079 C 
ATOM     18  C   UNL     1      29.814 -24.330 -15.005  0.00  0.00    +0.174 C 
BRANCH  16  19
ATOM     19  O   UNL     1      28.975 -26.228 -13.779  0.00  0.00    -0.382 OA
ATOM     20  H   UNL     1      28.942 -26.655 -12.908  0.00  0.00    +0.210 HD
ENDBRANCH  16  19
BRANCH  18  21
ATOM     21  C   UNL     1      29.717 -22.811 -15.060  0.00  0.00    +0.186 C 
BRANCH  21  22
ATOM     22  O   UNL     1      29.050 -22.442 -16.255  0.00  0.00    -0.271 OA
BRANCH  22  23
ATOM     23  P   UNL     1      27.477 -22.794 -16.401  0.00  0.00    +0.473 P 
ATOM     24  O   UNL     1      26.729 -22.903 -15.105  0.00  0.00    -0.227 OA
BRANCH  23  25
ATOM     25  O   UNL     1      26.941 -21.645 -17.404  0.00  0.00    -0.303 OA
ATOM     26  H   UNL     1      26.448 -20.979 -16.899  0.00  0.00    +0.222 HD
ENDBRANCH  23  25
BRANCH  23  27
ATOM     27  O   UNL     1      27.466 -24.125 -17.320  0.00  0.00    -0.303 OA
ATOM     28  H   UNL     1      28.134 -24.042 -18.018  0.00  0.00    +0.222 HD
ENDBRANCH  23  27
ENDBRANCH  22  23
ENDBRANCH  21  22
ENDBRANCH  18  21
ENDBRANCH   2  15
BRANCH   6  29
ATOM     29  C   UNL     1      35.576 -22.171 -18.674  0.00  0.00    +0.117 C 
BRANCH  29  30
ATOM     30  C   UNL     1      34.892 -21.250 -19.636  0.00  0.00    -0.003 C 
ATOM     31  C   UNL     1      35.605 -20.329 -20.422  0.00  0.00    -0.002 C 
ATOM     32  C   UNL     1      34.899 -19.485 -21.312  0.00  0.00    -0.000 C 
ATOM     33  C   UNL     1      33.503 -21.338 -19.729  0.00  0.00    -0.003 C 
ATOM     34  C   UNL     1      37.003 -20.226 -20.342  0.00  0.00    -0.000 C 
ATOM     35  C   UNL     1      33.501 -19.587 -21.391  0.00  0.00    -0.000 C 
ATOM     36  C   UNL     1      32.809 -20.509 -20.604  0.00  0.00    -0.000 C 
ATOM     37  C   UNL     1      35.612 -18.564 -22.097  0.00  0.00    -0.000 C 
ATOM     38  C   UNL     1      37.696 -19.306 -21.129  0.00  0.00    -0.000 C 
ATOM     39  C   UNL     1      37.001 -18.477 -22.005  0.00  0.00    -0.000 C 
ENDBRANCH  29  30
ENDBRANCH   6  29
TORSDOF 9
ENDMDL
MODEL 2
REMARK VINA RESULT:     -10.6      3.240      6.629
REMARK  Name = 46937134
REMARK  9 active torsions:
REMARK  status: ('A' for Active; 'I' for Inactive)
REMARK    1  A    between atoms: N_2  and  C_15
REMARK    2  A    between atoms: N_6  and  C_29
REMARK    3  A    between atoms: C_16  and  O_19
REMARK    4  A    between atoms: C_18  and  C_21
REMARK    5  A    between atoms: C_21  and  O_22
REMARK    6  A    between atoms: O_22  and  P_23
REMARK    7  A    between atoms: P_23  and  O_25
REMARK    8  A    between atoms: P_23  and  O_27
REMARK    9  A    between atoms: C_29  and  C_30
REMARK                            x       y       z     vdW  Elec       q    Type
REMARK                         _______ _______ _______ _____ _____    ______ ____
ROOT
ATOM      1  O   UNL     1      30.900 -23.585 -16.687  0.00  0.00    -0.208 OA
ATOM      2  N   UNL     1      34.194 -24.092 -13.634  0.00  0.00    -0.209 NA
ATOM      3  N   UNL     1      34.857 -23.285 -15.831  0.00  0.00    -0.279 N 
ATOM      4  N   UNL     1      31.995 -24.282 -14.040  0.00  0.00    -0.241 NA
ATOM      5  N   UNL     1      33.043 -23.048 -17.386  0.00  0.00    -0.301 NA
ATOM      6  N   UNL     1      35.249 -22.540 -17.959  0.00  0.00    -0.292 N 
ATOM      7  C   UNL     1      33.983 -23.709 -14.914  0.00  0.00    +0.191 C 
ATOM      8  C   UNL     1      32.954 -24.432 -13.142  0.00  0.00    +0.205 C 
ATOM      9  C   UNL     1      32.645 -23.826 -15.153  0.00  0.00    +0.183 C 
ATOM     10  C   UNL     1      34.323 -22.961 -17.076  0.00  0.00    +0.248 C 
ATOM     11  C   UNL     1      32.098 -23.487 -16.451  0.00  0.00    +0.224 C 
ATOM     12  H   UNL     1      35.820 -23.207 -15.638  0.00  0.00    +0.152 HD
ATOM     13  H   UNL     1      36.189 -22.497 -17.669  0.00  0.00    +0.151 HD
ENDROOT
BRANCH   2  15
ATOM     14  O   UNL     1      36.635 -24.138 -13.768  0.00  0.00    -0.338 OA
ATOM     15  C   UNL     1      35.500 -24.145 -12.882  0.00  0.00    +0.182 C 
ATOM     16  C   UNL     1      37.141 -25.538 -11.913  0.00  0.00    +0.144 C 
ATOM     17  C   UNL     1      35.641 -25.393 -12.015  0.00  0.00    +0.079 C 
ATOM     18  C   UNL     1      37.624 -25.067 -13.279  0.00  0.00    +0.174 C 
BRANCH  16  19
ATOM     19  O   UNL     1      37.614 -24.647 -10.906  0.00  0.00    -0.382 OA
ATOM     20  H   UNL     1      36.895 -24.054 -10.634  0.00  0.00    +0.210 HD
ENDBRANCH  16  19
BRANCH  18  21
ATOM     21  C   UNL     1      37.739 -26.203 -14.286  0.00  0.00    +0.186 C 
BRANCH  21  22
ATOM     22  O   UNL     1      38.892 -26.968 -13.977  0.00  0.00    -0.271 OA
BRANCH  22  23
ATOM     23  P   UNL     1      40.348 -26.325 -14.275  0.00  0.00    +0.473 P 
ATOM     24  O   UNL     1      40.615 -25.017 -13.590  0.00  0.00    -0.227 OA
BRANCH  23  25
ATOM     25  O   UNL     1      41.360 -27.522 -13.879  0.00  0.00    -0.303 OA
ATOM     26  H   UNL     1      41.826 -27.293 -13.059  0.00  0.00    +0.222 HD
ENDBRANCH  23  25
BRANCH  23  27
ATOM     27  O   UNL     1      40.428 -26.288 -15.890  0.00  0.00    -0.303 OA
ATOM     28  H   UNL     1      41.328 -26.056 -16.164  0.00  0.00    +0.222 HD
ENDBRANCH  23  27
ENDBRANCH  22  23
ENDBRANCH  21  22
ENDBRANCH  18  21
ENDBRANCH   2  15
BRANCH   6  29
ATOM     29  C   UNL     1      34.925 -22.150 -19.312  0.00  0.00    +0.117 C 
BRANCH  29  30
ATOM     30  C   UNL     1      35.808 -21.030 -19.767  0.00  0.00    -0.003 C 
ATOM     31  C   UNL     1      35.508 -20.259 -20.902  0.00  0.00    -0.002 C 
ATOM     32  C   UNL     1      36.385 -19.214 -21.281  0.00  0.00    -0.000 C 
ATOM     33  C   UNL     1      36.956 -20.774 -19.016  0.00  0.00    -0.003 C 
ATOM     34  C   UNL     1      34.358 -20.502 -21.670  0.00  0.00    -0.000 C 
ATOM     35  C   UNL     1      37.536 -18.972 -20.514  0.00  0.00    -0.000 C 
ATOM     36  C   UNL     1      37.818 -19.747 -19.389  0.00  0.00    -0.000 C 
ATOM     37  C   UNL     1      36.086 -18.444 -22.417  0.00  0.00    -0.000 C 
ATOM     38  C   UNL     1      34.076 -19.727 -22.795  0.00  0.00    -0.000 C 
ATOM     39  C   UNL     1      34.938 -18.699 -23.167  0.00  0.00    -0.000 C 
ENDBRANCH  29  30
ENDBRANCH   6  29
TORSDOF 9
ENDMDL
MODEL 3
REMARK VINA RESULT:     -10.3      0.831      2.091
REMARK  Name = 46937134
REMARK  9 active torsions:
REMARK  status: ('A' for Active; 'I' for Inactive)
REMARK    1  A    between atoms: N_2  and  C_15
REMARK    2  A    between atoms: N_6  and  C_29
REMARK    3  A    between atoms: C_16  and  O_19
REMARK    4  A    between atoms: C_18  and  C_21
REMARK    5  A    between atoms: C_21  and  O_22
REMARK    6  A    between atoms: O_22  and  P_23
REMARK    7  A    between atoms: P_23  and  O_25
REMARK    8  A    between atoms: P_23  and  O_27
REMARK    9  A    between atoms: C_29  and  C_30
REMARK                            x       y       z     vdW  Elec       q    Type
REMARK                         _______ _______ _______ _____ _____    ______ ____
ROOT
ATOM      1  O   UNL     1      37.645 -22.889 -13.106  0.00  0.00    -0.208 OA
ATOM      2  N   UNL     1      33.558 -24.734 -13.676  0.00  0.00    -0.209 NA
ATOM      3  N   UNL     1      34.629 -23.819 -15.659  0.00  0.00    -0.279 N 
ATOM      4  N   UNL     1      35.187 -24.250 -12.211  0.00  0.00    -0.241 NA
ATOM      5  N   UNL     1      36.793 -22.859 -15.261  0.00  0.00    -0.301 NA
ATOM      6  N   UNL     1      35.819 -22.898 -17.383  0.00  0.00    -0.292 N 
ATOM      7  C   UNL     1      34.550 -24.120 -14.360  0.00  0.00    +0.191 C 
ATOM      8  C   UNL     1      33.992 -24.790 -12.371  0.00  0.00    +0.205 C 
ATOM      9  C   UNL     1      35.536 -23.829 -13.463  0.00  0.00    +0.183 C 
ATOM     10  C   UNL     1      35.795 -23.176 -16.066  0.00  0.00    +0.248 C 
ATOM     11  C   UNL     1      36.747 -23.159 -13.894  0.00  0.00    +0.224 C 
ATOM     12  H   UNL     1      33.905 -24.038 -16.291  0.00  0.00    +0.152 HD
ATOM     13  H   UNL     1      35.044 -23.158 -17.932  0.00  0.00    +0.151 HD
ENDROOT
BRANCH   2  15
ATOM     14  O   UNL     1      31.844 -24.581 -15.414  0.00  0.00    -0.338 OA
ATOM     15  C   UNL     1      32.246 -25.256 -14.207  0.00  0.00    +0.182 C 
ATOM     16  C   UNL     1      29.895 -25.060 -14.138  0.00  0.00    +0.144 C 
ATOM     17  C   UNL     1      31.095 -25.092 -13.219  0.00  0.00    +0.079 C 
ATOM     18  C   UNL     1      30.424 -24.333 -15.368  0.00  0.00    +0.174 C 
BRANCH  16  19
ATOM     19  O   UNL     1      29.556 -26.401 -14.485  0.00  0.00    -0.382 OA
ATOM     20  H   UNL     1      30.007 -27.014 -13.883  0.00  0.00    +0.210 HD
ENDBRANCH  16  19
BRANCH  18  21
ATOM     21  C   UNL     1      30.213 -22.826 -15.296  0.00  0.00    +0.186 C 
BRANCH  21  22
ATOM     22  O   UNL     1      29.374 -22.435 -16.369  0.00  0.00    -0.271 OA
BRANCH  22  23
ATOM     23  P   UNL     1      27.808 -22.841 -16.313  0.00  0.00    +0.473 P 
ATOM     24  O   UNL     1      27.248 -23.014 -14.932  0.00  0.00    -0.227 OA
BRANCH  23  25
ATOM     25  O   UNL     1      27.103 -21.684 -17.196  0.00  0.00    -0.303 OA
ATOM     26  H   UNL     1      27.779 -21.069 -17.522  0.00  0.00    +0.222 HD
ENDBRANCH  23  25
BRANCH  23  27
ATOM     27  O   UNL     1      27.717 -24.145 -17.265  0.00  0.00    -0.303 OA
ATOM     28  H   UNL     1      26.908 -24.100 -17.798  0.00  0.00    +0.222 HD
ENDBRANCH  23  27
ENDBRANCH  22  23
ENDBRANCH  21  22
ENDBRANCH  18  21
ENDBRANCH   2  15
BRANCH   6  29
ATOM     29  C   UNL     1      36.929 -22.234 -18.027  0.00  0.00    +0.117 C 
BRANCH  29  30
ATOM     30  C   UNL     1      36.444 -21.302 -19.094  0.00  0.00    -0.003 C 
ATOM     31  C   UNL     1      35.089 -21.220 -19.451  0.00  0.00    -0.002 C 
ATOM     32  C   UNL     1      34.694 -20.318 -20.468  0.00  0.00    -0.000 C 
ATOM     33  C   UNL     1      37.397 -20.505 -19.729  0.00  0.00    -0.003 C 
ATOM     34  C   UNL     1      34.116 -22.013 -18.822  0.00  0.00    -0.000 C 
ATOM     35  C   UNL     1      35.667 -19.526 -21.098  0.00  0.00    -0.000 C 
ATOM     36  C   UNL     1      37.009 -19.619 -20.729  0.00  0.00    -0.000 C 
ATOM     37  C   UNL     1      33.338 -20.237 -20.827  0.00  0.00    -0.000 C 
ATOM     38  C   UNL     1      32.773 -21.920 -19.190  0.00  0.00    -0.000 C 
ATOM     39  C   UNL     1      32.386 -21.033 -20.190  0.00  0.00    -0.000 C 
ENDBRANCH  29  30
ENDBRANCH   6  29
TORSDOF 9
ENDMDL
MODEL 4
REMARK VINA RESULT:     -10.3     11.929     15.019
REMARK  Name = 46937134
REMARK  9 active torsions:
REMARK  status: ('A' for Active; 'I' for Inactive)
REMARK    1  A    between atoms: N_2  and  C_15
REMARK    2  A    between atoms: N_6  and  C_29
REMARK    3  A    between atoms: C_16  and  O_19
REMARK    4  A    between atoms: C_18  and  C_21
REMARK    5  A    between atoms: C_21  and  O_22
REMARK    6  A    between atoms: O_22  and  P_23
REMARK    7  A    between atoms: P_23  and  O_25
REMARK    8  A    between atoms: P_23  and  O_27
REMARK    9  A    between atoms: C_29  and  C_30
REMARK                            x       y       z     vdW  Elec       q    Type
REMARK                         _______ _______ _______ _____ _____    ______ ____
ROOT
ATOM      1  O   UNL     1      31.554  -8.907 -18.380  0.00  0.00    -0.208 OA
ATOM      2  N   UNL     1      32.157 -12.308 -21.295  0.00  0.00    -0.209 NA
ATOM      3  N   UNL     1      32.292 -10.055 -22.203  0.00  0.00    -0.279 N 
ATOM      4  N   UNL     1      31.746 -11.743 -19.163  0.00  0.00    -0.241 NA
ATOM      5  N   UNL     1      31.958  -8.315 -20.584  0.00  0.00    -0.301 NA
ATOM      6  N   UNL     1      32.375  -7.858 -22.835  0.00  0.00    -0.292 N 
ATOM      7  C   UNL     1      32.124 -10.957 -21.232  0.00  0.00    +0.191 C 
ATOM      8  C   UNL     1      31.922 -12.742 -20.010  0.00  0.00    +0.205 C 
ATOM      9  C   UNL     1      31.874 -10.622 -19.934  0.00  0.00    +0.183 C 
ATOM     10  C   UNL     1      32.197  -8.720 -21.818  0.00  0.00    +0.248 C 
ATOM     11  C   UNL     1      31.777  -9.230 -19.540  0.00  0.00    +0.224 C 
ATOM     12  H   UNL     1      32.472 -10.319 -23.135  0.00  0.00    +0.152 HD
ATOM     13  H   UNL     1      32.550  -8.221 -23.734  0.00  0.00    +0.151 HD
ENDROOT
BRANCH   2  15
ATOM     14  O   UNL     1      32.477 -14.574 -22.158  0.00  0.00    -0.338 OA
ATOM     15  C   UNL     1      32.398 -13.178 -22.503  0.00  0.00    +0.182 C 
ATOM     16  C   UNL     1      34.016 -14.149 -23.921  0.00  0.00    +0.144 C 
ATOM     17  C   UNL     1      33.694 -12.842 -23.234  0.00  0.00    +0.079 C 
ATOM     18  C   UNL     1      33.536 -15.191 -22.917  0.00  0.00    +0.174 C 
BRANCH  16  19
ATOM     19  O   UNL     1      33.236 -14.238 -25.111  0.00  0.00    -0.382 OA
ATOM     20  H   UNL     1      32.394 -14.678 -24.914  0.00  0.00    +0.210 HD
ENDBRANCH  16  19
BRANCH  18  21
ATOM     21  C   UNL     1      34.626 -15.615 -21.943  0.00  0.00    +0.186 C 
BRANCH  21  22
ATOM     22  O   UNL     1      35.502 -16.511 -22.604  0.00  0.00    -0.271 OA
BRANCH  22  23
ATOM     23  P   UNL     1      35.467 -18.075 -22.186  0.00  0.00    +0.473 P 
ATOM     24  O   UNL     1      34.875 -18.357 -20.836  0.00  0.00    -0.227 OA
BRANCH  23  25
ATOM     25  O   UNL     1      34.695 -18.764 -23.428  0.00  0.00    -0.303 OA
ATOM     26  H   UNL     1      33.747 -18.824 -23.226  0.00  0.00    +0.222 HD
ENDBRANCH  23  25
BRANCH  23  27
ATOM     27  O   UNL     1      36.998 -18.559 -22.385  0.00  0.00    -0.303 OA
ATOM     28  H   UNL     1      37.013 -19.380 -22.900  0.00  0.00    +0.222 HD
ENDBRANCH  23  27
ENDBRANCH  22  23
ENDBRANCH  21  22
ENDBRANCH  18  21
ENDBRANCH   2  15
BRANCH   6  29
ATOM     29  C   UNL     1      32.321  -6.423 -22.670  0.00  0.00    +0.117 C 
BRANCH  29  30
ATOM     30  C   UNL     1      32.856  -5.728 -23.883  0.00  0.00    -0.003 C 
ATOM     31  C   UNL     1      32.259  -4.566 -24.399  0.00  0.00    -0.002 C 
ATOM     32  C   UNL     1      32.813  -3.956 -25.550  0.00  0.00    -0.000 C 
ATOM     33  C   UNL     1      33.983  -6.279 -24.492  0.00  0.00    -0.003 C 
ATOM     34  C   UNL     1      31.125  -3.996 -23.799  0.00  0.00    -0.000 C 
ATOM     35  C   UNL     1      33.946  -4.526 -26.151  0.00  0.00    -0.000 C 
ATOM     36  C   UNL     1      34.527  -5.680 -25.624  0.00  0.00    -0.000 C 
ATOM     37  C   UNL     1      32.215  -2.795 -26.067  0.00  0.00    -0.000 C 
ATOM     38  C   UNL     1      30.544  -2.842 -24.326  0.00  0.00    -0.000 C 
ATOM     39  C   UNL     1      31.089  -2.243 -25.457  0.00  0.00    -0.000 C 
ENDBRANCH  29  30
ENDBRANCH   6  29
TORSDOF 9
ENDMDL
MODEL 5
REMARK VINA RESULT:     -10.0      6.795     10.593
REMARK  Name = 46937134
REMARK  9 active torsions:
REMARK  status: ('A' for Active; 'I' for Inactive)
REMARK    1  A    between atoms: N_2  and  C_15
REMARK    2  A    between atoms: N_6  and  C_29
REMARK    3  A    between atoms: C_16  and  O_19
REMARK    4  A    between atoms: C_18  and  C_21
REMARK    5  A    between atoms: C_21  and  O_22
REMARK    6  A    between atoms: O_22  and  P_23
REMARK    7  A    between atoms: P_23  and  O_25
REMARK    8  A    between atoms: P_23  and  O_27
REMARK    9  A    between atoms: C_29  and  C_30
REMARK                            x       y       z     vdW  Elec       q    Type
REMARK                         _______ _______ _______ _____ _____    ______ ____
ROOT
ATOM      1  O   UNL     1      34.524 -20.488 -24.722  0.00  0.00    -0.208 OA
ATOM      2  N   UNL     1      34.467 -16.026 -24.008  0.00  0.00    -0.209 NA
ATOM      3  N   UNL     1      35.493 -17.395 -22.279  0.00  0.00    -0.279 N 
ATOM      4  N   UNL     1      33.903 -17.689 -25.406  0.00  0.00    -0.241 NA
ATOM      5  N   UNL     1      35.476 -19.750 -22.742  0.00  0.00    -0.301 NA
ATOM      6  N   UNL     1      36.404 -18.872 -20.788  0.00  0.00    -0.292 N 
ATOM      7  C   UNL     1      34.871 -17.186 -23.443  0.00  0.00    +0.191 C 
ATOM      8  C   UNL     1      33.883 -16.382 -25.203  0.00  0.00    +0.205 C 
ATOM      9  C   UNL     1      34.525 -18.192 -24.298  0.00  0.00    +0.183 C 
ATOM     10  C   UNL     1      35.778 -18.723 -21.971  0.00  0.00    +0.248 C 
ATOM     11  C   UNL     1      34.825 -19.571 -23.969  0.00  0.00    +0.224 C 
ATOM     12  H   UNL     1      35.734 -16.654 -21.676  0.00  0.00    +0.152 HD
ATOM     13  H   UNL     1      36.602 -18.068 -20.256  0.00  0.00    +0.151 HD
ENDROOT
BRANCH   2  15
ATOM     14  O   UNL     1      34.398 -14.571 -22.044  0.00  0.00    -0.338 OA
ATOM     15  C   UNL     1      34.613 -14.626 -23.467  0.00  0.00    +0.182 C 
ATOM     16  C   UNL     1      33.522 -12.584 -23.011  0.00  0.00    +0.144 C 
ATOM     17  C   UNL     1      33.630 -13.639 -24.088  0.00  0.00    +0.079 C 
ATOM     18  C   UNL     1      33.630 -13.394 -21.725  0.00  0.00    +0.174 C 
BRANCH  16  19
ATOM     19  O   UNL     1      34.643 -11.709 -23.121  0.00  0.00    -0.382 OA
ATOM     20  H   UNL     1      35.384 -12.068 -22.606  0.00  0.00    +0.210 HD
ENDBRANCH  16  19
BRANCH  18  21
ATOM     21  C   UNL     1      32.274 -13.846 -21.200  0.00  0.00    +0.186 C 
BRANCH  21  22
ATOM     22  O   UNL     1      32.009 -13.166 -19.984  0.00  0.00    -0.271 OA
BRANCH  22  23
ATOM     23  P   UNL     1      31.335 -11.696 -20.053  0.00  0.00    +0.473 P 
ATOM     24  O   UNL     1      32.231 -10.612 -20.576  0.00  0.00    -0.227 OA
BRANCH  23  25
ATOM     25  O   UNL     1      29.995 -11.952 -20.920  0.00  0.00    -0.303 OA
ATOM     26  H   UNL     1      30.227 -12.024 -21.860  0.00  0.00    +0.222 HD
ENDBRANCH  23  25
BRANCH  23  27
ATOM     27  O   UNL     1      30.770 -11.464 -18.555  0.00  0.00    -0.303 OA
ATOM     28  H   UNL     1      30.781 -12.304 -18.072  0.00  0.00    +0.222 HD
ENDBRANCH  23  27
ENDBRANCH  22  23
ENDBRANCH  21  22
ENDBRANCH  18  21
ENDBRANCH   2  15
BRANCH   6  29
ATOM     29  C   UNL     1      36.798 -20.160 -20.264  0.00  0.00    +0.117 C 
BRANCH  29  30
ATOM     30  C   UNL     1      35.621 -20.878 -19.680  0.00  0.00    -0.003 C 
ATOM     31  C   UNL     1      35.728 -21.664 -18.521  0.00  0.00    -0.002 C 
ATOM     32  C   UNL     1      34.577 -22.318 -18.019  0.00  0.00    -0.000 C 
ATOM     33  C   UNL     1      34.396 -20.737 -20.333  0.00  0.00    -0.003 C 
ATOM     34  C   UNL     1      36.951 -21.817 -17.850  0.00  0.00    -0.000 C 
ATOM     35  C   UNL     1      33.353 -22.165 -18.691  0.00  0.00    -0.000 C 
ATOM     36  C   UNL     1      33.265 -21.379 -19.840  0.00  0.00    -0.000 C 
ATOM     37  C   UNL     1      34.684 -23.105 -16.861  0.00  0.00    -0.000 C 
ATOM     38  C   UNL     1      37.040 -22.603 -16.701  0.00  0.00    -0.000 C 
ATOM     39  C   UNL     1      35.908 -23.245 -16.207  0.00  0.00    -0.000 C 
ENDBRANCH  29  30
ENDBRANCH   6  29
TORSDOF 9
ENDMDL
MODEL 6
REMARK VINA RESULT:      -9.7      2.985      5.966
REMARK  Name = 46937134
REMARK  9 active torsions:
REMARK  status: ('A' for Active; 'I' for Inactive)
REMARK    1  A    between atoms: N_2  and  C_15
REMARK    2  A    between atoms: N_6  and  C_29
REMARK    3  A    between atoms: C_16  and  O_19
REMARK    4  A    between atoms: C_18  and  C_21
REMARK    5  A    between atoms: C_21  and  O_22
REMARK    6  A    between atoms: O_22  and  P_23
REMARK    7  A    between atoms: P_23  and  O_25
REMARK    8  A    between atoms: P_23  and  O_27
REMARK    9  A    between atoms: C_29  and  C_30
REMARK                            x       y       z     vdW  Elec       q    Type
REMARK                         _______ _______ _______ _____ _____    ______ ____
ROOT
ATOM      1  O   UNL     1      31.303 -23.030 -16.503  0.00  0.00    -0.208 OA
ATOM      2  N   UNL     1      35.220 -24.700 -14.990  0.00  0.00    -0.209 NA
ATOM      3  N   UNL     1      35.302 -23.434 -17.065  0.00  0.00    -0.279 N 
ATOM      4  N   UNL     1      33.015 -24.516 -14.618  0.00  0.00    -0.241 NA
ATOM      5  N   UNL     1      33.177 -22.588 -17.792  0.00  0.00    -0.301 NA
ATOM      6  N   UNL     1      35.143 -22.213 -18.994  0.00  0.00    -0.292 N 
ATOM      7  C   UNL     1      34.697 -23.975 -16.004  0.00  0.00    +0.191 C 
ATOM      8  C   UNL     1      34.158 -25.007 -14.170  0.00  0.00    +0.205 C 
ATOM      9  C   UNL     1      33.357 -23.867 -15.771  0.00  0.00    +0.183 C 
ATOM     10  C   UNL     1      34.480 -22.736 -17.946  0.00  0.00    +0.248 C 
ATOM     11  C   UNL     1      32.507 -23.140 -16.693  0.00  0.00    +0.224 C 
ATOM     12  H   UNL     1      36.272 -23.524 -17.215  0.00  0.00    +0.152 HD
ATOM     13  H   UNL     1      36.115 -22.359 -19.055  0.00  0.00    +0.151 HD
ENDROOT
BRANCH   2  15
ATOM     14  O   UNL     1      36.773 -26.360 -14.086  0.00  0.00    -0.338 OA
ATOM     15  C   UNL     1      36.658 -25.102 -14.778  0.00  0.00    +0.182 C 
ATOM     16  C   UNL     1      38.543 -24.945 -13.367  0.00  0.00    +0.144 C 
ATOM     17  C   UNL     1      37.448 -24.087 -13.957  0.00  0.00    +0.079 C 
ATOM     18  C   UNL     1      37.843 -26.276 -13.123  0.00  0.00    +0.174 C 
BRANCH  16  19
ATOM     19  O   UNL     1      39.564 -25.114 -14.348  0.00  0.00    -0.382 OA
ATOM     20  H   UNL     1      40.215 -25.759 -14.028  0.00  0.00    +0.210 HD
ENDBRANCH  16  19
BRANCH  18  21
ATOM     21  C   UNL     1      37.231 -26.373 -11.732  0.00  0.00    +0.186 C 
BRANCH  21  22
ATOM     22  O   UNL     1      36.014 -25.646 -11.720  0.00  0.00    -0.271 OA
BRANCH  22  23
ATOM     23  P   UNL     1      35.847 -24.437 -10.657  0.00  0.00    +0.473 P 
ATOM     24  O   UNL     1      37.065 -23.579 -10.476  0.00  0.00    -0.227 OA
BRANCH  23  25
ATOM     25  O   UNL     1      34.537 -23.658 -11.198  0.00  0.00    -0.303 OA
ATOM     26  H   UNL     1      33.739 -24.103 -10.872  0.00  0.00    +0.222 HD
ENDBRANCH  23  25
BRANCH  23  27
ATOM     27  O   UNL     1      35.315 -25.174  -9.319  0.00  0.00    -0.303 OA
ATOM     28  H   UNL     1      35.931 -25.004  -8.590  0.00  0.00    +0.222 HD
ENDBRANCH  23  27
ENDBRANCH  22  23
ENDBRANCH  21  22
ENDBRANCH  18  21
ENDBRANCH   2  15
BRANCH   6  29
ATOM     29  C   UNL     1      34.493 -21.450 -20.034  0.00  0.00    +0.117 C 
BRANCH  29  30
ATOM     30  C   UNL     1      35.428 -20.429 -20.606  0.00  0.00    -0.003 C 
ATOM     31  C   UNL     1      35.158 -19.765 -21.814  0.00  0.00    -0.002 C 
ATOM     32  C   UNL     1      36.083 -18.811 -22.301  0.00  0.00    -0.000 C 
ATOM     33  C   UNL     1      36.592 -20.154 -19.888  0.00  0.00    -0.003 C 
ATOM     34  C   UNL     1      33.991 -20.028 -22.550  0.00  0.00    -0.000 C 
ATOM     35  C   UNL     1      37.250 -18.549 -21.566  0.00  0.00    -0.000 C 
ATOM     36  C   UNL     1      37.502 -19.216 -20.367  0.00  0.00    -0.000 C 
ATOM     37  C   UNL     1      35.813 -18.148 -23.510  0.00  0.00    -0.000 C 
ATOM     38  C   UNL     1      33.739 -19.361 -23.748  0.00  0.00    -0.000 C 
ATOM     39  C   UNL     1      34.649 -18.422 -24.227  0.00  0.00    -0.000 C 
ENDBRANCH  29  30
ENDBRANCH   6  29
TORSDOF 9
ENDMDL
MODEL 7
REMARK VINA RESULT:      -9.7     11.161     14.274
REMARK  Name = 46937134
REMARK  9 active torsions:
REMARK  status: ('A' for Active; 'I' for Inactive)
REMARK    1  A    between atoms: N_2  and  C_15
REMARK    2  A    between atoms: N_6  and  C_29
REMARK    3  A    between atoms: C_16  and  O_19
REMARK    4  A    between atoms: C_18  and  C_21
REMARK    5  A    between atoms: C_21  and  O_22
REMARK    6  A    between atoms: O_22  and  P_23
REMARK    7  A    between atoms: P_23  and  O_25
REMARK    8  A    between atoms: P_23  and  O_27
REMARK    9  A    between atoms: C_29  and  C_30
REMARK                            x       y       z     vdW  Elec       q    Type
REMARK                         _______ _______ _______ _____ _____    ______ ____
ROOT
ATOM      1  O   UNL     1      31.447 -11.128 -17.791  0.00  0.00    -0.208 OA
ATOM      2  N   UNL     1      32.298 -13.149 -21.744  0.00  0.00    -0.209 NA
ATOM      3  N   UNL     1      32.150 -10.721 -21.769  0.00  0.00    -0.279 N 
ATOM      4  N   UNL     1      31.914 -13.446 -19.553  0.00  0.00    -0.241 NA
ATOM      5  N   UNL     1      31.695  -9.736 -19.628  0.00  0.00    -0.301 NA
ATOM      6  N   UNL     1      31.969  -8.450 -21.557  0.00  0.00    -0.292 N 
ATOM      7  C   UNL     1      32.120 -11.926 -21.193  0.00  0.00    +0.191 C 
ATOM      8  C   UNL     1      32.163 -14.043 -20.705  0.00  0.00    +0.205 C 
ATOM      9  C   UNL     1      31.889 -12.115 -19.862  0.00  0.00    +0.183 C 
ATOM     10  C   UNL     1      31.927  -9.637 -20.924  0.00  0.00    +0.248 C 
ATOM     11  C   UNL     1      31.657 -10.981 -18.989  0.00  0.00    +0.224 C 
ATOM     12  H   UNL     1      32.320 -10.607 -22.733  0.00  0.00    +0.152 HD
ATOM     13  H   UNL     1      32.145  -8.440 -22.525  0.00  0.00    +0.151 HD
ENDROOT
BRANCH   2  15
ATOM     14  O   UNL     1      32.794 -14.900 -23.377  0.00  0.00    -0.338 OA
ATOM     15  C   UNL     1      32.582 -13.488 -23.185  0.00  0.00    +0.182 C 
ATOM     16  C   UNL     1      34.242 -13.718 -24.847  0.00  0.00    +0.144 C 
ATOM     17  C   UNL     1      33.824 -12.790 -23.730  0.00  0.00    +0.079 C 
ATOM     18  C   UNL     1      33.883 -15.095 -24.301  0.00  0.00    +0.174 C 
BRANCH  16  19
ATOM     19  O   UNL     1      33.443 -13.435 -25.993  0.00  0.00    -0.382 OA
ATOM     20  H   UNL     1      33.881 -12.759 -26.534  0.00  0.00    +0.210 HD
ENDBRANCH  16  19
BRANCH  18  21
ATOM     21  C   UNL     1      35.032 -15.744 -23.542  0.00  0.00    +0.186 C 
BRANCH  21  22
ATOM     22  O   UNL     1      34.874 -17.152 -23.598  0.00  0.00    -0.271 OA
BRANCH  22  23
ATOM     23  P   UNL     1      35.284 -18.027 -22.299  0.00  0.00    +0.473 P 
ATOM     24  O   UNL     1      34.925 -17.409 -20.979  0.00  0.00    -0.227 OA
BRANCH  23  25
ATOM     25  O   UNL     1      34.591 -19.458 -22.594  0.00  0.00    -0.303 OA
ATOM     26  H   UNL     1      33.627 -19.368 -22.536  0.00  0.00    +0.222 HD
ENDBRANCH  23  25
BRANCH  23  27
ATOM     27  O   UNL     1      36.859 -18.323 -22.518  0.00  0.00    -0.303 OA
ATOM     28  H   UNL     1      37.341 -17.484 -22.575  0.00  0.00    +0.222 HD
ENDBRANCH  23  27
ENDBRANCH  22  23
ENDBRANCH  21  22
ENDBRANCH  18  21
ENDBRANCH   2  15
BRANCH   6  29
ATOM     29  C   UNL     1      31.766  -7.189 -20.880  0.00  0.00    +0.117 C 
BRANCH  29  30
ATOM     30  C   UNL     1      31.549  -6.085 -21.868  0.00  0.00    -0.003 C 
ATOM     31  C   UNL     1      32.385  -5.909 -22.983  0.00  0.00    -0.002 C 
ATOM     32  C   UNL     1      32.128  -4.845 -23.880  0.00  0.00    -0.000 C 
ATOM     33  C   UNL     1      30.474  -5.226 -21.643  0.00  0.00    -0.003 C 
ATOM     34  C   UNL     1      33.472  -6.764 -23.227  0.00  0.00    -0.000 C 
ATOM     35  C   UNL     1      31.042  -3.989 -23.636  0.00  0.00    -0.000 C 
ATOM     36  C   UNL     1      30.221  -4.180 -22.524  0.00  0.00    -0.000 C 
ATOM     37  C   UNL     1      32.964  -4.668 -24.995  0.00  0.00    -0.000 C 
ATOM     38  C   UNL     1      34.293  -6.574 -24.339  0.00  0.00    -0.000 C 
ATOM     39  C   UNL     1      34.038  -5.528 -25.221  0.00  0.00    -0.000 C 
ENDBRANCH  29  30
ENDBRANCH   6  29
TORSDOF 9
ENDMDL
MODEL 8
REMARK VINA RESULT:      -9.3      7.290     10.828
REMARK  Name = 46937134
REMARK  9 active torsions:
REMARK  status: ('A' for Active; 'I' for Inactive)
REMARK    1  A    between atoms: N_2  and  C_15
REMARK    2  A    between atoms: N_6  and  C_29
REMARK    3  A    between atoms: C_16  and  O_19
REMARK    4  A    between atoms: C_18  and  C_21
REMARK    5  A    between atoms: C_21  and  O_22
REMARK    6  A    between atoms: O_22  and  P_23
REMARK    7  A    between atoms: P_23  and  O_25
REMARK    8  A    between atoms: P_23  and  O_27
REMARK    9  A    between atoms: C_29  and  C_30
REMARK                            x       y       z     vdW  Elec       q    Type
REMARK                         _______ _______ _______ _____ _____    ______ ____
ROOT
ATOM      1  O   UNL     1      32.508 -16.208 -26.425  0.00  0.00    -0.208 OA
ATOM      2  N   UNL     1      35.228 -18.244 -23.445  0.00  0.00    -0.209 NA
ATOM      3  N   UNL     1      34.962 -15.837 -23.213  0.00  0.00    -0.279 N 
ATOM      4  N   UNL     1      33.884 -18.520 -25.221  0.00  0.00    -0.241 NA
ATOM      5  N   UNL     1      33.502 -14.842 -24.839  0.00  0.00    -0.301 NA
ATOM      6  N   UNL     1      34.566 -13.584 -23.185  0.00  0.00    -0.292 N 
ATOM      7  C   UNL     1      34.740 -17.027 -23.778  0.00  0.00    +0.191 C 
ATOM      8  C   UNL     1      34.679 -19.121 -24.352  0.00  0.00    +0.205 C 
ATOM      9  C   UNL     1      33.924 -17.203 -24.857  0.00  0.00    +0.183 C 
ATOM     10  C   UNL     1      34.305 -14.755 -23.794  0.00  0.00    +0.248 C 
ATOM     11  C   UNL     1      33.245 -16.072 -25.456  0.00  0.00    +0.224 C 
ATOM     12  H   UNL     1      35.555 -15.732 -22.433  0.00  0.00    +0.152 HD
ATOM     13  H   UNL     1      35.174 -13.582 -22.411  0.00  0.00    +0.151 HD
ENDROOT
BRANCH   2  15
ATOM     14  O   UNL     1      36.210 -20.009 -22.066  0.00  0.00    -0.338 OA
ATOM     15  C   UNL     1      36.174 -18.592 -22.324  0.00  0.00    +0.182 C 
ATOM     16  C   UNL     1      36.426 -18.863 -19.993  0.00  0.00    +0.144 C 
ATOM     17  C   UNL     1      35.807 -17.924 -21.002  0.00  0.00    +0.079 C 
ATOM     18  C   UNL     1      36.246 -20.230 -20.642  0.00  0.00    +0.174 C 
BRANCH  16  19
ATOM     19  O   UNL     1      37.816 -18.563 -19.888  0.00  0.00    -0.382 OA
ATOM     20  H   UNL     1      38.156 -18.897 -19.043  0.00  0.00    +0.210 HD
ENDBRANCH  16  19
BRANCH  18  21
ATOM     21  C   UNL     1      34.943 -20.906 -20.238  0.00  0.00    +0.186 C 
BRANCH  21  22
ATOM     22  O   UNL     1      35.248 -22.063 -19.479  0.00  0.00    -0.271 OA
BRANCH  22  23
ATOM     23  P   UNL     1      34.060 -22.767 -18.633  0.00  0.00    +0.473 P 
ATOM     24  O   UNL     1      32.781 -21.986 -18.567  0.00  0.00    -0.227 OA
BRANCH  23  25
ATOM     25  O   UNL     1      33.937 -24.223 -19.326  0.00  0.00    -0.303 OA
ATOM     26  H   UNL     1      34.313 -24.188 -20.220  0.00  0.00    +0.222 HD
ENDBRANCH  23  25
BRANCH  23  27
ATOM     27  O   UNL     1      34.748 -23.091 -17.205  0.00  0.00    -0.303 OA
ATOM     28  H   UNL     1      35.170 -23.964 -17.240  0.00  0.00    +0.222 HD
ENDBRANCH  23  27
ENDBRANCH  22  23
ENDBRANCH  21  22
ENDBRANCH  18  21
ENDBRANCH   2  15
BRANCH   6  29
ATOM     29  C   UNL     1      33.994 -12.328 -23.616  0.00  0.00    +0.117 C 
BRANCH  29  30
ATOM     30  C   UNL     1      33.043 -11.798 -22.588  0.00  0.00    -0.003 C 
ATOM     31  C   UNL     1      32.858 -10.420 -22.385  0.00  0.00    -0.002 C 
ATOM     32  C   UNL     1      31.944  -9.982 -21.397  0.00  0.00    -0.000 C 
ATOM     33  C   UNL     1      32.335 -12.730 -21.829  0.00  0.00    -0.003 C 
ATOM     34  C   UNL     1      33.561  -9.467 -23.140  0.00  0.00    -0.000 C 
ATOM     35  C   UNL     1      31.242 -10.935 -20.641  0.00  0.00    -0.000 C 
ATOM     36  C   UNL     1      31.437 -12.300 -20.857  0.00  0.00    -0.000 C 
ATOM     37  C   UNL     1      31.760  -8.605 -21.193  0.00  0.00    -0.000 C 
ATOM     38  C   UNL     1      33.366  -8.103 -22.924  0.00  0.00    -0.000 C 
ATOM     39  C   UNL     1      32.467  -7.673 -21.953  0.00  0.00    -0.000 C 
ENDBRANCH  29  30
ENDBRANCH   6  29
TORSDOF 9
ENDMDL
MODEL 9
REMARK VINA RESULT:      -9.2      8.591     11.839
REMARK  Name = 46937134
REMARK  9 active torsions:
REMARK  status: ('A' for Active; 'I' for Inactive)
REMARK    1  A    between atoms: N_2  and  C_15
REMARK    2  A    between atoms: N_6  and  C_29
REMARK    3  A    between atoms: C_16  and  O_19
REMARK    4  A    between atoms: C_18  and  C_21
REMARK    5  A    between atoms: C_21  and  O_22
REMARK    6  A    between atoms: O_22  and  P_23
REMARK    7  A    between atoms: P_23  and  O_25
REMARK    8  A    between atoms: P_23  and  O_27
REMARK    9  A    between atoms: C_29  and  C_30
REMARK                            x       y       z     vdW  Elec       q    Type
REMARK                         _______ _______ _______ _____ _____    ______ ____
ROOT
ATOM      1  O   UNL     1      35.086 -16.496 -25.478  0.00  0.00    -0.208 OA
ATOM      2  N   UNL     1      32.812 -13.758 -22.692  0.00  0.00    -0.209 NA
ATOM      3  N   UNL     1      33.768 -15.767 -21.708  0.00  0.00    -0.279 N 
ATOM      4  N   UNL     1      33.509 -14.099 -24.797  0.00  0.00    -0.241 NA
ATOM      5  N   UNL     1      34.955 -17.160 -23.262  0.00  0.00    -0.301 NA
ATOM      6  N   UNL     1      34.749 -17.710 -21.002  0.00  0.00    -0.292 N 
ATOM      7  C   UNL     1      33.503 -14.921 -22.707  0.00  0.00    +0.191 C 
ATOM      8  C   UNL     1      32.843 -13.295 -23.987  0.00  0.00    +0.205 C 
ATOM      9  C   UNL     1      33.924 -15.121 -23.990  0.00  0.00    +0.183 C 
ATOM     10  C   UNL     1      34.513 -16.895 -22.047  0.00  0.00    +0.248 C 
ATOM     11  C   UNL     1      34.698 -16.297 -24.334  0.00  0.00    +0.224 C 
ATOM     12  H   UNL     1      33.455 -15.604 -20.789  0.00  0.00    +0.152 HD
ATOM     13  H   UNL     1      34.393 -17.459 -20.120  0.00  0.00    +0.151 HD
ENDROOT
BRANCH   2  15
ATOM     14  O   UNL     1      31.250 -12.037 -21.932  0.00  0.00    -0.338 OA
ATOM     15  C   UNL     1      32.141 -13.090 -21.518  0.00  0.00    +0.182 C 
ATOM     16  C   UNL     1      32.288 -11.384 -19.894  0.00  0.00    +0.144 C 
ATOM     17  C   UNL     1      33.130 -12.458 -20.543  0.00  0.00    +0.079 C 
ATOM     18  C   UNL     1      31.389 -10.918 -21.033  0.00  0.00    +0.174 C 
BRANCH  16  19
ATOM     19  O   UNL     1      31.495 -11.986 -18.874  0.00  0.00    -0.382 OA
ATOM     20  H   UNL     1      30.586 -12.098 -19.196  0.00  0.00    +0.210 HD
ENDBRANCH  16  19
BRANCH  18  21
ATOM     21  C   UNL     1      31.987  -9.758 -21.817  0.00  0.00    +0.186 C 
BRANCH  21  22
ATOM     22  O   UNL     1      31.634  -8.545 -21.173  0.00  0.00    -0.271 OA
BRANCH  22  23
ATOM     23  P   UNL     1      32.796  -7.456 -20.885  0.00  0.00    +0.473 P 
ATOM     24  O   UNL     1      33.908  -7.436 -21.893  0.00  0.00    -0.227 OA
BRANCH  23  25
ATOM     25  O   UNL     1      31.970  -6.073 -20.752  0.00  0.00    -0.303 OA
ATOM     26  H   UNL     1      32.519  -5.337 -21.068  0.00  0.00    +0.222 HD
ENDBRANCH  23  25
BRANCH  23  27
ATOM     27  O   UNL     1      33.246  -7.769 -19.364  0.00  0.00    -0.303 OA
ATOM     28  H   UNL     1      32.945  -8.656 -19.114  0.00  0.00    +0.222 HD
ENDBRANCH  23  27
ENDBRANCH  22  23
ENDBRANCH  21  22
ENDBRANCH  18  21
ENDBRANCH   2  15
BRANCH   6  29
ATOM     29  C   UNL     1      35.502 -18.938 -21.118  0.00  0.00    +0.117 C 
BRANCH  29  30
ATOM     30  C   UNL     1      34.795 -20.061 -20.424  0.00  0.00    -0.003 C 
ATOM     31  C   UNL     1      35.437 -20.871 -19.473  0.00  0.00    -0.002 C 
ATOM     32  C   UNL     1      34.714 -21.917 -18.852  0.00  0.00    -0.000 C 
ATOM     33  C   UNL     1      33.458 -20.279 -20.756  0.00  0.00    -0.003 C 
ATOM     34  C   UNL     1      36.782 -20.667 -19.125  0.00  0.00    -0.000 C 
ATOM     35  C   UNL     1      33.369 -22.123 -19.201  0.00  0.00    -0.000 C 
ATOM     36  C   UNL     1      32.746 -21.307 -20.146  0.00  0.00    -0.000 C 
ATOM     37  C   UNL     1      35.356 -22.728 -17.902  0.00  0.00    -0.000 C 
ATOM     38  C   UNL     1      37.405 -21.482 -18.180  0.00  0.00    -0.000 C 
ATOM     39  C   UNL     1      36.693 -22.510 -17.569  0.00  0.00    -0.000 C 
ENDBRANCH  29  30
ENDBRANCH   6  29
TORSDOF 9
ENDMDL
