MODEL 1
REMARK VINA RESULT:     -12.1      0.000      0.000
REMARK  Name = 10407120
REMARK  4 active torsions:
REMARK  status: ('A' for Active; 'I' for Inactive)
REMARK    1  A    between atoms: N_2  and  C_19
REMARK    2  A    between atoms: C_3  and  C_6
REMARK    3  A    between atoms: C_5  and  C_16
REMARK    4  A    between atoms: C_19  and  C_21
REMARK                            x       y       z     vdW  Elec       q    Type
REMARK                         _______ _______ _______ _____ _____    ______ ____
ROOT
ATOM      1  O   UNL     1      34.545 -16.806 -25.548  0.00  0.00    -0.270 OA
ATOM      2  N   UNL     1      34.891 -17.638 -23.405  0.00  0.00    -0.267 N 
ATOM      3  C   UNL     1      34.654 -16.622 -24.335  0.00  0.00    +0.250 C 
ATOM      4  C   UNL     1      35.025 -19.013 -23.868  0.00  0.00    +0.116 C 
ENDROOT
BRANCH   3   6
ATOM      5  C   UNL     1      33.380 -14.571 -23.810  0.00  0.00    +0.006 C 
ATOM      6  C   UNL     1      34.559 -15.237 -23.786  0.00  0.00    +0.058 C 
BRANCH   5  16
ATOM      7  O   UNL     1      31.798  -7.738 -20.625  0.00  0.00    -0.275 OA
ATOM      8  N   UNL     1      32.639  -9.291 -22.095  0.00  0.00    -0.270 N 
ATOM      9  N   UNL     1      33.597 -10.851 -23.592  0.00  0.00    -0.229 NA
ATOM     10  C   UNL     1      31.253 -11.313 -20.672  0.00  0.00    +0.039 C 
ATOM     11  C   UNL     1      32.187 -11.644 -21.795  0.00  0.00    +0.010 C 
ATOM     12  C   UNL     1      31.689 -10.040 -19.963  0.00  0.00    +0.090 C 
ATOM     13  C   UNL     1      32.824 -10.626 -22.503  0.00  0.00    +0.130 C 
ATOM     14  C   UNL     1      32.366 -12.957 -22.233  0.00  0.00    +0.000 C 
ATOM     15  C   UNL     1      32.008  -8.913 -20.925  0.00  0.00    +0.227 C 
ATOM     16  C   UNL     1      33.172 -13.215 -23.336  0.00  0.00    +0.019 C 
ATOM     17  C   UNL     1      33.757 -12.137 -23.975  0.00  0.00    +0.100 C 
ATOM     18  H   UNL     1      32.981  -8.579 -22.681  0.00  0.00    +0.156 HD
ENDBRANCH   5  16
ENDBRANCH   3   6
BRANCH   2  19
ATOM     19  C   UNL     1      35.056 -17.439 -21.966  0.00  0.00    +0.158 C 
BRANCH  19  21
ATOM     20  O   UNL     1      33.908 -19.246 -20.883  0.00  0.00    -0.456 OA
ATOM     21  C   UNL     1      35.109 -18.741 -21.222  0.00  0.00    +0.139 A 
ATOM     22  C   UNL     1      36.140 -19.521 -20.818  0.00  0.00    +0.013 A 
ATOM     23  C   UNL     1      35.543 -20.628 -20.159  0.00  0.00    +0.033 A 
ATOM     24  C   UNL     1      34.170 -20.411 -20.226  0.00  0.00    +0.145 A 
ATOM     25  C   UNL     1      37.583 -19.280 -21.016  0.00  0.00    +0.034 C 
ATOM     26  C   UNL     1      36.009 -21.786 -19.515  0.00  0.00    +0.003 C 
ATOM     27  C   UNL     1      33.215 -21.274 -19.692  0.00  0.00    +0.037 C 
ATOM     28  C   UNL     1      35.073 -22.674 -18.967  0.00  0.00    +0.000 C 
ATOM     29  C   UNL     1      33.702 -22.420 -19.055  0.00  0.00    +0.003 C 
ENDBRANCH  19  21
ENDBRANCH   2  19
TORSDOF 4
ENDMDL
MODEL 2
REMARK VINA RESULT:     -12.0      2.394      9.696
REMARK  Name = 10407120
REMARK  4 active torsions:
REMARK  status: ('A' for Active; 'I' for Inactive)
REMARK    1  A    between atoms: N_2  and  C_19
REMARK    2  A    between atoms: C_3  and  C_6
REMARK    3  A    between atoms: C_5  and  C_16
REMARK    4  A    between atoms: C_19  and  C_21
REMARK                            x       y       z     vdW  Elec       q    Type
REMARK                         _______ _______ _______ _____ _____    ______ ____
ROOT
ATOM      1  O   UNL     1      34.807 -16.493 -25.592  0.00  0.00    -0.270 OA
ATOM      2  N   UNL     1      33.641 -14.983 -24.263  0.00  0.00    -0.267 N 
ATOM      3  C   UNL     1      34.491 -16.072 -24.478  0.00  0.00    +0.250 C 
ATOM      4  C   UNL     1      33.076 -14.281 -25.409  0.00  0.00    +0.116 C 
ENDROOT
BRANCH   3   6
ATOM      5  C   UNL     1      35.067 -18.108 -23.204  0.00  0.00    +0.006 C 
ATOM      6  C   UNL     1      35.004 -16.756 -23.254  0.00  0.00    +0.058 C 
BRANCH   5  16
ATOM      7  O   UNL     1      36.651 -22.643 -17.182  0.00  0.00    -0.275 OA
ATOM      8  N   UNL     1      36.916 -21.034 -18.800  0.00  0.00    -0.270 N 
ATOM      9  N   UNL     1      37.274 -19.426 -20.497  0.00  0.00    -0.229 NA
ATOM     10  C   UNL     1      34.223 -21.447 -19.581  0.00  0.00    +0.039 C 
ATOM     11  C   UNL     1      35.130 -20.531 -20.345  0.00  0.00    +0.010 C 
ATOM     12  C   UNL     1      35.013 -22.572 -18.932  0.00  0.00    +0.090 C 
ATOM     13  C   UNL     1      36.438 -20.317 -19.914  0.00  0.00    +0.130 C 
ATOM     14  C   UNL     1      34.670 -19.792 -21.436  0.00  0.00    +0.000 C 
ATOM     15  C   UNL     1      36.242 -22.078 -18.197  0.00  0.00    +0.227 C 
ATOM     16  C   UNL     1      35.517 -18.886 -22.064  0.00  0.00    +0.019 C 
ATOM     17  C   UNL     1      36.796 -18.740 -21.559  0.00  0.00    +0.100 C 
ATOM     18  H   UNL     1      37.789 -20.774 -18.426  0.00  0.00    +0.156 HD
ENDBRANCH   5  16
ENDBRANCH   3   6
BRANCH   2  19
ATOM     19  C   UNL     1      33.226 -14.486 -22.953  0.00  0.00    +0.158 C 
BRANCH  19  21
ATOM     20  O   UNL     1      34.169 -12.390 -23.644  0.00  0.00    -0.456 OA
ATOM     21  C   UNL     1      33.221 -12.987 -22.896  0.00  0.00    +0.139 A 
ATOM     22  C   UNL     1      32.441 -12.100 -22.233  0.00  0.00    +0.013 A 
ATOM     23  C   UNL     1      32.936 -10.818 -22.590  0.00  0.00    +0.033 A 
ATOM     24  C   UNL     1      33.998 -11.052 -23.458  0.00  0.00    +0.145 A 
ATOM     25  C   UNL     1      31.313 -12.394 -21.327  0.00  0.00    +0.034 C 
ATOM     26  C   UNL     1      32.605  -9.489 -22.275  0.00  0.00    +0.003 C 
ATOM     27  C   UNL     1      34.763 -10.046 -24.045  0.00  0.00    +0.037 C 
ATOM     28  C   UNL     1      33.357  -8.455 -22.849  0.00  0.00    +0.000 C 
ATOM     29  C   UNL     1      34.417  -8.731 -23.718  0.00  0.00    +0.003 C 
ENDBRANCH  19  21
ENDBRANCH   2  19
TORSDOF 4
ENDMDL
MODEL 3
REMARK VINA RESULT:     -11.7      2.461      8.891
REMARK  Name = 10407120
REMARK  4 active torsions:
REMARK  status: ('A' for Active; 'I' for Inactive)
REMARK    1  A    between atoms: N_2  and  C_19
REMARK    2  A    between atoms: C_3  and  C_6
REMARK    3  A    between atoms: C_5  and  C_16
REMARK    4  A    between atoms: C_19  and  C_21
REMARK                            x       y       z     vdW  Elec       q    Type
REMARK                         _______ _______ _______ _____ _____    ______ ____
ROOT
ATOM      1  O   UNL     1      33.582 -17.542 -25.497  0.00  0.00    -0.270 OA
ATOM      2  N   UNL     1      34.210 -15.414 -24.805  0.00  0.00    -0.267 N 
ATOM      3  C   UNL     1      34.190 -16.809 -24.716  0.00  0.00    +0.250 C 
ATOM      4  C   UNL     1      33.475 -14.756 -25.877  0.00  0.00    +0.116 C 
ENDROOT
BRANCH   3   6
ATOM      5  C   UNL     1      34.554 -18.591 -23.046  0.00  0.00    +0.006 C 
ATOM      6  C   UNL     1      34.941 -17.405 -23.572  0.00  0.00    +0.058 C 
BRANCH   5  16
ATOM      7  O   UNL     1      37.123 -22.568 -16.970  0.00  0.00    -0.275 OA
ATOM      8  N   UNL     1      37.090 -21.068 -18.709  0.00  0.00    -0.270 N 
ATOM      9  N   UNL     1      37.140 -19.568 -20.537  0.00  0.00    -0.229 NA
ATOM     10  C   UNL     1      34.362 -21.705 -19.139  0.00  0.00    +0.039 C 
ATOM     11  C   UNL     1      35.110 -20.792 -20.062  0.00  0.00    +0.010 C 
ATOM     12  C   UNL     1      35.298 -22.728 -18.516  0.00  0.00    +0.090 C 
ATOM     13  C   UNL     1      36.440 -20.465 -19.803  0.00  0.00    +0.130 C 
ATOM     14  C   UNL     1      34.479 -20.164 -21.137  0.00  0.00    +0.000 C 
ATOM     15  C   UNL     1      36.564 -22.105 -17.964  0.00  0.00    +0.227 C 
ATOM     16  C   UNL     1      35.183 -19.255 -21.918  0.00  0.00    +0.019 C 
ATOM     17  C   UNL     1      36.497 -18.993 -21.578  0.00  0.00    +0.100 C 
ATOM     18  H   UNL     1      37.978 -20.728 -18.458  0.00  0.00    +0.156 HD
ENDBRANCH   5  16
ENDBRANCH   3   6
BRANCH   2  19
ATOM     19  C   UNL     1      34.895 -14.522 -23.871  0.00  0.00    +0.158 C 
BRANCH  19  21
ATOM     20  O   UNL     1      33.412 -12.748 -23.226  0.00  0.00    -0.456 OA
ATOM     21  C   UNL     1      33.951 -13.928 -22.866  0.00  0.00    +0.139 A 
ATOM     22  C   UNL     1      33.526 -14.351 -21.652  0.00  0.00    +0.013 A 
ATOM     23  C   UNL     1      32.633 -13.348 -21.192  0.00  0.00    +0.033 A 
ATOM     24  C   UNL     1      32.598 -12.385 -22.196  0.00  0.00    +0.145 A 
ATOM     25  C   UNL     1      33.905 -15.591 -20.946  0.00  0.00    +0.034 C 
ATOM     26  C   UNL     1      31.851 -13.147 -20.041  0.00  0.00    +0.003 C 
ATOM     27  C   UNL     1      31.832 -11.222 -22.137  0.00  0.00    +0.037 C 
ATOM     28  C   UNL     1      31.071 -11.987 -19.953  0.00  0.00    +0.000 C 
ATOM     29  C   UNL     1      31.063 -11.042 -20.983  0.00  0.00    +0.003 C 
ENDBRANCH  19  21
ENDBRANCH   2  19
TORSDOF 4
ENDMDL
MODEL 4
REMARK VINA RESULT:     -11.6      2.976      9.776
REMARK  Name = 10407120
REMARK  4 active torsions:
REMARK  status: ('A' for Active; 'I' for Inactive)
REMARK    1  A    between atoms: N_2  and  C_19
REMARK    2  A    between atoms: C_3  and  C_6
REMARK    3  A    between atoms: C_5  and  C_16
REMARK    4  A    between atoms: C_19  and  C_21
REMARK                            x       y       z     vdW  Elec       q    Type
REMARK                         _______ _______ _______ _____ _____    ______ ____
ROOT
ATOM      1  O   UNL     1      34.631 -19.093 -24.223  0.00  0.00    -0.270 OA
ATOM      2  N   UNL     1      34.835 -17.037 -23.158  0.00  0.00    -0.267 N 
ATOM      3  C   UNL     1      34.881 -18.433 -23.213  0.00  0.00    +0.250 C 
ATOM      4  C   UNL     1      34.471 -16.287 -24.352  0.00  0.00    +0.116 C 
ENDROOT
BRANCH   3   6
ATOM      5  C   UNL     1      34.510 -20.199 -21.527  0.00  0.00    +0.006 C 
ATOM      6  C   UNL     1      35.232 -19.131 -21.941  0.00  0.00    +0.058 C 
BRANCH   5  16
ATOM      7  O   UNL     1      34.813 -24.281 -15.001  0.00  0.00    -0.275 OA
ATOM      8  N   UNL     1      35.506 -23.011 -16.786  0.00  0.00    -0.270 N 
ATOM      9  N   UNL     1      36.285 -21.778 -18.648  0.00  0.00    -0.229 NA
ATOM     10  C   UNL     1      32.796 -22.720 -17.564  0.00  0.00    +0.039 C 
ATOM     11  C   UNL     1      33.916 -22.196 -18.410  0.00  0.00    +0.010 C 
ATOM     12  C   UNL     1      33.239 -23.943 -16.777  0.00  0.00    +0.090 C 
ATOM     13  C   UNL     1      35.237 -22.319 -17.983  0.00  0.00    +0.130 C 
ATOM     14  C   UNL     1      33.672 -21.485 -19.586  0.00  0.00    +0.000 C 
ATOM     15  C   UNL     1      34.570 -23.741 -16.080  0.00  0.00    +0.227 C 
ATOM     16  C   UNL     1      34.734 -20.938 -20.298  0.00  0.00    +0.019 C 
ATOM     17  C   UNL     1      36.008 -21.109 -19.789  0.00  0.00    +0.100 C 
ATOM     18  H   UNL     1      36.421 -22.972 -16.428  0.00  0.00    +0.156 HD
ENDBRANCH   5  16
ENDBRANCH   3   6
BRANCH   2  19
ATOM     19  C   UNL     1      35.094 -16.235 -21.963  0.00  0.00    +0.158 C 
BRANCH  19  21
ATOM     20  O   UNL     1      34.670 -14.045 -22.848  0.00  0.00    -0.456 OA
ATOM     21  C   UNL     1      34.285 -14.971 -21.950  0.00  0.00    +0.139 A 
ATOM     22  C   UNL     1      33.228 -14.571 -21.204  0.00  0.00    +0.013 A 
ATOM     23  C   UNL     1      32.908 -13.268 -21.667  0.00  0.00    +0.033 A 
ATOM     24  C   UNL     1      33.824 -12.991 -22.677  0.00  0.00    +0.145 A 
ATOM     25  C   UNL     1      32.546 -15.324 -20.132  0.00  0.00    +0.034 C 
ATOM     26  C   UNL     1      31.948 -12.294 -21.345  0.00  0.00    +0.003 C 
ATOM     27  C   UNL     1      33.854 -11.800 -23.400  0.00  0.00    +0.037 C 
ATOM     28  C   UNL     1      31.953 -11.085 -22.055  0.00  0.00    +0.000 C 
ATOM     29  C   UNL     1      32.890 -10.844 -23.063  0.00  0.00    +0.003 C 
ENDBRANCH  19  21
ENDBRANCH   2  19
TORSDOF 4
ENDMDL
MODEL 5
REMARK VINA RESULT:     -11.2      6.314     10.625
REMARK  Name = 10407120
REMARK  4 active torsions:
REMARK  status: ('A' for Active; 'I' for Inactive)
REMARK    1  A    between atoms: N_2  and  C_19
REMARK    2  A    between atoms: C_3  and  C_6
REMARK    3  A    between atoms: C_5  and  C_16
REMARK    4  A    between atoms: C_19  and  C_21
REMARK                            x       y       z     vdW  Elec       q    Type
REMARK                         _______ _______ _______ _____ _____    ______ ____
ROOT
ATOM      1  O   UNL     1      30.565 -24.876 -15.829  0.00  0.00    -0.270 OA
ATOM      2  N   UNL     1      31.869 -24.373 -13.972  0.00  0.00    -0.267 N 
ATOM      3  C   UNL     1      31.475 -24.232 -15.306  0.00  0.00    +0.250 C 
ATOM      4  C   UNL     1      31.179 -25.334 -13.121  0.00  0.00    +0.116 C 
ENDROOT
BRANCH   3   6
ATOM      5  C   UNL     1      33.147 -23.681 -17.038  0.00  0.00    +0.006 C 
ATOM      6  C   UNL     1      32.251 -23.249 -16.119  0.00  0.00    +0.058 C 
BRANCH   5  16
ATOM      7  O   UNL     1      36.803 -18.856 -21.802  0.00  0.00    -0.275 OA
ATOM      8  N   UNL     1      36.473 -20.441 -20.172  0.00  0.00    -0.270 N 
ATOM      9  N   UNL     1      36.183 -22.013 -18.430  0.00  0.00    -0.229 NA
ATOM     10  C   UNL     1      33.707 -20.428 -20.793  0.00  0.00    +0.039 C 
ATOM     11  C   UNL     1      34.249 -21.220 -19.643  0.00  0.00    +0.010 C 
ATOM     12  C   UNL     1      34.554 -19.190 -21.044  0.00  0.00    +0.090 C 
ATOM     13  C   UNL     1      35.619 -21.239 -19.386  0.00  0.00    +0.130 C 
ATOM     14  C   UNL     1      33.426 -22.037 -18.867  0.00  0.00    +0.000 C 
ATOM     15  C   UNL     1      36.038 -19.492 -21.077  0.00  0.00    +0.227 C 
ATOM     16  C   UNL     1      33.980 -22.826 -17.865  0.00  0.00    +0.019 C 
ATOM     17  C   UNL     1      35.351 -22.780 -17.690  0.00  0.00    +0.100 C 
ATOM     18  H   UNL     1      37.443 -20.568 -20.071  0.00  0.00    +0.156 HD
ENDBRANCH   5  16
ENDBRANCH   3   6
BRANCH   2  19
ATOM     19  C   UNL     1      32.967 -23.645 -13.338  0.00  0.00    +0.158 C 
BRANCH  19  21
ATOM     20  O   UNL     1      34.486 -25.135 -14.447  0.00  0.00    -0.456 OA
ATOM     21  C   UNL     1      34.235 -24.448 -13.318  0.00  0.00    +0.139 A 
ATOM     22  C   UNL     1      35.191 -24.620 -12.374  0.00  0.00    +0.013 A 
ATOM     23  C   UNL     1      36.143 -25.499 -12.955  0.00  0.00    +0.033 A 
ATOM     24  C   UNL     1      35.662 -25.787 -14.229  0.00  0.00    +0.145 A 
ATOM     25  C   UNL     1      35.243 -24.023 -11.025  0.00  0.00    +0.034 C 
ATOM     26  C   UNL     1      37.353 -26.084 -12.546  0.00  0.00    +0.003 C 
ATOM     27  C   UNL     1      36.308 -26.623 -15.137  0.00  0.00    +0.037 C 
ATOM     28  C   UNL     1      38.026 -26.930 -13.437  0.00  0.00    +0.000 C 
ATOM     29  C   UNL     1      37.511 -27.195 -14.708  0.00  0.00    +0.003 C 
ENDBRANCH  19  21
ENDBRANCH   2  19
TORSDOF 4
ENDMDL
MODEL 6
REMARK VINA RESULT:     -10.7      4.029      7.702
REMARK  Name = 10407120
REMARK  4 active torsions:
REMARK  status: ('A' for Active; 'I' for Inactive)
REMARK    1  A    between atoms: N_2  and  C_19
REMARK    2  A    between atoms: C_3  and  C_6
REMARK    3  A    between atoms: C_5  and  C_16
REMARK    4  A    between atoms: C_19  and  C_21
REMARK                            x       y       z     vdW  Elec       q    Type
REMARK                         _______ _______ _______ _____ _____    ______ ____
ROOT
ATOM      1  O   UNL     1      32.105  -8.729 -18.780  0.00  0.00    -0.270 OA
ATOM      2  N   UNL     1      31.513 -10.572 -20.067  0.00  0.00    -0.267 N 
ATOM      3  C   UNL     1      31.922  -9.248 -19.882  0.00  0.00    +0.250 C 
ATOM      4  C   UNL     1      31.278 -11.416 -18.904  0.00  0.00    +0.116 C 
ENDROOT
BRANCH   3   6
ATOM      5  C   UNL     1      31.933  -7.097 -21.096  0.00  0.00    +0.006 C 
ATOM      6  C   UNL     1      32.113  -8.439 -21.122  0.00  0.00    +0.058 C 
BRANCH   5  16
ATOM      7  O   UNL     1      33.267  -2.923 -27.431  0.00  0.00    -0.275 OA
ATOM      8  N   UNL     1      32.318  -3.593 -25.450  0.00  0.00    -0.270 N 
ATOM      9  N   UNL     1      31.250  -4.287 -23.456  0.00  0.00    -0.229 NA
ATOM     10  C   UNL     1      34.286  -5.623 -25.253  0.00  0.00    +0.039 C 
ATOM     11  C   UNL     1      33.160  -5.525 -24.271  0.00  0.00    +0.010 C 
ATOM     12  C   UNL     1      33.863  -5.097 -26.615  0.00  0.00    +0.090 C 
ATOM     13  C   UNL     1      32.228  -4.492 -24.369  0.00  0.00    +0.130 C 
ATOM     14  C   UNL     1      33.067  -6.389 -23.178  0.00  0.00    +0.000 C 
ATOM     15  C   UNL     1      33.158  -3.758 -26.533  0.00  0.00    +0.227 C 
ATOM     16  C   UNL     1      32.058  -6.210 -22.239  0.00  0.00    +0.019 C 
ATOM     17  C   UNL     1      31.185  -5.153 -22.421  0.00  0.00    +0.100 C 
ATOM     18  H   UNL     1      31.743  -2.795 -25.432  0.00  0.00    +0.156 HD
ENDBRANCH   5  16
ENDBRANCH   3   6
BRANCH   2  19
ATOM     19  C   UNL     1      31.258 -11.199 -21.363  0.00  0.00    +0.158 C 
BRANCH  19  21
ATOM     20  O   UNL     1      32.076 -13.363 -20.726  0.00  0.00    -0.456 OA
ATOM     21  C   UNL     1      32.177 -12.358 -21.616  0.00  0.00    +0.139 A 
ATOM     22  C   UNL     1      33.102 -12.598 -22.577  0.00  0.00    +0.013 A 
ATOM     23  C   UNL     1      33.642 -13.876 -22.272  0.00  0.00    +0.033 A 
ATOM     24  C   UNL     1      32.978 -14.303 -21.126  0.00  0.00    +0.145 A 
ATOM     25  C   UNL     1      33.476 -11.723 -23.705  0.00  0.00    +0.034 C 
ATOM     26  C   UNL     1      34.616 -14.716 -22.837  0.00  0.00    +0.003 C 
ATOM     27  C   UNL     1      33.216 -15.522 -20.494  0.00  0.00    +0.037 C 
ATOM     28  C   UNL     1      34.878 -15.949 -22.224  0.00  0.00    +0.000 C 
ATOM     29  C   UNL     1      34.190 -16.341 -21.073  0.00  0.00    +0.003 C 
ENDBRANCH  19  21
ENDBRANCH   2  19
TORSDOF 4
ENDMDL
MODEL 7
REMARK VINA RESULT:     -10.5      3.427      6.294
REMARK  Name = 10407120
REMARK  4 active torsions:
REMARK  status: ('A' for Active; 'I' for Inactive)
REMARK    1  A    between atoms: N_2  and  C_19
REMARK    2  A    between atoms: C_3  and  C_6
REMARK    3  A    between atoms: C_5  and  C_16
REMARK    4  A    between atoms: C_19  and  C_21
REMARK                            x       y       z     vdW  Elec       q    Type
REMARK                         _______ _______ _______ _____ _____    ______ ____
ROOT
ATOM      1  O   UNL     1      30.735 -11.541 -20.561  0.00  0.00    -0.270 OA
ATOM      2  N   UNL     1      32.423 -12.632 -21.728  0.00  0.00    -0.267 N 
ATOM      3  C   UNL     1      31.611 -11.535 -21.427  0.00  0.00    +0.250 C 
ATOM      4  C   UNL     1      32.247 -13.876 -20.990  0.00  0.00    +0.116 C 
ENDROOT
BRANCH   3   6
ATOM      5  C   UNL     1      31.623  -9.082 -21.712  0.00  0.00    +0.006 C 
ATOM      6  C   UNL     1      31.833 -10.308 -22.248  0.00  0.00    +0.058 C 
BRANCH   5  16
ATOM      7  O   UNL     1      33.120  -2.771 -25.868  0.00  0.00    -0.275 OA
ATOM      8  N   UNL     1      32.103  -4.164 -24.351  0.00  0.00    -0.270 N 
ATOM      9  N   UNL     1      30.967  -5.583 -22.837  0.00  0.00    -0.229 NA
ATOM     10  C   UNL     1      34.116  -6.095 -24.851  0.00  0.00    +0.039 C 
ATOM     11  C   UNL     1      32.945  -6.394 -23.966  0.00  0.00    +0.010 C 
ATOM     12  C   UNL     1      33.740  -5.086 -25.924  0.00  0.00    +0.090 C 
ATOM     13  C   UNL     1      31.991  -5.411 -23.707  0.00  0.00    +0.130 C 
ATOM     14  C   UNL     1      32.828  -7.614 -23.298  0.00  0.00    +0.000 C 
ATOM     15  C   UNL     1      32.995  -3.889 -25.368  0.00  0.00    +0.227 C 
ATOM     16  C   UNL     1      31.773  -7.821 -22.416  0.00  0.00    +0.019 C 
ATOM     17  C   UNL     1      30.881  -6.783 -22.221  0.00  0.00    +0.100 C 
ATOM     18  H   UNL     1      31.506  -3.439 -24.056  0.00  0.00    +0.156 HD
ENDBRANCH   5  16
ENDBRANCH   3   6
BRANCH   2  19
ATOM     19  C   UNL     1      33.446 -12.659 -22.773  0.00  0.00    +0.158 C 
BRANCH  19  21
ATOM     20  O   UNL     1      34.449 -14.752 -22.164  0.00  0.00    -0.456 OA
ATOM     21  C   UNL     1      33.835 -14.060 -23.142  0.00  0.00    +0.139 A 
ATOM     22  C   UNL     1      33.687 -14.779 -24.281  0.00  0.00    +0.013 A 
ATOM     23  C   UNL     1      34.261 -16.048 -24.005  0.00  0.00    +0.033 A 
ATOM     24  C   UNL     1      34.715 -15.980 -22.691  0.00  0.00    +0.145 A 
ATOM     25  C   UNL     1      33.063 -14.345 -25.546  0.00  0.00    +0.034 C 
ATOM     26  C   UNL     1      34.446 -17.245 -24.718  0.00  0.00    +0.003 C 
ATOM     27  C   UNL     1      35.348 -17.029 -22.028  0.00  0.00    +0.037 C 
ATOM     28  C   UNL     1      35.080 -18.318 -24.078  0.00  0.00    +0.000 C 
ATOM     29  C   UNL     1      35.523 -18.209 -22.757  0.00  0.00    +0.003 C 
ENDBRANCH  19  21
ENDBRANCH   2  19
TORSDOF 4
ENDMDL
MODEL 8
REMARK VINA RESULT:     -10.5      4.904     10.884
REMARK  Name = 10407120
REMARK  4 active torsions:
REMARK  status: ('A' for Active; 'I' for Inactive)
REMARK    1  A    between atoms: N_2  and  C_19
REMARK    2  A    between atoms: C_3  and  C_6
REMARK    3  A    between atoms: C_5  and  C_16
REMARK    4  A    between atoms: C_19  and  C_21
REMARK                            x       y       z     vdW  Elec       q    Type
REMARK                         _______ _______ _______ _____ _____    ______ ____
ROOT
ATOM      1  O   UNL     1      37.277 -22.040 -18.289  0.00  0.00    -0.270 OA
ATOM      2  N   UNL     1      35.973 -20.917 -19.851  0.00  0.00    -0.267 N 
ATOM      3  C   UNL     1      36.171 -21.758 -18.752  0.00  0.00    +0.250 C 
ATOM      4  C   UNL     1      37.127 -20.322 -20.512  0.00  0.00    +0.116 C 
ENDROOT
BRANCH   3   6
ATOM      5  C   UNL     1      34.945 -22.763 -16.859  0.00  0.00    +0.006 C 
ATOM      6  C   UNL     1      34.942 -22.352 -18.149  0.00  0.00    +0.058 C 
BRANCH   5  16
ATOM      7  O   UNL     1      28.481 -25.654 -13.825  0.00  0.00    -0.275 OA
ATOM      8  N   UNL     1      30.715 -25.201 -14.112  0.00  0.00    -0.270 N 
ATOM      9  N   UNL     1      33.032 -24.834 -14.412  0.00  0.00    -0.229 NA
ATOM     10  C   UNL     1      30.032 -23.427 -16.215  0.00  0.00    +0.039 C 
ATOM     11  C   UNL     1      31.459 -23.744 -15.889  0.00  0.00    +0.010 C 
ATOM     12  C   UNL     1      29.127 -24.602 -15.881  0.00  0.00    +0.090 C 
ATOM     13  C   UNL     1      31.766 -24.589 -14.823  0.00  0.00    +0.130 C 
ATOM     14  C   UNL     1      32.516 -23.131 -16.563  0.00  0.00    +0.000 C 
ATOM     15  C   UNL     1      29.390 -25.170 -14.501  0.00  0.00    +0.227 C 
ATOM     16  C   UNL     1      33.826 -23.383 -16.172  0.00  0.00    +0.019 C 
ATOM     17  C   UNL     1      34.028 -24.232 -15.099  0.00  0.00    +0.100 C 
ATOM     18  H   UNL     1      30.939 -25.681 -13.284  0.00  0.00    +0.156 HD
ENDBRANCH   5  16
ENDBRANCH   3   6
BRANCH   2  19
ATOM     19  C   UNL     1      34.674 -20.595 -20.439  0.00  0.00    +0.158 C 
BRANCH  19  21
ATOM     20  O   UNL     1      34.577 -18.197 -20.497  0.00  0.00    -0.456 OA
ATOM     21  C   UNL     1      34.716 -19.319 -21.228  0.00  0.00    +0.139 A 
ATOM     22  C   UNL     1      34.869 -19.068 -22.551  0.00  0.00    +0.013 A 
ATOM     23  C   UNL     1      34.824 -17.655 -22.676  0.00  0.00    +0.033 A 
ATOM     24  C   UNL     1      34.642 -17.167 -21.385  0.00  0.00    +0.145 A 
ATOM     25  C   UNL     1      35.046 -20.050 -23.639  0.00  0.00    +0.034 C 
ATOM     26  C   UNL     1      34.915 -16.736 -23.735  0.00  0.00    +0.003 C 
ATOM     27  C   UNL     1      34.546 -15.813 -21.068  0.00  0.00    +0.037 C 
ATOM     28  C   UNL     1      34.821 -15.367 -23.448  0.00  0.00    +0.000 C 
ATOM     29  C   UNL     1      34.638 -14.917 -22.137  0.00  0.00    +0.003 C 
ENDBRANCH  19  21
ENDBRANCH   2  19
TORSDOF 4
ENDMDL
MODEL 9
REMARK VINA RESULT:     -10.4      6.016      9.863
REMARK  Name = 10407120
REMARK  4 active torsions:
REMARK  status: ('A' for Active; 'I' for Inactive)
REMARK    1  A    between atoms: N_2  and  C_19
REMARK    2  A    between atoms: C_3  and  C_6
REMARK    3  A    between atoms: C_5  and  C_16
REMARK    4  A    between atoms: C_19  and  C_21
REMARK                            x       y       z     vdW  Elec       q    Type
REMARK                         _______ _______ _______ _____ _____    ______ ____
ROOT
ATOM      1  O   UNL     1      37.901 -22.603 -14.292  0.00  0.00    -0.270 OA
ATOM      2  N   UNL     1      36.639 -24.530 -14.607  0.00  0.00    -0.267 N 
ATOM      3  C   UNL     1      37.032 -23.223 -14.908  0.00  0.00    +0.250 C 
ATOM      4  C   UNL     1      37.276 -25.230 -13.499  0.00  0.00    +0.116 C 
ENDROOT
BRANCH   3   6
ATOM      5  C   UNL     1      36.916 -22.412 -17.238  0.00  0.00    +0.006 C 
ATOM      6  C   UNL     1      36.311 -22.563 -16.036  0.00  0.00    +0.058 C 
BRANCH   5  16
ATOM      7  O   UNL     1      34.604 -18.552 -23.490  0.00  0.00    -0.275 OA
ATOM      8  N   UNL     1      34.538 -19.963 -21.679  0.00  0.00    -0.270 N 
ATOM      9  N   UNL     1      34.441 -21.491 -19.877  0.00  0.00    -0.229 NA
ATOM     10  C   UNL     1      37.144 -19.100 -20.976  0.00  0.00    +0.039 C 
ATOM     11  C   UNL     1      36.454 -20.201 -20.230  0.00  0.00    +0.010 C 
ATOM     12  C   UNL     1      36.691 -19.063 -22.427  0.00  0.00    +0.090 C 
ATOM     13  C   UNL     1      35.157 -20.578 -20.574  0.00  0.00    +0.130 C 
ATOM     14  C   UNL     1      37.039 -20.806 -19.116  0.00  0.00    +0.000 C 
ATOM     15  C   UNL     1      35.184 -19.131 -22.572  0.00  0.00    +0.227 C 
ATOM     16  C   UNL     1      36.331 -21.762 -18.397  0.00  0.00    +0.019 C 
ATOM     17  C   UNL     1      35.047 -22.064 -18.813  0.00  0.00    +0.100 C 
ATOM     18  H   UNL     1      33.580 -20.137 -21.825  0.00  0.00    +0.156 HD
ENDBRANCH   5  16
ENDBRANCH   3   6
BRANCH   2  19
ATOM     19  C   UNL     1      35.588 -25.273 -15.301  0.00  0.00    +0.158 C 
BRANCH  19  21
ATOM     20  O   UNL     1      33.546 -24.309 -16.113  0.00  0.00    -0.456 OA
ATOM     21  C   UNL     1      34.225 -24.710 -15.022  0.00  0.00    +0.139 A 
ATOM     22  C   UNL     1      33.532 -24.523 -13.874  0.00  0.00    +0.013 A 
ATOM     23  C   UNL     1      32.294 -23.950 -14.267  0.00  0.00    +0.033 A 
ATOM     24  C   UNL     1      32.353 -23.838 -15.653  0.00  0.00    +0.145 A 
ATOM     25  C   UNL     1      33.963 -24.845 -12.499  0.00  0.00    +0.034 C 
ATOM     26  C   UNL     1      31.133 -23.513 -13.607  0.00  0.00    +0.003 C 
ATOM     27  C   UNL     1      31.328 -23.318 -16.440  0.00  0.00    +0.037 C 
ATOM     28  C   UNL     1      30.084 -22.984 -14.371  0.00  0.00    +0.000 C 
ATOM     29  C   UNL     1      30.182 -22.888 -15.762  0.00  0.00    +0.003 C 
ENDBRANCH  19  21
ENDBRANCH   2  19
TORSDOF 4
ENDMDL
