MODEL 1
REMARK VINA RESULT:     -11.5      0.000      0.000
REMARK  Name = 6852168
REMARK  5 active torsions:
REMARK  status: ('A' for Active; 'I' for Inactive)
REMARK    1  A    between atoms: N_1  and  C_5
REMARK    2  A    between atoms: N_1  and  S_19
REMARK    3  A    between atoms: N_4  and  C_9
REMARK    4  A    between atoms: C_9  and  C_14
REMARK    5  A    between atoms: S_19  and  C_23
REMARK                            x       y       z     vdW  Elec       q    Type
REMARK                         _______ _______ _______ _____ _____    ______ ____
ROOT
ATOM      1  N   UNL     1      34.742 -17.687 -22.277  0.00  0.00    -0.172 NA
ATOM      2  H   UNL     1      34.557 -17.538 -21.286  0.00  0.00    +0.149 HD
ENDROOT
BRANCH   1   5
ATOM      3  O   UNL     1      34.746 -14.953 -20.960  0.00  0.00    -0.273 OA
ATOM      4  N   UNL     1      33.644 -14.808 -23.034  0.00  0.00    -0.272 N 
ATOM      5  C   UNL     1      35.308 -16.430 -22.798  0.00  0.00    +0.153 C 
ATOM      6  C   UNL     1      34.985 -16.246 -24.276  0.00  0.00    +0.048 C 
ATOM      7  C   UNL     1      33.643 -15.537 -24.281  0.00  0.00    +0.096 C 
ATOM      8  C   UNL     1      34.569 -15.305 -22.118  0.00  0.00    +0.242 C 
BRANCH   4   9
ATOM      9  C   UNL     1      32.659 -13.786 -22.756  0.00  0.00    +0.152 C 
ATOM     10  C   UNL     1      32.255 -13.756 -21.300  0.00  0.00    +0.031 C 
BRANCH   9  14
ATOM     11  O   UNL     1      31.448  -8.933 -22.065  0.00  0.00    -0.350 OA
ATOM     12  O   UNL     1      34.277 -12.526 -23.946  0.00  0.00    -0.273 OA
ATOM     13  N   UNL     1      32.837 -11.331 -22.573  0.00  0.00    -0.273 N 
ATOM     14  C   UNL     1      33.336 -12.497 -23.148  0.00  0.00    +0.244 C 
ATOM     15  C   UNL     1      31.808 -11.272 -21.529  0.00  0.00    +0.126 C 
ATOM     16  C   UNL     1      33.433 -10.037 -22.903  0.00  0.00    +0.126 C 
ATOM     17  C   UNL     1      30.791 -10.185 -21.853  0.00  0.00    +0.164 C 
ATOM     18  C   UNL     1      32.347  -9.006 -23.174  0.00  0.00    +0.164 C 
ENDBRANCH   9  14
ENDBRANCH   4   9
ENDBRANCH   1   5
BRANCH   1  19
ATOM     19  S   UNL     1      35.627 -19.137 -22.399  0.00  0.00    +0.061 S 
ATOM     20  O   UNL     1      37.009 -18.885 -22.039  0.00  0.00    -0.153 OA
ATOM     21  O   UNL     1      35.307 -19.783 -23.657  0.00  0.00    -0.153 OA
BRANCH  19  23
ATOM     22 CL   UNL     1      33.295 -24.059 -15.918  0.00  0.00    -0.082 Cl
ATOM     23  C   UNL     1      34.900 -20.113 -21.118  0.00  0.00    +0.122 C 
ATOM     24  C   UNL     1      35.723 -20.777 -20.225  0.00  0.00    +0.020 C 
ATOM     25  C   UNL     1      33.524 -20.196 -21.033  0.00  0.00    +0.020 C 
ATOM     26  C   UNL     1      35.160 -21.557 -19.201  0.00  0.00    +0.001 C 
ATOM     27  C   UNL     1      33.752 -21.653 -19.098  0.00  0.00    +0.001 C 
ATOM     28  C   UNL     1      32.947 -20.965 -20.023  0.00  0.00    +0.001 C 
ATOM     29  C   UNL     1      35.964 -22.243 -18.276  0.00  0.00    +0.001 C 
ATOM     30  C   UNL     1      33.189 -22.433 -18.075  0.00  0.00    +0.011 C 
ATOM     31  C   UNL     1      35.388 -23.014 -17.266  0.00  0.00    +0.011 C 
ATOM     32  C   UNL     1      34.003 -23.108 -17.166  0.00  0.00    +0.058 C 
ENDBRANCH  19  23
ENDBRANCH   1  19
TORSDOF 5
ENDMDL
MODEL 2
REMARK VINA RESULT:     -11.3      1.269      1.855
REMARK  Name = 6852168
REMARK  5 active torsions:
REMARK  status: ('A' for Active; 'I' for Inactive)
REMARK    1  A    between atoms: N_1  and  C_5
REMARK    2  A    between atoms: N_1  and  S_19
REMARK    3  A    between atoms: N_4  and  C_9
REMARK    4  A    between atoms: C_9  and  C_14
REMARK    5  A    between atoms: S_19  and  C_23
REMARK                            x       y       z     vdW  Elec       q    Type
REMARK                         _______ _______ _______ _____ _____    ______ ____
ROOT
ATOM      1  N   UNL     1      35.678 -17.105 -21.748  0.00  0.00    -0.172 NA
ATOM      2  H   UNL     1      36.157 -16.422 -22.334  0.00  0.00    +0.149 HD
ENDROOT
BRANCH   1   5
ATOM      3  O   UNL     1      33.926 -15.925 -23.928  0.00  0.00    -0.273 OA
ATOM      4  N   UNL     1      34.079 -14.394 -22.146  0.00  0.00    -0.272 N 
ATOM      5  C   UNL     1      34.274 -16.667 -21.647  0.00  0.00    +0.153 C 
ATOM      6  C   UNL     1      34.029 -15.884 -20.362  0.00  0.00    +0.048 C 
ATOM      7  C   UNL     1      34.355 -14.449 -20.730  0.00  0.00    +0.096 C 
ATOM      8  C   UNL     1      34.053 -15.654 -22.742  0.00  0.00    +0.242 C 
BRANCH   4   9
ATOM      9  C   UNL     1      34.005 -13.135 -22.854  0.00  0.00    +0.152 C 
ATOM     10  C   UNL     1      33.855 -13.320 -24.346  0.00  0.00    +0.031 C 
BRANCH   9  14
ATOM     11  O   UNL     1      32.675  -8.280 -22.457  0.00  0.00    -0.350 OA
ATOM     12  O   UNL     1      32.001 -13.101 -21.588  0.00  0.00    -0.273 OA
ATOM     13  N   UNL     1      32.646 -11.095 -22.562  0.00  0.00    -0.273 N 
ATOM     14  C   UNL     1      32.792 -12.451 -22.276  0.00  0.00    +0.244 C 
ATOM     15  C   UNL     1      33.494 -10.324 -23.477  0.00  0.00    +0.126 C 
ATOM     16  C   UNL     1      31.499 -10.354 -22.037  0.00  0.00    +0.126 C 
ATOM     17  C   UNL     1      33.856  -8.981 -22.853  0.00  0.00    +0.164 C 
ATOM     18  C   UNL     1      31.948  -9.015 -21.470  0.00  0.00    +0.164 C 
ENDBRANCH   9  14
ENDBRANCH   4   9
ENDBRANCH   1   5
BRANCH   1  19
ATOM     19  S   UNL     1      36.049 -18.642 -22.382  0.00  0.00    +0.061 S 
ATOM     20  O   UNL     1      37.477 -18.871 -22.273  0.00  0.00    -0.153 OA
ATOM     21  O   UNL     1      35.380 -18.802 -23.659  0.00  0.00    -0.153 OA
BRANCH  19  23
ATOM     22 CL   UNL     1      33.272 -24.014 -16.458  0.00  0.00    -0.082 Cl
ATOM     23  C   UNL     1      35.235 -19.712 -21.236  0.00  0.00    +0.122 C 
ATOM     24  C   UNL     1      35.991 -20.414 -20.313  0.00  0.00    +0.020 C 
ATOM     25  C   UNL     1      33.860 -19.830 -21.284  0.00  0.00    +0.020 C 
ATOM     26  C   UNL     1      35.359 -21.269 -19.395  0.00  0.00    +0.001 C 
ATOM     27  C   UNL     1      33.951 -21.402 -19.429  0.00  0.00    +0.001 C 
ATOM     28  C   UNL     1      33.216 -20.674 -20.380  0.00  0.00    +0.001 C 
ATOM     29  C   UNL     1      36.094 -21.995 -18.444  0.00  0.00    +0.001 C 
ATOM     30  C   UNL     1      33.319 -22.257 -18.512  0.00  0.00    +0.011 C 
ATOM     31  C   UNL     1      35.450 -22.841 -17.540  0.00  0.00    +0.011 C 
ATOM     32  C   UNL     1      34.065 -22.971 -17.574  0.00  0.00    +0.058 C 
ENDBRANCH  19  23
ENDBRANCH   1  19
TORSDOF 5
ENDMDL
MODEL 3
REMARK VINA RESULT:     -10.8      7.094     12.055
REMARK  Name = 6852168
REMARK  5 active torsions:
REMARK  status: ('A' for Active; 'I' for Inactive)
REMARK    1  A    between atoms: N_1  and  C_5
REMARK    2  A    between atoms: N_1  and  S_19
REMARK    3  A    between atoms: N_4  and  C_9
REMARK    4  A    between atoms: C_9  and  C_14
REMARK    5  A    between atoms: S_19  and  C_23
REMARK                            x       y       z     vdW  Elec       q    Type
REMARK                         _______ _______ _______ _____ _____    ______ ____
ROOT
ATOM      1  N   UNL     1      35.217 -23.350 -17.090  0.00  0.00    -0.172 NA
ATOM      2  H   UNL     1      35.745 -22.558 -17.455  0.00  0.00    +0.149 HD
ENDROOT
BRANCH   1   5
ATOM      3  O   UNL     1      37.579 -23.915 -15.269  0.00  0.00    -0.273 OA
ATOM      4  N   UNL     1      35.793 -25.329 -14.677  0.00  0.00    -0.272 N 
ATOM      5  C   UNL     1      35.273 -23.256 -15.620  0.00  0.00    +0.153 C 
ATOM      6  C   UNL     1      34.024 -23.850 -14.978  0.00  0.00    +0.048 C 
ATOM      7  C   UNL     1      34.355 -25.321 -14.806  0.00  0.00    +0.096 C 
ATOM      8  C   UNL     1      36.387 -24.166 -15.166  0.00  0.00    +0.242 C 
BRANCH   4   9
ATOM      9  C   UNL     1      36.506 -26.506 -14.232  0.00  0.00    +0.152 C 
ATOM     10  C   UNL     1      36.922 -27.396 -15.380  0.00  0.00    +0.031 C 
BRANCH   9  14
ATOM     11  O   UNL     1      37.039 -23.275 -10.388  0.00  0.00    -0.350 OA
ATOM     12  O   UNL     1      38.837 -26.143 -13.994  0.00  0.00    -0.273 OA
ATOM     13  N   UNL     1      37.476 -25.273 -12.327  0.00  0.00    -0.273 N 
ATOM     14  C   UNL     1      37.715 -25.963 -13.513  0.00  0.00    +0.244 C 
ATOM     15  C   UNL     1      36.174 -25.150 -11.662  0.00  0.00    +0.126 C 
ATOM     16  C   UNL     1      38.593 -24.709 -11.568  0.00  0.00    +0.126 C 
ATOM     17  C   UNL     1      35.950 -23.715 -11.204  0.00  0.00    +0.164 C 
ATOM     18  C   UNL     1      38.267 -23.292 -11.120  0.00  0.00    +0.164 C 
ENDBRANCH   9  14
ENDBRANCH   4   9
ENDBRANCH   1   5
BRANCH   1  19
ATOM     19  S   UNL     1      33.714 -23.350 -17.889  0.00  0.00    +0.061 S 
ATOM     20  O   UNL     1      32.671 -22.992 -16.946  0.00  0.00    -0.153 OA
ATOM     21  O   UNL     1      33.597 -24.560 -18.680  0.00  0.00    -0.153 OA
BRANCH  19  23
ATOM     22 CL   UNL     1      35.849 -17.081 -23.162  0.00  0.00    -0.082 Cl
ATOM     23  C   UNL     1      33.908 -22.009 -19.023  0.00  0.00    +0.122 C 
ATOM     24  C   UNL     1      35.183 -21.583 -19.354  0.00  0.00    +0.020 C 
ATOM     25  C   UNL     1      32.783 -21.410 -19.557  0.00  0.00    +0.020 C 
ATOM     26  C   UNL     1      35.353 -20.518 -20.255  0.00  0.00    +0.001 C 
ATOM     27  C   UNL     1      34.213 -19.894 -20.812  0.00  0.00    +0.001 C 
ATOM     28  C   UNL     1      32.934 -20.352 -20.453  0.00  0.00    +0.001 C 
ATOM     29  C   UNL     1      36.632 -20.061 -20.614  0.00  0.00    +0.001 C 
ATOM     30  C   UNL     1      34.383 -18.829 -21.712  0.00  0.00    +0.011 C 
ATOM     31  C   UNL     1      36.783 -19.002 -21.510  0.00  0.00    +0.011 C 
ATOM     32  C   UNL     1      35.660 -18.387 -22.057  0.00  0.00    +0.058 C 
ENDBRANCH  19  23
ENDBRANCH   1  19
TORSDOF 5
ENDMDL
MODEL 4
REMARK VINA RESULT:     -10.6      4.428     10.378
REMARK  Name = 6852168
REMARK  5 active torsions:
REMARK  status: ('A' for Active; 'I' for Inactive)
REMARK    1  A    between atoms: N_1  and  C_5
REMARK    2  A    between atoms: N_1  and  S_19
REMARK    3  A    between atoms: N_4  and  C_9
REMARK    4  A    between atoms: C_9  and  C_14
REMARK    5  A    between atoms: S_19  and  C_23
REMARK                            x       y       z     vdW  Elec       q    Type
REMARK                         _______ _______ _______ _____ _____    ______ ____
ROOT
ATOM      1  N   UNL     1      35.044 -19.913 -20.339  0.00  0.00    -0.172 NA
ATOM      2  H   UNL     1      34.122 -19.599 -20.637  0.00  0.00    +0.149 HD
ENDROOT
BRANCH   1   5
ATOM      3  O   UNL     1      32.681 -21.742 -19.807  0.00  0.00    -0.273 OA
ATOM      4  N   UNL     1      34.390 -22.221 -18.262  0.00  0.00    -0.272 N 
ATOM      5  C   UNL     1      35.016 -21.387 -20.352  0.00  0.00    +0.153 C 
ATOM      6  C   UNL     1      36.237 -21.972 -19.653  0.00  0.00    +0.048 C 
ATOM      7  C   UNL     1      35.825 -22.068 -18.195  0.00  0.00    +0.096 C 
ATOM      8  C   UNL     1      33.858 -21.809 -19.483  0.00  0.00    +0.242 C 
BRANCH   4   9
ATOM      9  C   UNL     1      33.618 -22.613 -17.104  0.00  0.00    +0.152 C 
ATOM     10  C   UNL     1      32.132 -22.619 -17.378  0.00  0.00    +0.031 C 
BRANCH   9  14
ATOM     11  O   UNL     1      36.920 -24.376 -13.716  0.00  0.00    -0.350 OA
ATOM     12  O   UNL     1      33.844 -24.931 -17.548  0.00  0.00    -0.273 OA
ATOM     13  N   UNL     1      34.844 -24.144 -15.606  0.00  0.00    -0.273 N 
ATOM     14  C   UNL     1      34.106 -24.002 -16.779  0.00  0.00    +0.244 C 
ATOM     15  C   UNL     1      35.066 -23.092 -14.609  0.00  0.00    +0.126 C 
ATOM     16  C   UNL     1      35.360 -25.457 -15.219  0.00  0.00    +0.126 C 
ATOM     17  C   UNL     1      36.525 -23.080 -14.171  0.00  0.00    +0.164 C 
ATOM     18  C   UNL     1      36.807 -25.344 -14.762  0.00  0.00    +0.164 C 
ENDBRANCH   9  14
ENDBRANCH   4   9
ENDBRANCH   1   5
BRANCH   1  19
ATOM     19  S   UNL     1      36.181 -19.073 -21.288  0.00  0.00    +0.061 S 
ATOM     20  O   UNL     1      36.373 -19.779 -22.541  0.00  0.00    -0.153 OA
ATOM     21  O   UNL     1      37.323 -18.726 -20.464  0.00  0.00    -0.153 OA
BRANCH  19  23
ATOM     22 CL   UNL     1      31.646 -11.943 -21.802  0.00  0.00    -0.082 Cl
ATOM     23  C   UNL     1      35.320 -17.569 -21.636  0.00  0.00    +0.122 C 
ATOM     24  C   UNL     1      34.543 -16.991 -20.647  0.00  0.00    +0.020 C 
ATOM     25  C   UNL     1      35.437 -17.000 -22.889  0.00  0.00    +0.020 C 
ATOM     26  C   UNL     1      33.852 -15.796 -20.909  0.00  0.00    +0.001 C 
ATOM     27  C   UNL     1      33.962 -15.198 -22.186  0.00  0.00    +0.001 C 
ATOM     28  C   UNL     1      34.760 -15.814 -23.166  0.00  0.00    +0.001 C 
ATOM     29  C   UNL     1      33.056 -15.181 -19.929  0.00  0.00    +0.001 C 
ATOM     30  C   UNL     1      33.272 -14.004 -22.448  0.00  0.00    +0.011 C 
ATOM     31  C   UNL     1      32.377 -13.994 -20.206  0.00  0.00    +0.011 C 
ATOM     32  C   UNL     1      32.484 -13.407 -21.463  0.00  0.00    +0.058 C 
ENDBRANCH  19  23
ENDBRANCH   1  19
TORSDOF 5
ENDMDL
MODEL 5
REMARK VINA RESULT:     -10.5      3.619      6.276
REMARK  Name = 6852168
REMARK  5 active torsions:
REMARK  status: ('A' for Active; 'I' for Inactive)
REMARK    1  A    between atoms: N_1  and  C_5
REMARK    2  A    between atoms: N_1  and  S_19
REMARK    3  A    between atoms: N_4  and  C_9
REMARK    4  A    between atoms: C_9  and  C_14
REMARK    5  A    between atoms: S_19  and  C_23
REMARK                            x       y       z     vdW  Elec       q    Type
REMARK                         _______ _______ _______ _____ _____    ______ ____
ROOT
ATOM      1  N   UNL     1      33.719 -21.712 -18.529  0.00  0.00    -0.172 NA
ATOM      2  H   UNL     1      34.643 -21.479 -18.168  0.00  0.00    +0.149 HD
ENDROOT
BRANCH   1   5
ATOM      3  O   UNL     1      36.219 -21.424 -20.225  0.00  0.00    -0.273 OA
ATOM      4  N   UNL     1      34.730 -19.678 -20.743  0.00  0.00    -0.272 N 
ATOM      5  C   UNL     1      33.822 -21.697 -19.999  0.00  0.00    +0.153 C 
ATOM      6  C   UNL     1      32.722 -20.845 -20.623  0.00  0.00    +0.048 C 
ATOM      7  C   UNL     1      33.307 -19.445 -20.658  0.00  0.00    +0.096 C 
ATOM      8  C   UNL     1      35.093 -20.961 -20.340  0.00  0.00    +0.242 C 
BRANCH   4   9
ATOM      9  C   UNL     1      35.652 -18.610 -21.064  0.00  0.00    +0.152 C 
ATOM     10  C   UNL     1      37.084 -18.972 -20.747  0.00  0.00    +0.031 C 
BRANCH   9  14
ATOM     11  O   UNL     1      33.756 -14.781 -23.755  0.00  0.00    -0.350 OA
ATOM     12  O   UNL     1      35.621 -19.341 -23.319  0.00  0.00    -0.273 OA
ATOM     13  N   UNL     1      35.136 -17.101 -22.948  0.00  0.00    -0.273 N 
ATOM     14  C   UNL     1      35.472 -18.392 -22.545  0.00  0.00    +0.244 C 
ATOM     15  C   UNL     1      35.077 -15.926 -22.072  0.00  0.00    +0.126 C 
ATOM     16  C   UNL     1      34.939 -16.804 -24.366  0.00  0.00    +0.126 C 
ATOM     17  C   UNL     1      33.822 -15.113 -22.366  0.00  0.00    +0.164 C 
ATOM     18  C   UNL     1      33.687 -15.960 -24.562  0.00  0.00    +0.164 C 
ENDBRANCH   9  14
ENDBRANCH   4   9
ENDBRANCH   1   5
BRANCH   1  19
ATOM     19  S   UNL     1      33.220 -23.127 -17.723  0.00  0.00    +0.061 S 
ATOM     20  O   UNL     1      33.393 -24.266 -18.605  0.00  0.00    -0.153 OA
ATOM     21  O   UNL     1      31.938 -22.884 -17.090  0.00  0.00    -0.153 OA
BRANCH  19  23
ATOM     22 CL   UNL     1      38.073 -24.240 -10.877  0.00  0.00    -0.082 Cl
ATOM     23  C   UNL     1      34.419 -23.250 -16.432  0.00  0.00    +0.122 C 
ATOM     24  C   UNL     1      34.056 -23.822 -15.224  0.00  0.00    +0.020 C 
ATOM     25  C   UNL     1      35.696 -22.771 -16.650  0.00  0.00    +0.020 C 
ATOM     26  C   UNL     1      34.998 -23.926 -14.188  0.00  0.00    +0.001 C 
ATOM     27  C   UNL     1      36.311 -23.442 -14.394  0.00  0.00    +0.001 C 
ATOM     28  C   UNL     1      36.644 -22.868 -15.632  0.00  0.00    +0.001 C 
ATOM     29  C   UNL     1      34.665 -24.502 -12.951  0.00  0.00    +0.001 C 
ATOM     30  C   UNL     1      37.253 -23.546 -13.358  0.00  0.00    +0.011 C 
ATOM     31  C   UNL     1      35.613 -24.598 -11.932  0.00  0.00    +0.011 C 
ATOM     32  C   UNL     1      36.905 -24.120 -12.135  0.00  0.00    +0.058 C 
ENDBRANCH  19  23
ENDBRANCH   1  19
TORSDOF 5
ENDMDL
MODEL 6
REMARK VINA RESULT:     -10.4      7.156     12.185
REMARK  Name = 6852168
REMARK  5 active torsions:
REMARK  status: ('A' for Active; 'I' for Inactive)
REMARK    1  A    between atoms: N_1  and  C_5
REMARK    2  A    between atoms: N_1  and  S_19
REMARK    3  A    between atoms: N_4  and  C_9
REMARK    4  A    between atoms: C_9  and  C_14
REMARK    5  A    between atoms: S_19  and  C_23
REMARK                            x       y       z     vdW  Elec       q    Type
REMARK                         _______ _______ _______ _____ _____    ______ ____
ROOT
ATOM      1  N   UNL     1      34.887 -23.504 -17.006  0.00  0.00    -0.172 NA
ATOM      2  H   UNL     1      35.663 -23.072 -17.508  0.00  0.00    +0.149 HD
ENDROOT
BRANCH   1   5
ATOM      3  O   UNL     1      37.040 -22.705 -15.021  0.00  0.00    -0.273 OA
ATOM      4  N   UNL     1      35.437 -24.037 -13.928  0.00  0.00    -0.272 N 
ATOM      5  C   UNL     1      34.727 -22.756 -15.746  0.00  0.00    +0.153 C 
ATOM      6  C   UNL     1      33.513 -23.241 -14.963  0.00  0.00    +0.048 C 
ATOM      7  C   UNL     1      34.047 -24.380 -14.113  0.00  0.00    +0.096 C 
ATOM      8  C   UNL     1      35.900 -23.121 -14.871  0.00  0.00    +0.242 C 
BRANCH   4   9
ATOM      9  C   UNL     1      36.261 -24.721 -12.954  0.00  0.00    +0.152 C 
ATOM     10  C   UNL     1      35.459 -25.233 -11.780  0.00  0.00    +0.031 C 
BRANCH   9  14
ATOM     11  O   UNL     1      41.038 -25.952 -14.029  0.00  0.00    -0.350 OA
ATOM     12  O   UNL     1      36.149 -26.595 -14.403  0.00  0.00    -0.273 OA
ATOM     13  N   UNL     1      38.254 -26.023 -13.607  0.00  0.00    -0.273 N 
ATOM     14  C   UNL     1      36.874 -25.866 -13.721  0.00  0.00    +0.244 C 
ATOM     15  C   UNL     1      39.125 -25.257 -12.709  0.00  0.00    +0.126 C 
ATOM     16  C   UNL     1      38.930 -27.105 -14.321  0.00  0.00    +0.126 C 
ATOM     17  C   UNL     1      40.387 -24.822 -13.444  0.00  0.00    +0.164 C 
ATOM     18  C   UNL     1      40.195 -26.589 -14.992  0.00  0.00    +0.164 C 
ENDBRANCH   9  14
ENDBRANCH   4   9
ENDBRANCH   1   5
BRANCH   1  19
ATOM     19  S   UNL     1      33.591 -23.612 -18.105  0.00  0.00    +0.061 S 
ATOM     20  O   UNL     1      32.341 -23.436 -17.390  0.00  0.00    -0.153 OA
ATOM     21  O   UNL     1      33.786 -24.770 -18.957  0.00  0.00    -0.153 OA
BRANCH  19  23
ATOM     22 CL   UNL     1      36.027 -16.970 -22.755  0.00  0.00    -0.082 Cl
ATOM     23  C   UNL     1      33.849 -22.182 -19.111  0.00  0.00    +0.122 C 
ATOM     24  C   UNL     1      35.143 -21.770 -19.379  0.00  0.00    +0.020 C 
ATOM     25  C   UNL     1      32.755 -21.501 -19.609  0.00  0.00    +0.020 C 
ATOM     26  C   UNL     1      35.365 -20.635 -20.177  0.00  0.00    +0.001 C 
ATOM     27  C   UNL     1      34.256 -19.926 -20.697  0.00  0.00    +0.001 C 
ATOM     28  C   UNL     1      32.957 -20.373 -20.403  0.00  0.00    +0.001 C 
ATOM     29  C   UNL     1      36.664 -20.189 -20.471  0.00  0.00    +0.001 C 
ATOM     30  C   UNL     1      34.478 -18.792 -21.494  0.00  0.00    +0.011 C 
ATOM     31  C   UNL     1      36.866 -19.060 -21.266  0.00  0.00    +0.011 C 
ATOM     32  C   UNL     1      35.775 -18.363 -21.776  0.00  0.00    +0.058 C 
ENDBRANCH  19  23
ENDBRANCH   1  19
TORSDOF 5
ENDMDL
MODEL 7
REMARK VINA RESULT:     -10.0      3.835      6.069
REMARK  Name = 6852168
REMARK  5 active torsions:
REMARK  status: ('A' for Active; 'I' for Inactive)
REMARK    1  A    between atoms: N_1  and  C_5
REMARK    2  A    between atoms: N_1  and  S_19
REMARK    3  A    between atoms: N_4  and  C_9
REMARK    4  A    between atoms: C_9  and  C_14
REMARK    5  A    between atoms: S_19  and  C_23
REMARK                            x       y       z     vdW  Elec       q    Type
REMARK                         _______ _______ _______ _____ _____    ______ ____
ROOT
ATOM      1  N   UNL     1      33.067 -11.976 -22.021  0.00  0.00    -0.172 NA
ATOM      2  H   UNL     1      33.682 -11.187 -22.220  0.00  0.00    +0.149 HD
ENDROOT
BRANCH   1   5
ATOM      3  O   UNL     1      31.708  -9.557 -23.253  0.00  0.00    -0.273 OA
ATOM      4  N   UNL     1      31.955  -9.209 -20.939  0.00  0.00    -0.272 N 
ATOM      5  C   UNL     1      31.747 -11.410 -21.691  0.00  0.00    +0.153 C 
ATOM      6  C   UNL     1      31.524 -11.365 -20.183  0.00  0.00    +0.048 C 
ATOM      7  C   UNL     1      32.102 -10.028 -19.758  0.00  0.00    +0.096 C 
ATOM      8  C   UNL     1      31.779  -9.959 -22.100  0.00  0.00    +0.242 C 
BRANCH   4   9
ATOM      9  C   UNL     1      32.139  -7.775 -20.891  0.00  0.00    +0.152 C 
ATOM     10  C   UNL     1      32.696  -7.310 -19.566  0.00  0.00    +0.031 C 
BRANCH   9  14
ATOM     11  O   UNL     1      32.085  -4.453 -24.693  0.00  0.00    -0.350 OA
ATOM     12  O   UNL     1      34.035  -8.270 -22.226  0.00  0.00    -0.273 OA
ATOM     13  N   UNL     1      32.884  -6.321 -22.741  0.00  0.00    -0.273 N 
ATOM     14  C   UNL     1      33.109  -7.484 -22.009  0.00  0.00    +0.244 C 
ATOM     15  C   UNL     1      31.874  -5.303 -22.430  0.00  0.00    +0.126 C 
ATOM     16  C   UNL     1      33.774  -5.966 -23.846  0.00  0.00    +0.126 C 
ATOM     17  C   UNL     1      31.148  -4.877 -23.700  0.00  0.00    +0.164 C 
ATOM     18  C   UNL     1      32.967  -5.519 -25.055  0.00  0.00    +0.164 C 
ENDBRANCH   9  14
ENDBRANCH   4   9
ENDBRANCH   1   5
BRANCH   1  19
ATOM     19  S   UNL     1      33.228 -13.065 -23.321  0.00  0.00    +0.061 S 
ATOM     20  O   UNL     1      34.247 -12.576 -24.230  0.00  0.00    -0.153 OA
ATOM     21  O   UNL     1      31.909 -13.406 -23.819  0.00  0.00    -0.153 OA
BRANCH  19  23
ATOM     22 CL   UNL     1      36.458 -20.392 -20.573  0.00  0.00    -0.082 Cl
ATOM     23  C   UNL     1      33.862 -14.502 -22.512  0.00  0.00    +0.122 C 
ATOM     24  C   UNL     1      34.326 -15.559 -23.276  0.00  0.00    +0.020 C 
ATOM     25  C   UNL     1      33.882 -14.544 -21.131  0.00  0.00    +0.020 C 
ATOM     26  C   UNL     1      34.833 -16.708 -22.648  0.00  0.00    +0.001 C 
ATOM     27  C   UNL     1      34.862 -16.769 -21.235  0.00  0.00    +0.001 C 
ATOM     28  C   UNL     1      34.383 -15.677 -20.491  0.00  0.00    +0.001 C 
ATOM     29  C   UNL     1      35.313 -17.798 -23.392  0.00  0.00    +0.001 C 
ATOM     30  C   UNL     1      35.368 -17.918 -20.607  0.00  0.00    +0.011 C 
ATOM     31  C   UNL     1      35.813 -18.932 -22.752  0.00  0.00    +0.011 C 
ATOM     32  C   UNL     1      35.840 -18.992 -21.361  0.00  0.00    +0.058 C 
ENDBRANCH  19  23
ENDBRANCH   1  19
TORSDOF 5
ENDMDL
MODEL 8
REMARK VINA RESULT:     -10.0      1.874      2.652
REMARK  Name = 6852168
REMARK  5 active torsions:
REMARK  status: ('A' for Active; 'I' for Inactive)
REMARK    1  A    between atoms: N_1  and  C_5
REMARK    2  A    between atoms: N_1  and  S_19
REMARK    3  A    between atoms: N_4  and  C_9
REMARK    4  A    between atoms: C_9  and  C_14
REMARK    5  A    between atoms: S_19  and  C_23
REMARK                            x       y       z     vdW  Elec       q    Type
REMARK                         _______ _______ _______ _____ _____    ______ ____
ROOT
ATOM      1  N   UNL     1      34.866 -18.205 -21.057  0.00  0.00    -0.172 NA
ATOM      2  H   UNL     1      34.793 -18.218 -20.040  0.00  0.00    +0.149 HD
ENDROOT
BRANCH   1   5
ATOM      3  O   UNL     1      34.256 -15.440 -19.965  0.00  0.00    -0.273 OA
ATOM      4  N   UNL     1      33.923 -15.441 -22.294  0.00  0.00    -0.272 N 
ATOM      5  C   UNL     1      35.500 -16.926 -21.421  0.00  0.00    +0.153 C 
ATOM      6  C   UNL     1      35.692 -16.811 -22.929  0.00  0.00    +0.048 C 
ATOM      7  C   UNL     1      34.392 -16.205 -23.427  0.00  0.00    +0.096 C 
ATOM      8  C   UNL     1      34.508 -15.839 -21.093  0.00  0.00    +0.242 C 
BRANCH   4   9
ATOM      9  C   UNL     1      32.843 -14.486 -22.422  0.00  0.00    +0.152 C 
ATOM     10  C   UNL     1      32.284 -14.067 -21.083  0.00  0.00    +0.031 C 
BRANCH   9  14
ATOM     11  O   UNL     1      33.796 -13.539 -27.289  0.00  0.00    -0.350 OA
ATOM     12  O   UNL     1      34.043 -12.442 -22.473  0.00  0.00    -0.273 OA
ATOM     13  N   UNL     1      33.344 -13.286 -24.520  0.00  0.00    -0.273 N 
ATOM     14  C   UNL     1      33.465 -13.310 -23.132  0.00  0.00    +0.244 C 
ATOM     15  C   UNL     1      32.557 -14.230 -25.321  0.00  0.00    +0.126 C 
ATOM     16  C   UNL     1      33.922 -12.183 -25.287  0.00  0.00    +0.126 C 
ATOM     17  C   UNL     1      33.352 -14.674 -26.543  0.00  0.00    +0.164 C 
ATOM     18  C   UNL     1      34.663 -12.716 -26.505  0.00  0.00    +0.164 C 
ENDBRANCH   9  14
ENDBRANCH   4   9
ENDBRANCH   1   5
BRANCH   1  19
ATOM     19  S   UNL     1      35.590 -19.677 -21.514  0.00  0.00    +0.061 S 
ATOM     20  O   UNL     1      37.032 -19.521 -21.515  0.00  0.00    -0.153 OA
ATOM     21  O   UNL     1      34.913 -20.194 -22.689  0.00  0.00    -0.153 OA
BRANCH  19  23
ATOM     22 CL   UNL     1      34.687 -24.639 -14.715  0.00  0.00    -0.082 Cl
ATOM     23  C   UNL     1      35.155 -20.730 -20.163  0.00  0.00    +0.122 C 
ATOM     24  C   UNL     1      36.133 -21.105 -19.258  0.00  0.00    +0.020 C 
ATOM     25  C   UNL     1      33.849 -21.160 -20.038  0.00  0.00    +0.020 C 
ATOM     26  C   UNL     1      35.803 -21.941 -18.178  0.00  0.00    +0.001 C 
ATOM     27  C   UNL     1      34.469 -22.390 -18.033  0.00  0.00    +0.001 C 
ATOM     28  C   UNL     1      33.503 -21.990 -18.972  0.00  0.00    +0.001 C 
ATOM     29  C   UNL     1      36.768 -22.341 -17.239  0.00  0.00    +0.001 C 
ATOM     30  C   UNL     1      34.139 -23.227 -16.954  0.00  0.00    +0.011 C 
ATOM     31  C   UNL     1      36.423 -23.172 -16.173  0.00  0.00    +0.011 C 
ATOM     32  C   UNL     1      35.111 -23.614 -16.031  0.00  0.00    +0.058 C 
ENDBRANCH  19  23
ENDBRANCH   1  19
TORSDOF 5
ENDMDL
MODEL 9
REMARK VINA RESULT:     -10.0      3.999     10.277
REMARK  Name = 6852168
REMARK  5 active torsions:
REMARK  status: ('A' for Active; 'I' for Inactive)
REMARK    1  A    between atoms: N_1  and  C_5
REMARK    2  A    between atoms: N_1  and  S_19
REMARK    3  A    between atoms: N_4  and  C_9
REMARK    4  A    between atoms: C_9  and  C_14
REMARK    5  A    between atoms: S_19  and  C_23
REMARK                            x       y       z     vdW  Elec       q    Type
REMARK                         _______ _______ _______ _____ _____    ______ ____
ROOT
ATOM      1  N   UNL     1      33.430 -14.912 -22.509  0.00  0.00    -0.172 NA
ATOM      2  H   UNL     1      32.932 -15.744 -22.825  0.00  0.00    +0.149 HD
ENDROOT
BRANCH   1   5
ATOM      3  O   UNL     1      35.390 -16.901 -23.697  0.00  0.00    -0.273 OA
ATOM      4  N   UNL     1      34.677 -17.682 -21.595  0.00  0.00    -0.272 N 
ATOM      5  C   UNL     1      34.710 -15.373 -21.943  0.00  0.00    +0.153 C 
ATOM      6  C   UNL     1      34.585 -15.660 -20.451  0.00  0.00    +0.048 C 
ATOM      7  C   UNL     1      34.138 -17.109 -20.384  0.00  0.00    +0.096 C 
ATOM      8  C   UNL     1      34.996 -16.722 -22.554  0.00  0.00    +0.242 C 
BRANCH   4   9
ATOM      9  C   UNL     1      34.709 -19.114 -21.804  0.00  0.00    +0.152 C 
ATOM     10  C   UNL     1      34.844 -19.480 -23.264  0.00  0.00    +0.031 C 
BRANCH   9  14
ATOM     11  O   UNL     1      35.313 -22.591 -18.193  0.00  0.00    -0.350 OA
ATOM     12  O   UNL     1      36.958 -18.926 -21.078  0.00  0.00    -0.273 OA
ATOM     13  N   UNL     1      35.755 -20.741 -20.272  0.00  0.00    -0.273 N 
ATOM     14  C   UNL     1      35.912 -19.579 -21.024  0.00  0.00    +0.244 C 
ATOM     15  C   UNL     1      34.572 -21.608 -20.285  0.00  0.00    +0.126 C 
ATOM     16  C   UNL     1      36.871 -21.260 -19.481  0.00  0.00    +0.126 C 
ATOM     17  C   UNL     1      34.194 -22.004 -18.863  0.00  0.00    +0.164 C 
ATOM     18  C   UNL     1      36.396 -21.663 -18.093  0.00  0.00    +0.164 C 
ENDBRANCH   9  14
ENDBRANCH   4   9
ENDBRANCH   1   5
BRANCH   1  19
ATOM     19  S   UNL     1      33.418 -13.810 -23.807  0.00  0.00    +0.061 S 
ATOM     20  O   UNL     1      32.357 -14.169 -24.729  0.00  0.00    -0.153 OA
ATOM     21  O   UNL     1      34.774 -13.632 -24.290  0.00  0.00    -0.153 OA
BRANCH  19  23
ATOM     22 CL   UNL     1      31.978  -6.058 -20.725  0.00  0.00    -0.082 Cl
ATOM     23  C   UNL     1      32.956 -12.307 -23.002  0.00  0.00    +0.122 C 
ATOM     24  C   UNL     1      33.520 -11.114 -23.421  0.00  0.00    +0.020 C 
ATOM     25  C   UNL     1      32.041 -12.350 -21.968  0.00  0.00    +0.020 C 
ATOM     26  C   UNL     1      33.163  -9.911 -22.791  0.00  0.00    +0.001 C 
ATOM     27  C   UNL     1      32.227  -9.936 -21.730  0.00  0.00    +0.001 C 
ATOM     28  C   UNL     1      31.675 -11.165 -21.331  0.00  0.00    +0.001 C 
ATOM     29  C   UNL     1      33.715  -8.683 -23.191  0.00  0.00    +0.001 C 
ATOM     30  C   UNL     1      31.870  -8.733 -21.100  0.00  0.00    +0.011 C 
ATOM     31  C   UNL     1      33.349  -7.497 -22.553  0.00  0.00    +0.011 C 
ATOM     32  C   UNL     1      32.428  -7.522 -21.510  0.00  0.00    +0.058 C 
ENDBRANCH  19  23
ENDBRANCH   1  19
TORSDOF 5
ENDMDL
