MODEL 1
REMARK VINA RESULT:     -11.7      0.000      0.000
REMARK  Name = 5288711
REMARK  4 active torsions:
REMARK  status: ('A' for Active; 'I' for Inactive)
REMARK    1  A    between atoms: C_1  and  S_7
REMARK    2  A    between atoms: C_2  and  N_17
REMARK    3  A    between atoms: S_7  and  N_11
REMARK    4  A    between atoms: N_17  and  C_25
REMARK                            x       y       z     vdW  Elec       q    Type
REMARK                         _______ _______ _______ _____ _____    ______ ____
ROOT
ATOM      1  C   UNL     1      34.228 -22.150 -18.815  0.00  0.00    +0.125 C 
ATOM      2  C   UNL     1      35.251 -20.291 -20.636  0.00  0.00    +0.048 C 
ATOM      3  C   UNL     1      33.360 -21.347 -19.555  0.00  0.00    +0.021 C 
ATOM      4  C   UNL     1      35.607 -22.026 -18.984  0.00  0.00    +0.021 C 
ATOM      5  C   UNL     1      33.870 -20.420 -20.464  0.00  0.00    +0.016 C 
ATOM      6  C   UNL     1      36.118 -21.099 -19.893  0.00  0.00    +0.016 C 
ENDROOT
BRANCH   1   7
ATOM      7  S   UNL     1      33.590 -23.310 -17.677  0.00  0.00    +0.075 S 
ATOM      8  O   UNL     1      33.403 -24.580 -18.369  0.00  0.00    -0.150 OA
ATOM      9  O   UNL     1      34.421 -23.261 -16.481  0.00  0.00    -0.150 OA
BRANCH   7  11
ATOM     10  S   UNL     1      29.669 -23.453 -16.170  0.00  0.00    -0.050 S 
ATOM     11  N   UNL     1      32.047 -22.632 -17.341  0.00  0.00    -0.194 N 
ATOM     12  N   UNL     1      32.001 -23.442 -15.057  0.00  0.00    -0.221 NA
ATOM     13  C   UNL     1      31.349 -23.170 -16.152  0.00  0.00    +0.179 C 
ATOM     14  C   UNL     1      29.787 -24.002 -14.550  0.00  0.00    +0.059 C 
ATOM     15  C   UNL     1      31.098 -23.923 -14.129  0.00  0.00    +0.108 C 
ATOM     16  H   UNL     1      31.652 -21.927 -17.904  0.00  0.00    +0.176 HD
ENDBRANCH   7  11
ENDBRANCH   1   7
BRANCH   2  17
ATOM     17  N   UNL     1      35.765 -19.358 -21.551  0.00  0.00    -0.311 N 
ATOM     18  H   UNL     1      36.451 -19.698 -22.168  0.00  0.00    +0.152 HD
BRANCH  17  25
ATOM     19  O   UNL     1      34.830 -19.338 -24.295  0.00  0.00    -0.270 OA
ATOM     20  N   UNL     1      34.163 -17.156 -24.908  0.00  0.00    -0.280 N 
ATOM     21  C   UNL     1      34.593 -16.034 -22.947  0.00  0.00    +0.019 C 
ATOM     22  C   UNL     1      34.946 -17.440 -22.776  0.00  0.00    +0.069 C 
ATOM     23  C   UNL     1      34.123 -15.917 -24.259  0.00  0.00    +0.051 C 
ATOM     24  C   UNL     1      34.659 -18.156 -24.065  0.00  0.00    +0.251 C 
ATOM     25  C   UNL     1      35.440 -18.048 -21.696  0.00  0.00    +0.066 C 
ATOM     26  C   UNL     1      34.644 -14.932 -22.115  0.00  0.00    +0.001 C 
ATOM     27  C   UNL     1      33.693 -14.716 -24.786  0.00  0.00    +0.015 C 
ATOM     28  C   UNL     1      34.212 -13.704 -22.628  0.00  0.00    +0.000 C 
ATOM     29  C   UNL     1      33.741 -13.597 -23.950  0.00  0.00    +0.001 C 
ATOM     30  H   UNL     1      33.879 -17.305 -25.839  0.00  0.00    +0.155 HD
ENDBRANCH  17  25
ENDBRANCH   2  17
TORSDOF 4
ENDMDL
MODEL 2
REMARK VINA RESULT:     -11.6      2.740      9.791
REMARK  Name = 5288711
REMARK  4 active torsions:
REMARK  status: ('A' for Active; 'I' for Inactive)
REMARK    1  A    between atoms: C_1  and  S_7
REMARK    2  A    between atoms: C_2  and  N_17
REMARK    3  A    between atoms: S_7  and  N_11
REMARK    4  A    between atoms: N_17  and  C_25
REMARK                            x       y       z     vdW  Elec       q    Type
REMARK                         _______ _______ _______ _____ _____    ______ ____
ROOT
ATOM      1  C   UNL     1      35.215 -19.993 -20.789  0.00  0.00    +0.125 C 
ATOM      2  C   UNL     1      34.716 -22.178 -19.118  0.00  0.00    +0.048 C 
ATOM      3  C   UNL     1      36.279 -20.709 -20.240  0.00  0.00    +0.021 C 
ATOM      4  C   UNL     1      33.902 -20.369 -20.506  0.00  0.00    +0.021 C 
ATOM      5  C   UNL     1      36.030 -21.799 -19.406  0.00  0.00    +0.016 C 
ATOM      6  C   UNL     1      33.652 -21.459 -19.672  0.00  0.00    +0.016 C 
ENDROOT
BRANCH   1   7
ATOM      7  S   UNL     1      35.526 -18.628 -21.833  0.00  0.00    +0.075 S 
ATOM      8  O   UNL     1      36.916 -18.225 -21.663  0.00  0.00    -0.150 OA
ATOM      9  O   UNL     1      35.035 -18.967 -23.163  0.00  0.00    -0.150 OA
BRANCH   7  11
ATOM     10  S   UNL     1      34.437 -14.664 -20.960  0.00  0.00    -0.050 S 
ATOM     11  N   UNL     1      34.513 -17.433 -21.126  0.00  0.00    -0.194 N 
ATOM     12  N   UNL     1      34.441 -16.069 -23.129  0.00  0.00    -0.221 NA
ATOM     13  C   UNL     1      34.464 -16.131 -21.827  0.00  0.00    +0.179 C 
ATOM     14  C   UNL     1      34.388 -13.829 -22.457  0.00  0.00    +0.059 C 
ATOM     15  C   UNL     1      34.396 -14.738 -23.494  0.00  0.00    +0.108 C 
ATOM     16  H   UNL     1      33.996 -17.604 -20.306  0.00  0.00    +0.176 HD
ENDBRANCH   7  11
ENDBRANCH   1   7
BRANCH   2  17
ATOM     17  N   UNL     1      34.466 -23.276 -18.279  0.00  0.00    -0.311 N 
ATOM     18  H   UNL     1      35.178 -23.954 -18.238  0.00  0.00    +0.152 HD
BRANCH  17  25
ATOM     19  O   UNL     1      35.602 -23.056 -15.620  0.00  0.00    -0.270 OA
ATOM     20  N   UNL     1      33.935 -23.443 -13.992  0.00  0.00    -0.280 N 
ATOM     21  C   UNL     1      32.121 -23.828 -15.352  0.00  0.00    +0.019 C 
ATOM     22  C   UNL     1      33.289 -23.560 -16.184  0.00  0.00    +0.069 C 
ATOM     23  C   UNL     1      32.569 -23.744 -14.030  0.00  0.00    +0.051 C 
ATOM     24  C   UNL     1      34.462 -23.312 -15.281  0.00  0.00    +0.251 C 
ATOM     25  C   UNL     1      33.371 -23.527 -17.516  0.00  0.00    +0.066 C 
ATOM     26  C   UNL     1      30.799 -24.117 -15.632  0.00  0.00    +0.001 C 
ATOM     27  C   UNL     1      31.731 -23.943 -12.951  0.00  0.00    +0.015 C 
ATOM     28  C   UNL     1      29.931 -24.322 -14.553  0.00  0.00    +0.000 C 
ATOM     29  C   UNL     1      30.393 -24.235 -13.226  0.00  0.00    +0.001 C 
ATOM     30  H   UNL     1      34.458 -23.337 -13.165  0.00  0.00    +0.155 HD
ENDBRANCH  17  25
ENDBRANCH   2  17
TORSDOF 4
ENDMDL
MODEL 3
REMARK VINA RESULT:     -11.4      2.179      2.849
REMARK  Name = 5288711
REMARK  4 active torsions:
REMARK  status: ('A' for Active; 'I' for Inactive)
REMARK    1  A    between atoms: C_1  and  S_7
REMARK    2  A    between atoms: C_2  and  N_17
REMARK    3  A    between atoms: S_7  and  N_11
REMARK    4  A    between atoms: N_17  and  C_25
REMARK                            x       y       z     vdW  Elec       q    Type
REMARK                         _______ _______ _______ _____ _____    ______ ____
ROOT
ATOM      1  C   UNL     1      34.569 -21.731 -19.354  0.00  0.00    +0.125 C 
ATOM      2  C   UNL     1      35.695 -19.696 -20.906  0.00  0.00    +0.048 C 
ATOM      3  C   UNL     1      35.955 -21.576 -19.404  0.00  0.00    +0.021 C 
ATOM      4  C   UNL     1      33.746 -20.869 -20.078  0.00  0.00    +0.021 C 
ATOM      5  C   UNL     1      36.516 -20.561 -20.177  0.00  0.00    +0.016 C 
ATOM      6  C   UNL     1      34.307 -19.853 -20.852  0.00  0.00    +0.016 C 
ENDROOT
BRANCH   1   7
ATOM      7  S   UNL     1      33.866 -23.002 -18.385  0.00  0.00    +0.075 S 
ATOM      8  O   UNL     1      32.729 -22.452 -17.658  0.00  0.00    -0.150 OA
ATOM      9  O   UNL     1      33.673 -24.160 -19.248  0.00  0.00    -0.150 OA
BRANCH   7  11
ATOM     10  S   UNL     1      35.547 -23.103 -14.534  0.00  0.00    -0.050 S 
ATOM     11  N   UNL     1      35.137 -23.313 -17.271  0.00  0.00    -0.194 N 
ATOM     12  N   UNL     1      33.706 -24.487 -15.707  0.00  0.00    -0.221 NA
ATOM     13  C   UNL     1      34.719 -23.692 -15.903  0.00  0.00    +0.179 C 
ATOM     14  C   UNL     1      34.459 -23.988 -13.548  0.00  0.00    +0.059 C 
ATOM     15  C   UNL     1      33.554 -24.660 -14.345  0.00  0.00    +0.108 C 
ATOM     16  H   UNL     1      36.085 -23.244 -17.527  0.00  0.00    +0.176 HD
ENDBRANCH   7  11
ENDBRANCH   1   7
BRANCH   2  17
ATOM     17  N   UNL     1      36.261 -18.674 -21.685  0.00  0.00    -0.311 N 
ATOM     18  H   UNL     1      37.182 -18.417 -21.450  0.00  0.00    +0.152 HD
BRANCH  17  25
ATOM     19  O   UNL     1      35.015 -16.470 -20.271  0.00  0.00    -0.270 OA
ATOM     20  N   UNL     1      33.925 -15.038 -21.802  0.00  0.00    -0.280 N 
ATOM     21  C   UNL     1      34.391 -16.123 -23.775  0.00  0.00    +0.019 C 
ATOM     22  C   UNL     1      34.993 -16.866 -22.672  0.00  0.00    +0.069 C 
ATOM     23  C   UNL     1      33.756 -15.023 -23.191  0.00  0.00    +0.051 C 
ATOM     24  C   UNL     1      34.678 -16.144 -21.394  0.00  0.00    +0.251 C 
ATOM     25  C   UNL     1      35.706 -17.992 -22.720  0.00  0.00    +0.066 C 
ATOM     26  C   UNL     1      34.355 -16.314 -25.143  0.00  0.00    +0.001 C 
ATOM     27  C   UNL     1      33.070 -14.084 -23.935  0.00  0.00    +0.015 C 
ATOM     28  C   UNL     1      33.666 -15.374 -25.917  0.00  0.00    +0.000 C 
ATOM     29  C   UNL     1      33.030 -14.271 -25.319  0.00  0.00    +0.001 C 
ATOM     30  H   UNL     1      33.561 -14.359 -21.190  0.00  0.00    +0.155 HD
ENDBRANCH  17  25
ENDBRANCH   2  17
TORSDOF 4
ENDMDL
MODEL 4
REMARK VINA RESULT:     -11.1      1.722      2.156
REMARK  Name = 5288711
REMARK  4 active torsions:
REMARK  status: ('A' for Active; 'I' for Inactive)
REMARK    1  A    between atoms: C_1  and  S_7
REMARK    2  A    between atoms: C_2  and  N_17
REMARK    3  A    between atoms: S_7  and  N_11
REMARK    4  A    between atoms: N_17  and  C_25
REMARK                            x       y       z     vdW  Elec       q    Type
REMARK                         _______ _______ _______ _____ _____    ______ ____
ROOT
ATOM      1  C   UNL     1      34.312 -22.185 -18.751  0.00  0.00    +0.125 C 
ATOM      2  C   UNL     1      35.297 -20.315 -20.580  0.00  0.00    +0.048 C 
ATOM      3  C   UNL     1      33.427 -21.413 -19.504  0.00  0.00    +0.021 C 
ATOM      4  C   UNL     1      35.688 -22.025 -18.911  0.00  0.00    +0.021 C 
ATOM      5  C   UNL     1      33.918 -20.480 -20.417  0.00  0.00    +0.016 C 
ATOM      6  C   UNL     1      36.180 -21.091 -19.824  0.00  0.00    +0.016 C 
ENDROOT
BRANCH   1   7
ATOM      7  S   UNL     1      33.697 -23.353 -17.608  0.00  0.00    +0.075 S 
ATOM      8  O   UNL     1      32.714 -22.694 -16.758  0.00  0.00    -0.150 OA
ATOM      9  O   UNL     1      33.315 -24.545 -18.355  0.00  0.00    -0.150 OA
BRANCH   7  11
ATOM     10  S   UNL     1      35.908 -23.405 -14.034  0.00  0.00    -0.050 S 
ATOM     11  N   UNL     1      35.104 -23.678 -16.676  0.00  0.00    -0.194 N 
ATOM     12  N   UNL     1      33.875 -24.755 -14.886  0.00  0.00    -0.221 NA
ATOM     13  C   UNL     1      34.875 -24.002 -15.251  0.00  0.00    +0.179 C 
ATOM     14  C   UNL     1      34.944 -24.222 -12.874  0.00  0.00    +0.059 C 
ATOM     15  C   UNL     1      33.915 -24.883 -13.511  0.00  0.00    +0.108 C 
ATOM     16  H   UNL     1      36.008 -23.651 -17.066  0.00  0.00    +0.176 HD
ENDBRANCH   7  11
ENDBRANCH   1   7
BRANCH   2  17
ATOM     17  N   UNL     1      35.791 -19.375 -21.499  0.00  0.00    -0.311 N 
ATOM     18  H   UNL     1      36.465 -19.711 -22.133  0.00  0.00    +0.152 HD
BRANCH  17  25
ATOM     19  O   UNL     1      34.884 -19.319 -24.253  0.00  0.00    -0.270 OA
ATOM     20  N   UNL     1      34.216 -17.131 -24.842  0.00  0.00    -0.280 N 
ATOM     21  C   UNL     1      34.622 -16.036 -22.861  0.00  0.00    +0.019 C 
ATOM     22  C   UNL     1      34.978 -17.443 -22.706  0.00  0.00    +0.069 C 
ATOM     23  C   UNL     1      34.165 -15.902 -24.175  0.00  0.00    +0.051 C 
ATOM     24  C   UNL     1      34.707 -18.141 -24.007  0.00  0.00    +0.251 C 
ATOM     25  C   UNL     1      35.463 -18.064 -21.630  0.00  0.00    +0.066 C 
ATOM     26  C   UNL     1      34.661 -14.946 -22.013  0.00  0.00    +0.001 C 
ATOM     27  C   UNL     1      33.736 -14.695 -24.689  0.00  0.00    +0.015 C 
ATOM     28  C   UNL     1      34.230 -13.712 -22.513  0.00  0.00    +0.000 C 
ATOM     29  C   UNL     1      33.772 -13.588 -23.838  0.00  0.00    +0.001 C 
ATOM     30  H   UNL     1      33.942 -17.268 -25.777  0.00  0.00    +0.155 HD
ENDBRANCH  17  25
ENDBRANCH   2  17
TORSDOF 4
ENDMDL
MODEL 5
REMARK VINA RESULT:     -11.1      4.398      6.357
REMARK  Name = 5288711
REMARK  4 active torsions:
REMARK  status: ('A' for Active; 'I' for Inactive)
REMARK    1  A    between atoms: C_1  and  S_7
REMARK    2  A    between atoms: C_2  and  N_17
REMARK    3  A    between atoms: S_7  and  N_11
REMARK    4  A    between atoms: N_17  and  C_25
REMARK                            x       y       z     vdW  Elec       q    Type
REMARK                         _______ _______ _______ _____ _____    ______ ____
ROOT
ATOM      1  C   UNL     1      35.710 -23.722 -13.714  0.00  0.00    +0.125 C 
ATOM      2  C   UNL     1      35.231 -23.211 -16.420  0.00  0.00    +0.048 C 
ATOM      3  C   UNL     1      34.560 -24.220 -14.325  0.00  0.00    +0.021 C 
ATOM      4  C   UNL     1      36.622 -22.969 -14.453  0.00  0.00    +0.021 C 
ATOM      5  C   UNL     1      34.321 -23.966 -15.675  0.00  0.00    +0.016 C 
ATOM      6  C   UNL     1      36.384 -22.714 -15.804  0.00  0.00    +0.016 C 
ENDROOT
BRANCH   1   7
ATOM      7  S   UNL     1      36.009 -24.040 -12.023  0.00  0.00    +0.075 S 
ATOM      8  O   UNL     1      37.072 -23.153 -11.568  0.00  0.00    -0.150 OA
ATOM      9  O   UNL     1      34.724 -24.030 -11.337  0.00  0.00    -0.150 OA
BRANCH   7  11
ATOM     10  S   UNL     1      38.061 -27.207 -13.874  0.00  0.00    -0.050 S 
ATOM     11  N   UNL     1      36.620 -25.645 -12.090  0.00  0.00    -0.194 N 
ATOM     12  N   UNL     1      38.817 -24.958 -12.847  0.00  0.00    -0.221 NA
ATOM     13  C   UNL     1      37.853 -25.835 -12.884  0.00  0.00    +0.179 C 
ATOM     14  C   UNL     1      39.600 -26.597 -14.322  0.00  0.00    +0.059 C 
ATOM     15  C   UNL     1      39.828 -25.398 -13.679  0.00  0.00    +0.108 C 
ATOM     16  H   UNL     1      36.176 -26.393 -11.627  0.00  0.00    +0.176 HD
ENDBRANCH   7  11
ENDBRANCH   1   7
BRANCH   2  17
ATOM     17  N   UNL     1      34.990 -22.955 -17.780  0.00  0.00    -0.311 N 
ATOM     18  H   UNL     1      34.282 -23.496 -18.198  0.00  0.00    +0.152 HD
BRANCH  17  25
ATOM     19  O   UNL     1      32.731 -21.997 -19.324  0.00  0.00    -0.270 OA
ATOM     20  N   UNL     1      33.447 -20.378 -20.889  0.00  0.00    -0.280 N 
ATOM     21  C   UNL     1      35.699 -20.329 -20.421  0.00  0.00    +0.019 C 
ATOM     22  C   UNL     1      35.052 -21.295 -19.539  0.00  0.00    +0.069 C 
ATOM     23  C   UNL     1      34.679 -19.802 -21.220  0.00  0.00    +0.051 C 
ATOM     24  C   UNL     1      33.585 -21.313 -19.858  0.00  0.00    +0.251 C 
ATOM     25  C   UNL     1      35.604 -22.059 -18.595  0.00  0.00    +0.066 C 
ATOM     26  C   UNL     1      37.005 -19.906 -20.573  0.00  0.00    +0.001 C 
ATOM     27  C   UNL     1      34.917 -18.846 -22.187  0.00  0.00    +0.015 C 
ATOM     28  C   UNL     1      37.269 -18.937 -21.548  0.00  0.00    +0.000 C 
ATOM     29  C   UNL     1      36.236 -18.413 -22.346  0.00  0.00    +0.001 C 
ATOM     30  H   UNL     1      32.594 -20.154 -21.325  0.00  0.00    +0.155 HD
ENDBRANCH  17  25
ENDBRANCH   2  17
TORSDOF 4
ENDMDL
MODEL 6
REMARK VINA RESULT:     -11.0      3.744     10.170
REMARK  Name = 5288711
REMARK  4 active torsions:
REMARK  status: ('A' for Active; 'I' for Inactive)
REMARK    1  A    between atoms: C_1  and  S_7
REMARK    2  A    between atoms: C_2  and  N_17
REMARK    3  A    between atoms: S_7  and  N_11
REMARK    4  A    between atoms: N_17  and  C_25
REMARK                            x       y       z     vdW  Elec       q    Type
REMARK                         _______ _______ _______ _____ _____    ______ ____
ROOT
ATOM      1  C   UNL     1      35.366 -20.393 -20.450  0.00  0.00    +0.125 C 
ATOM      2  C   UNL     1      35.046 -22.291 -18.423  0.00  0.00    +0.048 C 
ATOM      3  C   UNL     1      36.482 -20.899 -19.785  0.00  0.00    +0.021 C 
ATOM      4  C   UNL     1      34.089 -20.835 -20.104  0.00  0.00    +0.021 C 
ATOM      5  C   UNL     1      36.323 -21.846 -18.774  0.00  0.00    +0.016 C 
ATOM      6  C   UNL     1      33.929 -21.783 -19.093  0.00  0.00    +0.016 C 
ENDROOT
BRANCH   1   7
ATOM      7  S   UNL     1      35.565 -19.208 -21.717  0.00  0.00    +0.075 S 
ATOM      8  O   UNL     1      36.926 -18.690 -21.655  0.00  0.00    -0.150 OA
ATOM      9  O   UNL     1      35.078 -19.799 -22.957  0.00  0.00    -0.150 OA
BRANCH   7  11
ATOM     10  S   UNL     1      34.416 -15.205 -21.144  0.00  0.00    -0.050 S 
ATOM     11  N   UNL     1      34.482 -17.979 -21.194  0.00  0.00    -0.194 N 
ATOM     12  N   UNL     1      34.686 -16.695 -23.240  0.00  0.00    -0.221 NA
ATOM     13  C   UNL     1      34.540 -16.705 -21.944  0.00  0.00    +0.179 C 
ATOM     14  C   UNL     1      34.572 -14.429 -22.666  0.00  0.00    +0.059 C 
ATOM     15  C   UNL     1      34.704 -15.379 -23.658  0.00  0.00    +0.108 C 
ATOM     16  H   UNL     1      33.861 -18.115 -20.442  0.00  0.00    +0.176 HD
ENDBRANCH   7  11
ENDBRANCH   1   7
BRANCH   2  17
ATOM     17  N   UNL     1      34.885 -23.244 -17.404  0.00  0.00    -0.311 N 
ATOM     18  H   UNL     1      34.159 -23.895 -17.538  0.00  0.00    +0.152 HD
BRANCH  17  25
ATOM     19  O   UNL     1      32.753 -23.724 -15.498  0.00  0.00    -0.270 OA
ATOM     20  N   UNL     1      33.653 -24.029 -13.335  0.00  0.00    -0.280 N 
ATOM     21  C   UNL     1      35.895 -23.789 -13.791  0.00  0.00    +0.019 C 
ATOM     22  C   UNL     1      35.140 -23.632 -15.030  0.00  0.00    +0.069 C 
ATOM     23  C   UNL     1      34.944 -24.028 -12.794  0.00  0.00    +0.051 C 
ATOM     24  C   UNL     1      33.681 -23.791 -14.714  0.00  0.00    +0.251 C 
ATOM     25  C   UNL     1      35.600 -23.389 -16.259  0.00  0.00    +0.066 C 
ATOM     26  C   UNL     1      37.242 -23.743 -13.485  0.00  0.00    +0.001 C 
ATOM     27  C   UNL     1      35.292 -24.228 -11.473  0.00  0.00    +0.015 C 
ATOM     28  C   UNL     1      37.617 -23.944 -12.152  0.00  0.00    +0.000 C 
ATOM     29  C   UNL     1      36.652 -24.184 -11.156  0.00  0.00    +0.001 C 
ATOM     30  H   UNL     1      32.832 -24.177 -12.814  0.00  0.00    +0.155 HD
ENDBRANCH  17  25
ENDBRANCH   2  17
TORSDOF 4
ENDMDL
MODEL 7
REMARK VINA RESULT:     -10.9      4.610      9.556
REMARK  Name = 5288711
REMARK  4 active torsions:
REMARK  status: ('A' for Active; 'I' for Inactive)
REMARK    1  A    between atoms: C_1  and  S_7
REMARK    2  A    between atoms: C_2  and  N_17
REMARK    3  A    between atoms: S_7  and  N_11
REMARK    4  A    between atoms: N_17  and  C_25
REMARK                            x       y       z     vdW  Elec       q    Type
REMARK                         _______ _______ _______ _____ _____    ______ ____
ROOT
ATOM      1  C   UNL     1      34.152 -15.014 -23.305  0.00  0.00    +0.125 C 
ATOM      2  C   UNL     1      34.971 -17.636 -22.789  0.00  0.00    +0.048 C 
ATOM      3  C   UNL     1      34.394 -15.424 -21.994  0.00  0.00    +0.021 C 
ATOM      4  C   UNL     1      34.320 -15.912 -24.358  0.00  0.00    +0.021 C 
ATOM      5  C   UNL     1      34.802 -16.732 -21.736  0.00  0.00    +0.016 C 
ATOM      6  C   UNL     1      34.729 -17.221 -24.102  0.00  0.00    +0.016 C 
ENDROOT
BRANCH   1   7
ATOM      7  S   UNL     1      33.640 -13.376 -23.628  0.00  0.00    +0.075 S 
ATOM      8  O   UNL     1      34.636 -12.464 -23.079  0.00  0.00    -0.150 OA
ATOM      9  O   UNL     1      33.292 -13.292 -25.041  0.00  0.00    -0.150 OA
BRANCH   7  11
ATOM     10  S   UNL     1      31.419 -12.044 -20.318  0.00  0.00    -0.050 S 
ATOM     11  N   UNL     1      32.215 -13.278 -22.672  0.00  0.00    -0.194 N 
ATOM     12  N   UNL     1      32.341 -10.870 -22.428  0.00  0.00    -0.221 NA
ATOM     13  C   UNL     1      32.034 -12.025 -21.907  0.00  0.00    +0.179 C 
ATOM     14  C   UNL     1      31.563 -10.336 -20.287  0.00  0.00    +0.059 C 
ATOM     15  C   UNL     1      32.068  -9.892 -21.492  0.00  0.00    +0.108 C 
ATOM     16  H   UNL     1      31.559 -14.011 -22.637  0.00  0.00    +0.176 HD
ENDBRANCH   7  11
ENDBRANCH   1   7
BRANCH   2  17
ATOM     17  N   UNL     1      35.382 -18.954 -22.529  0.00  0.00    -0.311 N 
ATOM     18  H   UNL     1      36.144 -19.276 -23.062  0.00  0.00    +0.152 HD
BRANCH  17  25
ATOM     19  O   UNL     1      37.652 -19.321 -20.763  0.00  0.00    -0.270 OA
ATOM     20  N   UNL     1      37.104 -20.849 -19.046  0.00  0.00    -0.280 N 
ATOM     21  C   UNL     1      34.931 -21.340 -19.618  0.00  0.00    +0.019 C 
ATOM     22  C   UNL     1      35.470 -20.385 -20.581  0.00  0.00    +0.069 C 
ATOM     23  C   UNL     1      35.964 -21.587 -18.708  0.00  0.00    +0.051 C 
ATOM     24  C   UNL     1      36.888 -20.076 -20.192  0.00  0.00    +0.251 C 
ATOM     25  C   UNL     1      34.868 -19.842 -21.640  0.00  0.00    +0.066 C 
ATOM     26  C   UNL     1      33.706 -21.964 -19.482  0.00  0.00    +0.001 C 
ATOM     27  C   UNL     1      35.819 -22.453 -17.643  0.00  0.00    +0.015 C 
ATOM     28  C   UNL     1      33.537 -22.846 -18.408  0.00  0.00    +0.000 C 
ATOM     29  C   UNL     1      34.583 -23.087 -17.498  0.00  0.00    +0.001 C 
ATOM     30  H   UNL     1      37.949 -20.870 -18.542  0.00  0.00    +0.155 HD
ENDBRANCH  17  25
ENDBRANCH   2  17
TORSDOF 4
ENDMDL
MODEL 8
REMARK VINA RESULT:     -10.8      7.448     12.286
REMARK  Name = 5288711
REMARK  4 active torsions:
REMARK  status: ('A' for Active; 'I' for Inactive)
REMARK    1  A    between atoms: C_1  and  S_7
REMARK    2  A    between atoms: C_2  and  N_17
REMARK    3  A    between atoms: S_7  and  N_11
REMARK    4  A    between atoms: N_17  and  C_25
REMARK                            x       y       z     vdW  Elec       q    Type
REMARK                         _______ _______ _______ _____ _____    ______ ____
ROOT
ATOM      1  C   UNL     1      32.703  -9.947 -22.669  0.00  0.00    +0.125 C 
ATOM      2  C   UNL     1      33.754 -12.412 -23.467  0.00  0.00    +0.048 C 
ATOM      3  C   UNL     1      32.205 -11.129 -22.121  0.00  0.00    +0.021 C 
ATOM      4  C   UNL     1      33.727  -9.996 -23.615  0.00  0.00    +0.021 C 
ATOM      5  C   UNL     1      32.729 -12.358 -22.518  0.00  0.00    +0.016 C 
ATOM      6  C   UNL     1      34.252 -11.225 -24.013  0.00  0.00    +0.016 C 
ENDROOT
BRANCH   1   7
ATOM      7  S   UNL     1      32.047  -8.408 -22.172  0.00  0.00    +0.075 S 
ATOM      8  O   UNL     1      30.741  -8.239 -22.797  0.00  0.00    -0.150 OA
ATOM      9  O   UNL     1      32.164  -8.324 -20.722  0.00  0.00    -0.150 OA
BRANCH   7  11
ATOM     10  S   UNL     1      33.061  -5.243 -24.745  0.00  0.00    -0.050 S 
ATOM     11  N   UNL     1      33.156  -7.320 -22.908  0.00  0.00    -0.194 N 
ATOM     12  N   UNL     1      31.771  -5.372 -22.509  0.00  0.00    -0.221 NA
ATOM     13  C   UNL     1      32.611  -5.997 -23.284  0.00  0.00    +0.179 C 
ATOM     14  C   UNL     1      32.039  -3.929 -24.331  0.00  0.00    +0.059 C 
ATOM     15  C   UNL     1      31.440  -4.175 -23.113  0.00  0.00    +0.108 C 
ATOM     16  H   UNL     1      34.097  -7.562 -23.068  0.00  0.00    +0.176 HD
ENDBRANCH   7  11
ENDBRANCH   1   7
BRANCH   2  17
ATOM     17  N   UNL     1      34.282 -13.650 -23.867  0.00  0.00    -0.311 N 
ATOM     18  H   UNL     1      34.500 -13.733 -24.824  0.00  0.00    +0.152 HD
BRANCH  17  25
ATOM     19  O   UNL     1      34.098 -15.736 -25.873  0.00  0.00    -0.270 OA
ATOM     20  N   UNL     1      34.487 -17.847 -24.885  0.00  0.00    -0.280 N 
ATOM     21  C   UNL     1      34.843 -17.214 -22.703  0.00  0.00    +0.019 C 
ATOM     22  C   UNL     1      34.577 -16.024 -23.504  0.00  0.00    +0.069 C 
ATOM     23  C   UNL     1      34.777 -18.292 -23.590  0.00  0.00    +0.051 C 
ATOM     24  C   UNL     1      34.347 -16.455 -24.924  0.00  0.00    +0.251 C 
ATOM     25  C   UNL     1      34.531 -14.750 -23.111  0.00  0.00    +0.066 C 
ATOM     26  C   UNL     1      35.117 -17.418 -21.364  0.00  0.00    +0.001 C 
ATOM     27  C   UNL     1      34.977 -19.597 -23.186  0.00  0.00    +0.015 C 
ATOM     28  C   UNL     1      35.325 -18.733 -20.932  0.00  0.00    +0.000 C 
ATOM     29  C   UNL     1      35.256 -19.811 -21.834  0.00  0.00    +0.001 C 
ATOM     30  H   UNL     1      34.394 -18.436 -25.668  0.00  0.00    +0.155 HD
ENDBRANCH  17  25
ENDBRANCH   2  17
TORSDOF 4
ENDMDL
MODEL 9
REMARK VINA RESULT:     -10.8      3.212      3.847
REMARK  Name = 5288711
REMARK  4 active torsions:
REMARK  status: ('A' for Active; 'I' for Inactive)
REMARK    1  A    between atoms: C_1  and  S_7
REMARK    2  A    between atoms: C_2  and  N_17
REMARK    3  A    between atoms: S_7  and  N_11
REMARK    4  A    between atoms: N_17  and  C_25
REMARK                            x       y       z     vdW  Elec       q    Type
REMARK                         _______ _______ _______ _____ _____    ______ ____
ROOT
ATOM      1  C   UNL     1      35.352 -22.797 -17.087  0.00  0.00    +0.125 C 
ATOM      2  C   UNL     1      35.377 -21.338 -19.472  0.00  0.00    +0.048 C 
ATOM      3  C   UNL     1      34.195 -22.703 -17.861  0.00  0.00    +0.021 C 
ATOM      4  C   UNL     1      36.522 -22.163 -17.505  0.00  0.00    +0.021 C 
ATOM      5  C   UNL     1      34.207 -21.976 -19.050  0.00  0.00    +0.016 C 
ATOM      6  C   UNL     1      36.535 -21.435 -18.695  0.00  0.00    +0.016 C 
ENDROOT
BRANCH   1   7
ATOM      7  S   UNL     1      35.337 -23.707 -15.597  0.00  0.00    +0.075 S 
ATOM      8  O   UNL     1      35.446 -22.772 -14.485  0.00  0.00    -0.150 OA
ATOM      9  O   UNL     1      34.208 -24.627 -15.653  0.00  0.00    -0.150 OA
BRANCH   7  11
ATOM     10  S   UNL     1      38.912 -25.299 -14.066  0.00  0.00    -0.050 S 
ATOM     11  N   UNL     1      36.809 -24.584 -15.729  0.00  0.00    -0.194 N 
ATOM     12  N   UNL     1      36.417 -25.873 -13.714  0.00  0.00    -0.221 NA
ATOM     13  C   UNL     1      37.265 -25.270 -14.500  0.00  0.00    +0.179 C 
ATOM     14  C   UNL     1      38.487 -26.210 -12.677  0.00  0.00    +0.059 C 
ATOM     15  C   UNL     1      37.123 -26.418 -12.660  0.00  0.00    +0.108 C 
ATOM     16  H   UNL     1      37.318 -24.628 -16.571  0.00  0.00    +0.176 HD
ENDBRANCH   7  11
ENDBRANCH   1   7
BRANCH   2  17
ATOM     17  N   UNL     1      35.389 -20.605 -20.670  0.00  0.00    -0.311 N 
ATOM     18  H   UNL     1      35.552 -21.128 -21.489  0.00  0.00    +0.152 HD
BRANCH  17  25
ATOM     19  O   UNL     1      35.127 -20.483 -23.555  0.00  0.00    -0.270 OA
ATOM     20  N   UNL     1      34.788 -18.249 -24.244  0.00  0.00    -0.280 N 
ATOM     21  C   UNL     1      34.830 -17.185 -22.206  0.00  0.00    +0.019 C 
ATOM     22  C   UNL     1      35.026 -18.616 -21.998  0.00  0.00    +0.069 C 
ATOM     23  C   UNL     1      34.690 -17.017 -23.587  0.00  0.00    +0.051 C 
ATOM     24  C   UNL     1      34.997 -19.293 -23.337  0.00  0.00    +0.251 C 
ATOM     25  C   UNL     1      35.207 -19.272 -20.850  0.00  0.00    +0.066 C 
ATOM     26  C   UNL     1      34.767 -16.099 -21.353  0.00  0.00    +0.001 C 
ATOM     27  C   UNL     1      34.487 -15.780 -24.164  0.00  0.00    +0.015 C 
ATOM     28  C   UNL     1      34.561 -14.835 -21.917  0.00  0.00    +0.000 C 
ATOM     29  C   UNL     1      34.422 -14.678 -23.309  0.00  0.00    +0.001 C 
ATOM     30  H   UNL     1      34.719 -18.365 -25.219  0.00  0.00    +0.155 HD
ENDBRANCH  17  25
ENDBRANCH   2  17
TORSDOF 4
ENDMDL
