MODEL 1
REMARK VINA RESULT:     -11.7      0.000      0.000
REMARK  Name = 24743471
REMARK  3 active torsions:
REMARK  status: ('A' for Active; 'I' for Inactive)
REMARK    1  A    between atoms: C_1  and  N_7
REMARK    2  A    between atoms: C_6  and  C_17
REMARK    3  A    between atoms: C_22  and  N_24
REMARK                            x       y       z     vdW  Elec       q    Type
REMARK                         _______ _______ _______ _____ _____    ______ ____
ROOT
ATOM      1  C   UNL     1      36.258 -23.658 -15.468  0.00  0.00    +0.048 C 
ATOM      2  C   UNL     1      35.023 -23.709 -16.113  0.00  0.00    +0.015 C 
ATOM      3  C   UNL     1      37.277 -22.852 -15.977  0.00  0.00    +0.015 C 
ATOM      4  C   UNL     1      34.806 -22.955 -17.266  0.00  0.00    +0.001 C 
ATOM      5  C   UNL     1      37.059 -22.097 -17.130  0.00  0.00    +0.001 C 
ATOM      6  C   UNL     1      35.823 -22.149 -17.774  0.00  0.00    +0.000 C 
ENDROOT
BRANCH   1   7
ATOM      7  N   UNL     1      36.475 -24.404 -14.326  0.00  0.00    -0.311 N 
ATOM      8  N   UNL     1      39.106 -26.617 -13.719  0.00  0.00    +0.387 N 
ATOM      9  C   UNL     1      37.032 -26.162 -12.824  0.00  0.00    -0.003 C 
ATOM     10  C   UNL     1      36.967 -25.784 -14.314  0.00  0.00    +0.050 C 
ATOM     11  C   UNL     1      36.169 -25.135 -12.111  0.00  0.00    +0.021 C 
ATOM     12  C   UNL     1      38.515 -26.111 -12.481  0.00  0.00    -0.076 C 
ATOM     13  C   UNL     1      38.419 -25.897 -14.796  0.00  0.00    -0.057 C 
ATOM     14  C   UNL     1      36.280 -23.883 -12.975  0.00  0.00    +0.091 C 
ATOM     15  C   UNL     1      40.549 -26.437 -13.761  0.00  0.00    -0.101 C 
ATOM     16  H   UNL     1      38.981 -27.627 -13.807  0.00  0.00    -0.080 HD
ENDBRANCH   1   7
BRANCH   6  17
ATOM     17  C   UNL     1      35.598 -21.366 -18.970  0.00  0.00    +0.000 C 
ATOM     18  C   UNL     1      36.675 -20.757 -19.616  0.00  0.00    +0.001 C 
ATOM     19  C   UNL     1      34.307 -21.220 -19.476  0.00  0.00    +0.001 C 
ATOM     20  C   UNL     1      36.458 -20.002 -20.769  0.00  0.00    +0.017 C 
ATOM     21  C   UNL     1      34.091 -20.465 -20.629  0.00  0.00    +0.017 C 
ATOM     22  C   UNL     1      35.167 -19.856 -21.275  0.00  0.00    +0.077 C 
BRANCH  22  24
ATOM     23  O   UNL     1      35.638 -16.952 -21.719  0.00  0.00    -0.268 OA
ATOM     24  N   UNL     1      34.943 -19.074 -22.469  0.00  0.00    -0.155 N 
ATOM     25  N   UNL     1      34.485 -19.821 -23.529  0.00  0.00    -0.170 NA
ATOM     26  C   UNL     1      35.171 -17.698 -22.579  0.00  0.00    +0.272 C 
ATOM     27  C   UNL     1      34.829 -17.068 -23.879  0.00  0.00    +0.062 C 
ATOM     28  C   UNL     1      34.227 -19.216 -24.638  0.00  0.00    +0.118 C 
ATOM     29  C   UNL     1      34.369 -17.788 -24.895  0.00  0.00    +0.027 C 
ENDBRANCH  22  24
ENDBRANCH   6  17
TORSDOF 3
ENDMDL
MODEL 2
REMARK VINA RESULT:     -10.4      1.399      2.515
REMARK  Name = 24743471
REMARK  3 active torsions:
REMARK  status: ('A' for Active; 'I' for Inactive)
REMARK    1  A    between atoms: C_1  and  N_7
REMARK    2  A    between atoms: C_6  and  C_17
REMARK    3  A    between atoms: C_22  and  N_24
REMARK                            x       y       z     vdW  Elec       q    Type
REMARK                         _______ _______ _______ _____ _____    ______ ____
ROOT
ATOM      1  C   UNL     1      36.456 -23.896 -15.825  0.00  0.00    +0.048 C 
ATOM      2  C   UNL     1      37.478 -23.064 -16.280  0.00  0.00    +0.015 C 
ATOM      3  C   UNL     1      35.202 -23.858 -16.436  0.00  0.00    +0.015 C 
ATOM      4  C   UNL     1      37.247 -22.192 -17.345  0.00  0.00    +0.001 C 
ATOM      5  C   UNL     1      34.971 -22.987 -17.501  0.00  0.00    +0.001 C 
ATOM      6  C   UNL     1      35.994 -22.154 -17.954  0.00  0.00    +0.000 C 
ENDROOT
BRANCH   1   7
ATOM      7  N   UNL     1      36.684 -24.760 -14.772  0.00  0.00    -0.311 N 
ATOM      8  N   UNL     1      37.326 -23.910 -11.447  0.00  0.00    +0.387 N 
ATOM      9  C   UNL     1      37.541 -25.766 -12.795  0.00  0.00    -0.003 C 
ATOM     10  C   UNL     1      37.667 -24.535 -13.709  0.00  0.00    +0.050 C 
ATOM     11  C   UNL     1      36.811 -26.809 -13.623  0.00  0.00    +0.021 C 
ATOM     12  C   UNL     1      36.782 -25.260 -11.575  0.00  0.00    -0.076 C 
ATOM     13  C   UNL     1      37.297 -23.353 -12.804  0.00  0.00    -0.057 C 
ATOM     14  C   UNL     1      35.930 -25.994 -14.564  0.00  0.00    +0.091 C 
ATOM     15  C   UNL     1      36.581 -23.097 -10.497  0.00  0.00    -0.101 C 
ATOM     16  H   UNL     1      38.275 -23.923 -11.070  0.00  0.00    -0.080 HD
ENDBRANCH   1   7
BRANCH   6  17
ATOM     17  C   UNL     1      35.753 -21.251 -19.059  0.00  0.00    +0.000 C 
ATOM     18  C   UNL     1      34.466 -21.114 -19.580  0.00  0.00    +0.001 C 
ATOM     19  C   UNL     1      36.807 -20.518 -19.603  0.00  0.00    +0.001 C 
ATOM     20  C   UNL     1      34.233 -20.243 -20.644  0.00  0.00    +0.017 C 
ATOM     21  C   UNL     1      36.574 -19.647 -20.668  0.00  0.00    +0.017 C 
ATOM     22  C   UNL     1      35.287 -19.510 -21.188  0.00  0.00    +0.077 C 
BRANCH  22  24
ATOM     23  O   UNL     1      34.643 -20.157 -24.020  0.00  0.00    -0.268 OA
ATOM     24  N   UNL     1      35.046 -18.609 -22.291  0.00  0.00    -0.155 N 
ATOM     25  N   UNL     1      35.095 -17.283 -21.929  0.00  0.00    -0.170 NA
ATOM     26  C   UNL     1      34.774 -19.006 -23.605  0.00  0.00    +0.272 C 
ATOM     27  C   UNL     1      34.606 -17.923 -24.607  0.00  0.00    +0.062 C 
ATOM     28  C   UNL     1      34.919 -16.392 -22.843  0.00  0.00    +0.118 C 
ATOM     29  C   UNL     1      34.672 -16.643 -24.258  0.00  0.00    +0.027 C 
ENDBRANCH  22  24
ENDBRANCH   6  17
TORSDOF 3
ENDMDL
MODEL 3
REMARK VINA RESULT:     -10.0      7.946     15.158
REMARK  Name = 24743471
REMARK  3 active torsions:
REMARK  status: ('A' for Active; 'I' for Inactive)
REMARK    1  A    between atoms: C_1  and  N_7
REMARK    2  A    between atoms: C_6  and  C_17
REMARK    3  A    between atoms: C_22  and  N_24
REMARK                            x       y       z     vdW  Elec       q    Type
REMARK                         _______ _______ _______ _____ _____    ______ ____
ROOT
ATOM      1  C   UNL     1      32.321  -8.820 -22.637  0.00  0.00    +0.048 C 
ATOM      2  C   UNL     1      33.423  -9.237 -23.383  0.00  0.00    +0.015 C 
ATOM      3  C   UNL     1      31.596  -9.747 -21.887  0.00  0.00    +0.015 C 
ATOM      4  C   UNL     1      33.801 -10.580 -23.380  0.00  0.00    +0.001 C 
ATOM      5  C   UNL     1      31.974 -11.090 -21.884  0.00  0.00    +0.001 C 
ATOM      6  C   UNL     1      33.076 -11.505 -22.631  0.00  0.00    +0.000 C 
ENDROOT
BRANCH   1   7
ATOM      7  N   UNL     1      31.947  -7.491 -22.638  0.00  0.00    -0.311 N 
ATOM      8  N   UNL     1      33.230  -4.939 -24.646  0.00  0.00    +0.387 N 
ATOM      9  C   UNL     1      31.982  -5.114 -22.718  0.00  0.00    -0.003 C 
ATOM     10  C   UNL     1      32.874  -6.365 -22.786  0.00  0.00    +0.050 C 
ATOM     11  C   UNL     1      30.674  -5.585 -22.107  0.00  0.00    +0.021 C 
ATOM     12  C   UNL     1      31.886  -4.634 -24.160  0.00  0.00    -0.076 C 
ATOM     13  C   UNL     1      33.508  -6.302 -24.181  0.00  0.00    -0.057 C 
ATOM     14  C   UNL     1      30.559  -7.044 -22.537  0.00  0.00    +0.091 C 
ATOM     15  C   UNL     1      33.342  -4.811 -26.091  0.00  0.00    -0.101 C 
ATOM     16  H   UNL     1      33.917  -4.275 -24.286  0.00  0.00    -0.080 HD
ENDBRANCH   1   7
BRANCH   6  17
ATOM     17  C   UNL     1      33.467 -12.899 -22.628  0.00  0.00    +0.000 C 
ATOM     18  C   UNL     1      34.212 -13.416 -23.689  0.00  0.00    +0.001 C 
ATOM     19  C   UNL     1      33.099 -13.724 -21.566  0.00  0.00    +0.001 C 
ATOM     20  C   UNL     1      34.589 -14.759 -23.686  0.00  0.00    +0.017 C 
ATOM     21  C   UNL     1      33.477 -15.067 -21.563  0.00  0.00    +0.017 C 
ATOM     22  C   UNL     1      34.221 -15.584 -22.624  0.00  0.00    +0.077 C 
BRANCH  22  24
ATOM     23  O   UNL     1      34.464 -17.458 -24.922  0.00  0.00    -0.268 OA
ATOM     24  N   UNL     1      34.612 -16.975 -22.621  0.00  0.00    -0.155 N 
ATOM     25  N   UNL     1      34.941 -17.445 -21.371  0.00  0.00    -0.170 NA
ATOM     26  C   UNL     1      34.673 -17.791 -23.756  0.00  0.00    +0.272 C 
ATOM     27  C   UNL     1      35.048 -19.211 -23.536  0.00  0.00    +0.062 C 
ATOM     28  C   UNL     1      35.280 -18.682 -21.251  0.00  0.00    +0.118 C 
ATOM     29  C   UNL     1      35.349 -19.666 -22.325  0.00  0.00    +0.027 C 
ENDBRANCH  22  24
ENDBRANCH   6  17
TORSDOF 3
ENDMDL
MODEL 4
REMARK VINA RESULT:      -9.6     10.195     17.443
REMARK  Name = 24743471
REMARK  3 active torsions:
REMARK  status: ('A' for Active; 'I' for Inactive)
REMARK    1  A    between atoms: C_1  and  N_7
REMARK    2  A    between atoms: C_6  and  C_17
REMARK    3  A    between atoms: C_22  and  N_24
REMARK                            x       y       z     vdW  Elec       q    Type
REMARK                         _______ _______ _______ _____ _____    ______ ____
ROOT
ATOM      1  C   UNL     1      31.824  -6.053 -23.110  0.00  0.00    +0.048 C 
ATOM      2  C   UNL     1      33.172  -6.407 -23.177  0.00  0.00    +0.015 C 
ATOM      3  C   UNL     1      30.845  -7.044 -23.034  0.00  0.00    +0.015 C 
ATOM      4  C   UNL     1      33.541  -7.752 -23.168  0.00  0.00    +0.001 C 
ATOM      5  C   UNL     1      31.215  -8.390 -23.024  0.00  0.00    +0.001 C 
ATOM      6  C   UNL     1      32.563  -8.743 -23.092  0.00  0.00    +0.000 C 
ENDROOT
BRANCH   1   7
ATOM      7  N   UNL     1      31.457  -4.722 -23.118  0.00  0.00    -0.311 N 
ATOM      8  N   UNL     1      31.545  -2.524 -25.830  0.00  0.00    +0.387 N 
ATOM      9  C   UNL     1      31.381  -2.382 -23.536  0.00  0.00    -0.003 C 
ATOM     10  C   UNL     1      32.167  -3.667 -23.847  0.00  0.00    +0.050 C 
ATOM     11  C   UNL     1      30.541  -2.709 -22.314  0.00  0.00    +0.021 C 
ATOM     12  C   UNL     1      30.591  -2.099 -24.807  0.00  0.00    -0.076 C 
ATOM     13  C   UNL     1      32.051  -3.821 -25.369  0.00  0.00    -0.057 C 
ATOM     14  C   UNL     1      30.276  -4.207 -22.428  0.00  0.00    +0.091 C 
ATOM     15  C   UNL     1      30.947  -2.600 -27.154  0.00  0.00    -0.101 C 
ATOM     16  H   UNL     1      32.302  -1.847 -25.939  0.00  0.00    -0.080 HD
ENDBRANCH   1   7
BRANCH   6  17
ATOM     17  C   UNL     1      32.945 -10.139 -23.082  0.00  0.00    +0.000 C 
ATOM     18  C   UNL     1      33.997 -10.578 -23.887  0.00  0.00    +0.001 C 
ATOM     19  C   UNL     1      32.262 -11.044 -22.271  0.00  0.00    +0.001 C 
ATOM     20  C   UNL     1      34.366 -11.923 -23.878  0.00  0.00    +0.017 C 
ATOM     21  C   UNL     1      32.631 -12.389 -22.262  0.00  0.00    +0.017 C 
ATOM     22  C   UNL     1      33.683 -12.828 -23.067  0.00  0.00    +0.077 C 
BRANCH  22  24
ATOM     23  O   UNL     1      34.533 -14.515 -20.767  0.00  0.00    -0.268 OA
ATOM     24  N   UNL     1      34.065 -14.221 -23.058  0.00  0.00    -0.155 N 
ATOM     25  N   UNL     1      33.975 -14.818 -24.294  0.00  0.00    -0.170 NA
ATOM     26  C   UNL     1      34.479 -14.931 -21.925  0.00  0.00    +0.272 C 
ATOM     27  C   UNL     1      34.880 -16.345 -22.133  0.00  0.00    +0.062 C 
ATOM     28  C   UNL     1      34.318 -16.055 -24.404  0.00  0.00    +0.118 C 
ATOM     29  C   UNL     1      34.808 -16.913 -23.332  0.00  0.00    +0.027 C 
ENDBRANCH  22  24
ENDBRANCH   6  17
TORSDOF 3
ENDMDL
MODEL 5
REMARK VINA RESULT:      -9.1      7.654     14.930
REMARK  Name = 24743471
REMARK  3 active torsions:
REMARK  status: ('A' for Active; 'I' for Inactive)
REMARK    1  A    between atoms: C_1  and  N_7
REMARK    2  A    between atoms: C_6  and  C_17
REMARK    3  A    between atoms: C_22  and  N_24
REMARK                            x       y       z     vdW  Elec       q    Type
REMARK                         _______ _______ _______ _____ _____    ______ ____
ROOT
ATOM      1  C   UNL     1      33.267  -9.012 -23.452  0.00  0.00    +0.048 C 
ATOM      2  C   UNL     1      32.409  -9.799 -22.684  0.00  0.00    +0.015 C 
ATOM      3  C   UNL     1      34.366  -9.594 -24.086  0.00  0.00    +0.015 C 
ATOM      4  C   UNL     1      32.649 -11.166 -22.549  0.00  0.00    +0.001 C 
ATOM      5  C   UNL     1      34.605 -10.962 -23.951  0.00  0.00    +0.001 C 
ATOM      6  C   UNL     1      33.746 -11.747 -23.183  0.00  0.00    +0.000 C 
ENDROOT
BRANCH   1   7
ATOM      7  N   UNL     1      33.030  -7.659 -23.588  0.00  0.00    -0.311 N 
ATOM      8  N   UNL     1      30.461  -5.808 -22.114  0.00  0.00    +0.387 N 
ATOM      9  C   UNL     1      31.968  -5.545 -23.837  0.00  0.00    -0.003 C 
ATOM     10  C   UNL     1      31.700  -7.054 -23.707  0.00  0.00    +0.050 C 
ATOM     11  C   UNL     1      33.434  -5.428 -24.218  0.00  0.00    +0.021 C 
ATOM     12  C   UNL     1      31.606  -4.973 -22.473  0.00  0.00    -0.076 C 
ATOM     13  C   UNL     1      30.876  -7.181 -22.419  0.00  0.00    -0.057 C 
ATOM     14  C   UNL     1      34.088  -6.651 -23.582  0.00  0.00    +0.091 C 
ATOM     15  C   UNL     1      30.065  -5.643 -20.724  0.00  0.00    -0.101 C 
ATOM     16  H   UNL     1      29.627  -5.545 -22.641  0.00  0.00    -0.080 HD
ENDBRANCH   1   7
BRANCH   6  17
ATOM     17  C   UNL     1      33.996 -13.166 -23.043  0.00  0.00    +0.000 C 
ATOM     18  C   UNL     1      34.117 -13.730 -21.773  0.00  0.00    +0.001 C 
ATOM     19  C   UNL     1      34.116 -13.968 -24.177  0.00  0.00    +0.001 C 
ATOM     20  C   UNL     1      34.358 -15.097 -21.637  0.00  0.00    +0.017 C 
ATOM     21  C   UNL     1      34.357 -15.335 -24.042  0.00  0.00    +0.017 C 
ATOM     22  C   UNL     1      34.478 -15.900 -22.772  0.00  0.00    +0.077 C 
BRANCH  22  24
ATOM     23  O   UNL     1      34.437 -18.017 -24.862  0.00  0.00    -0.268 OA
ATOM     24  N   UNL     1      34.727 -17.315 -22.631  0.00  0.00    -0.155 N 
ATOM     25  N   UNL     1      35.059 -17.685 -21.349  0.00  0.00    -0.170 NA
ATOM     26  C   UNL     1      34.659 -18.247 -23.673  0.00  0.00    +0.272 C 
ATOM     27  C   UNL     1      34.900 -19.667 -23.314  0.00  0.00    +0.062 C 
ATOM     28  C   UNL     1      35.277 -18.931 -21.107  0.00  0.00    +0.118 C 
ATOM     29  C   UNL     1      35.203 -20.023 -22.071  0.00  0.00    +0.027 C 
ENDBRANCH  22  24
ENDBRANCH   6  17
TORSDOF 3
ENDMDL
MODEL 6
REMARK VINA RESULT:      -9.0      6.719     11.325
REMARK  Name = 24743471
REMARK  3 active torsions:
REMARK  status: ('A' for Active; 'I' for Inactive)
REMARK    1  A    between atoms: C_1  and  N_7
REMARK    2  A    between atoms: C_6  and  C_17
REMARK    3  A    between atoms: C_22  and  N_24
REMARK                            x       y       z     vdW  Elec       q    Type
REMARK                         _______ _______ _______ _____ _____    ______ ____
ROOT
ATOM      1  C   UNL     1      34.388 -16.133 -23.101  0.00  0.00    +0.048 C 
ATOM      2  C   UNL     1      33.826 -15.460 -24.185  0.00  0.00    +0.015 C 
ATOM      3  C   UNL     1      34.567 -15.471 -21.885  0.00  0.00    +0.015 C 
ATOM      4  C   UNL     1      33.441 -14.125 -24.055  0.00  0.00    +0.001 C 
ATOM      5  C   UNL     1      34.181 -14.136 -21.755  0.00  0.00    +0.001 C 
ATOM      6  C   UNL     1      33.619 -13.464 -22.840  0.00  0.00    +0.000 C 
ENDROOT
BRANCH   1   7
ATOM      7  N   UNL     1      34.768 -17.454 -23.228  0.00  0.00    -0.311 N 
ATOM      8  N   UNL     1      34.596 -19.943 -20.785  0.00  0.00    +0.387 N 
ATOM      9  C   UNL     1      35.654 -19.621 -22.806  0.00  0.00    -0.003 C 
ATOM     10  C   UNL     1      35.447 -18.229 -22.185  0.00  0.00    +0.050 C 
ATOM     11  C   UNL     1      35.474 -19.425 -24.301  0.00  0.00    +0.021 C 
ATOM     12  C   UNL     1      34.604 -20.498 -22.137  0.00  0.00    -0.076 C 
ATOM     13  C   UNL     1      34.552 -18.489 -20.966  0.00  0.00    -0.057 C 
ATOM     14  C   UNL     1      34.494 -18.261 -24.415  0.00  0.00    +0.091 C 
ATOM     15  C   UNL     1      33.485 -20.438 -19.987  0.00  0.00    -0.101 C 
ATOM     16  H   UNL     1      35.424 -20.229 -20.259  0.00  0.00    -0.080 HD
ENDBRANCH   1   7
BRANCH   6  17
ATOM     17  C   UNL     1      33.220 -12.079 -22.705  0.00  0.00    +0.000 C 
ATOM     18  C   UNL     1      32.205 -11.731 -21.813  0.00  0.00    +0.001 C 
ATOM     19  C   UNL     1      33.850 -11.094 -23.465  0.00  0.00    +0.001 C 
ATOM     20  C   UNL     1      31.821 -10.396 -21.682  0.00  0.00    +0.017 C 
ATOM     21  C   UNL     1      33.465  -9.760 -23.334  0.00  0.00    +0.017 C 
ATOM     22  C   UNL     1      32.450  -9.412 -22.442  0.00  0.00    +0.077 C 
BRANCH  22  24
ATOM     23  O   UNL     1      33.040  -7.509 -20.232  0.00  0.00    -0.268 OA
ATOM     24  N   UNL     1      32.052  -8.030 -22.306  0.00  0.00    -0.155 N 
ATOM     25  N   UNL     1      31.335  -7.562 -23.383  0.00  0.00    -0.170 NA
ATOM     26  C   UNL     1      32.355  -7.213 -21.211  0.00  0.00    +0.272 C 
ATOM     27  C   UNL     1      31.809  -5.833 -21.237  0.00  0.00    +0.062 C 
ATOM     28  C   UNL     1      30.908  -6.347 -23.353  0.00  0.00    +0.118 C 
ATOM     29  C   UNL     1      31.103  -5.390 -22.271  0.00  0.00    +0.027 C 
ENDBRANCH  22  24
ENDBRANCH   6  17
TORSDOF 3
ENDMDL
MODEL 7
REMARK VINA RESULT:      -8.8      2.540     10.346
REMARK  Name = 24743471
REMARK  3 active torsions:
REMARK  status: ('A' for Active; 'I' for Inactive)
REMARK    1  A    between atoms: C_1  and  N_7
REMARK    2  A    between atoms: C_6  and  C_17
REMARK    3  A    between atoms: C_22  and  N_24
REMARK                            x       y       z     vdW  Elec       q    Type
REMARK                         _______ _______ _______ _____ _____    ______ ____
ROOT
ATOM      1  C   UNL     1      35.625 -19.937 -20.758  0.00  0.00    +0.048 C 
ATOM      2  C   UNL     1      34.607 -20.730 -20.228  0.00  0.00    +0.015 C 
ATOM      3  C   UNL     1      36.890 -19.941 -20.170  0.00  0.00    +0.015 C 
ATOM      4  C   UNL     1      34.854 -21.526 -19.109  0.00  0.00    +0.001 C 
ATOM      5  C   UNL     1      37.137 -20.737 -19.052  0.00  0.00    +0.001 C 
ATOM      6  C   UNL     1      36.118 -21.529 -18.522  0.00  0.00    +0.000 C 
ENDROOT
BRANCH   1   7
ATOM      7  N   UNL     1      35.382 -19.150 -21.867  0.00  0.00    -0.311 N 
ATOM      8  N   UNL     1      34.307 -15.828 -21.899  0.00  0.00    +0.387 N 
ATOM      9  C   UNL     1      34.436 -17.583 -23.386  0.00  0.00    -0.003 C 
ATOM     10  C   UNL     1      34.274 -18.197 -21.984  0.00  0.00    +0.050 C 
ATOM     11  C   UNL     1      35.357 -18.530 -24.136  0.00  0.00    +0.021 C 
ATOM     12  C   UNL     1      35.004 -16.194 -23.131  0.00  0.00    -0.076 C 
ATOM     13  C   UNL     1      34.418 -17.004 -21.031  0.00  0.00    -0.057 C 
ATOM     14  C   UNL     1      36.239 -19.138 -23.050  0.00  0.00    +0.091 C 
ATOM     15  C   UNL     1      34.856 -14.629 -21.284  0.00  0.00    -0.101 C 
ATOM     16  H   UNL     1      33.331 -15.588 -22.080  0.00  0.00    -0.080 HD
ENDBRANCH   1   7
BRANCH   6  17
ATOM     17  C   UNL     1      36.375 -22.355 -17.361  0.00  0.00    +0.000 C 
ATOM     18  C   UNL     1      35.337 -23.085 -16.782  0.00  0.00    +0.001 C 
ATOM     19  C   UNL     1      37.659 -22.419 -16.821  0.00  0.00    +0.001 C 
ATOM     20  C   UNL     1      35.584 -23.881 -15.663  0.00  0.00    +0.017 C 
ATOM     21  C   UNL     1      37.906 -23.215 -15.702  0.00  0.00    +0.017 C 
ATOM     22  C   UNL     1      36.868 -23.945 -15.123  0.00  0.00    +0.077 C 
BRANCH  22  24
ATOM     23  O   UNL     1      37.626 -23.110 -12.370  0.00  0.00    -0.268 OA
ATOM     24  N   UNL     1      37.123 -24.769 -13.965  0.00  0.00    -0.155 N 
ATOM     25  N   UNL     1      36.945 -26.112 -14.203  0.00  0.00    -0.170 NA
ATOM     26  C   UNL     1      37.503 -24.287 -12.707  0.00  0.00    +0.272 C 
ATOM     27  C   UNL     1      37.769 -25.302 -11.657  0.00  0.00    +0.062 C 
ATOM     28  C   UNL     1      37.172 -26.940 -13.242  0.00  0.00    +0.118 C 
ATOM     29  C   UNL     1      37.614 -26.599 -11.895  0.00  0.00    +0.027 C 
ENDBRANCH  22  24
ENDBRANCH   6  17
TORSDOF 3
ENDMDL
MODEL 8
REMARK VINA RESULT:      -8.7     11.567     16.588
REMARK  Name = 24743471
REMARK  3 active torsions:
REMARK  status: ('A' for Active; 'I' for Inactive)
REMARK    1  A    between atoms: C_1  and  N_7
REMARK    2  A    between atoms: C_6  and  C_17
REMARK    3  A    between atoms: C_22  and  N_24
REMARK                            x       y       z     vdW  Elec       q    Type
REMARK                         _______ _______ _______ _____ _____    ______ ____
ROOT
ATOM      1  C   UNL     1      32.278  -8.820 -21.653  0.00  0.00    +0.048 C 
ATOM      2  C   UNL     1      33.472  -8.115 -21.501  0.00  0.00    +0.015 C 
ATOM      3  C   UNL     1      31.514  -8.656 -22.809  0.00  0.00    +0.015 C 
ATOM      4  C   UNL     1      33.901  -7.244 -22.503  0.00  0.00    +0.001 C 
ATOM      5  C   UNL     1      31.944  -7.785 -23.811  0.00  0.00    +0.001 C 
ATOM      6  C   UNL     1      33.137  -7.080 -23.657  0.00  0.00    +0.000 C 
ENDROOT
BRANCH   1   7
ATOM      7  N   UNL     1      31.853  -9.683 -20.663  0.00  0.00    -0.311 N 
ATOM      8  N   UNL     1      31.606 -13.161 -20.857  0.00  0.00    +0.387 N 
ATOM      9  C   UNL     1      30.819 -11.478 -19.494  0.00  0.00    -0.003 C 
ATOM     10  C   UNL     1      31.016 -10.865 -20.891  0.00  0.00    +0.050 C 
ATOM     11  C   UNL     1      31.189 -10.378 -18.516  0.00  0.00    +0.021 C 
ATOM     12  C   UNL     1      31.736 -12.694 -19.478  0.00  0.00    -0.076 C 
ATOM     13  C   UNL     1      31.742 -11.958 -21.685  0.00  0.00    -0.057 C 
ATOM     14  C   UNL     1      32.230  -9.546 -19.258  0.00  0.00    +0.091 C 
ATOM     15  C   UNL     1      32.587 -14.181 -21.194  0.00  0.00    -0.101 C 
ATOM     16  H   UNL     1      30.708 -13.621 -21.013  0.00  0.00    -0.080 HD
ENDBRANCH   1   7
BRANCH   6  17
ATOM     17  C   UNL     1      33.582  -6.176 -24.697  0.00  0.00    +0.000 C 
ATOM     18  C   UNL     1      34.896  -6.242 -25.161  0.00  0.00    +0.001 C 
ATOM     19  C   UNL     1      32.697  -5.241 -25.234  0.00  0.00    +0.001 C 
ATOM     20  C   UNL     1      35.325  -5.372 -26.164  0.00  0.00    +0.017 C 
ATOM     21  C   UNL     1      33.127  -4.371 -26.236  0.00  0.00    +0.017 C 
ATOM     22  C   UNL     1      34.441  -4.436 -26.700  0.00  0.00    +0.077 C 
BRANCH  22  24
ATOM     23  O   UNL     1      33.057  -3.665 -29.219  0.00  0.00    -0.268 OA
ATOM     24  N   UNL     1      34.885  -3.535 -27.738  0.00  0.00    -0.155 N 
ATOM     25  N   UNL     1      36.100  -2.950 -27.467  0.00  0.00    -0.170 NA
ATOM     26  C   UNL     1      34.174  -3.251 -28.909  0.00  0.00    +0.272 C 
ATOM     27  C   UNL     1      34.827  -2.335 -29.879  0.00  0.00    +0.062 C 
ATOM     28  C   UNL     1      36.602  -2.147 -28.340  0.00  0.00    +0.118 C 
ATOM     29  C   UNL     1      36.008  -1.786 -29.622  0.00  0.00    +0.027 C 
ENDBRANCH  22  24
ENDBRANCH   6  17
TORSDOF 3
ENDMDL
MODEL 9
REMARK VINA RESULT:      -8.7      6.909     14.137
REMARK  Name = 24743471
REMARK  3 active torsions:
REMARK  status: ('A' for Active; 'I' for Inactive)
REMARK    1  A    between atoms: C_1  and  N_7
REMARK    2  A    between atoms: C_6  and  C_17
REMARK    3  A    between atoms: C_22  and  N_24
REMARK                            x       y       z     vdW  Elec       q    Type
REMARK                         _______ _______ _______ _____ _____    ______ ____
ROOT
ATOM      1  C   UNL     1      32.380 -10.284 -22.522  0.00  0.00    +0.048 C 
ATOM      2  C   UNL     1      33.367 -10.834 -23.339  0.00  0.00    +0.015 C 
ATOM      3  C   UNL     1      31.857 -11.026 -21.462  0.00  0.00    +0.015 C 
ATOM      4  C   UNL     1      33.832 -12.127 -23.097  0.00  0.00    +0.001 C 
ATOM      5  C   UNL     1      32.323 -12.319 -21.220  0.00  0.00    +0.001 C 
ATOM      6  C   UNL     1      33.311 -12.868 -22.038  0.00  0.00    +0.000 C 
ENDROOT
BRANCH   1   7
ATOM      7  N   UNL     1      31.919  -9.004 -22.760  0.00  0.00    -0.311 N 
ATOM      8  N   UNL     1      33.759  -6.286 -23.952  0.00  0.00    +0.387 N 
ATOM      9  C   UNL     1      31.738  -6.637 -22.901  0.00  0.00    -0.003 C 
ATOM     10  C   UNL     1      32.671  -7.780 -22.467  0.00  0.00    +0.050 C 
ATOM     11  C   UNL     1      30.358  -7.261 -23.009  0.00  0.00    +0.021 C 
ATOM     12  C   UNL     1      32.328  -6.141 -24.215  0.00  0.00    -0.076 C 
ATOM     13  C   UNL     1      33.907  -7.619 -23.359  0.00  0.00    -0.057 C 
ATOM     14  C   UNL     1      30.629  -8.714 -23.384  0.00  0.00    +0.091 C 
ATOM     15  C   UNL     1      34.566  -6.117 -25.151  0.00  0.00    -0.101 C 
ATOM     16  H   UNL     1      34.098  -5.558 -23.321  0.00  0.00    -0.080 HD
ENDBRANCH   1   7
BRANCH   6  17
ATOM     17  C   UNL     1      33.793 -14.209 -21.786  0.00  0.00    +0.000 C 
ATOM     18  C   UNL     1      34.396 -14.937 -22.813  0.00  0.00    +0.001 C 
ATOM     19  C   UNL     1      33.654 -14.774 -20.519  0.00  0.00    +0.001 C 
ATOM     20  C   UNL     1      34.861 -16.230 -22.571  0.00  0.00    +0.017 C 
ATOM     21  C   UNL     1      34.119 -16.067 -20.277  0.00  0.00    +0.017 C 
ATOM     22  C   UNL     1      34.722 -16.795 -21.303  0.00  0.00    +0.077 C 
BRANCH  22  24
ATOM     23  O   UNL     1      33.161 -19.300 -20.932  0.00  0.00    -0.268 OA
ATOM     24  N   UNL     1      35.204 -18.133 -21.053  0.00  0.00    -0.155 N 
ATOM     25  N   UNL     1      36.576 -18.221 -21.026  0.00  0.00    -0.170 NA
ATOM     26  C   UNL     1      34.389 -19.255 -20.864  0.00  0.00    +0.272 C 
ATOM     27  C   UNL     1      35.077 -20.536 -20.566  0.00  0.00    +0.062 C 
ATOM     28  C   UNL     1      37.112 -19.367 -20.784  0.00  0.00    +0.118 C 
ATOM     29  C   UNL     1      36.402 -20.614 -20.524  0.00  0.00    +0.027 C 
ENDBRANCH  22  24
ENDBRANCH   6  17
TORSDOF 3
ENDMDL
