MODEL 1
REMARK VINA RESULT:     -12.1      0.000      0.000
REMARK  Name = 10430360
REMARK  6 active torsions:
REMARK  status: ('A' for Active; 'I' for Inactive)
REMARK    1  A    between atoms: C_4  and  C_18
REMARK    2  A    between atoms: C_7  and  C_14
REMARK    3  A    between atoms: C_17  and  O_23
REMARK    4  A    between atoms: O_23  and  C_24
REMARK    5  A    between atoms: C_24  and  C_25
REMARK    6  A    between atoms: C_25  and  N_26
REMARK                            x       y       z     vdW  Elec       q    Type
REMARK                         _______ _______ _______ _____ _____    ______ ____
ROOT
ATOM      1  N   UNL     1      33.752 -25.035 -13.213  0.00  0.00    -0.276 N 
ATOM      2  N   UNL     1      34.735 -24.542 -13.985  0.00  0.00    -0.173 NA
ATOM      3  C   UNL     1      32.676 -24.104 -14.883  0.00  0.00    +0.036 A 
ATOM      4  C   UNL     1      34.079 -23.975 -15.004  0.00  0.00    +0.102 A 
ATOM      5  C   UNL     1      32.491 -24.805 -13.696  0.00  0.00    +0.075 A 
ATOM      6  C   UNL     1      31.553 -23.714 -15.632  0.00  0.00    +0.006 C 
ATOM      7  C   UNL     1      30.280 -24.047 -15.154  0.00  0.00    +0.033 C 
ATOM      8  C   UNL     1      31.231 -25.148 -13.202  0.00  0.00    +0.019 C 
ATOM      9  C   UNL     1      30.124 -24.752 -13.959  0.00  0.00    +0.004 C 
ATOM     10  H   UNL     1      33.923 -25.518 -12.373  0.00  0.00    +0.189 HD
ENDROOT
BRANCH   7  14
ATOM     11  N   UNL     1      28.429 -24.516 -16.707  0.00  0.00    -0.218 N 
ATOM     12  N   UNL     1      28.555 -22.471 -15.948  0.00  0.00    -0.206 NA
ATOM     13  N   UNL     1      27.389 -23.904 -17.295  0.00  0.00    -0.157 NA
ATOM     14  C   UNL     1      29.113 -23.656 -15.909  0.00  0.00    +0.149 C 
ATOM     15  C   UNL     1      27.510 -22.670 -16.804  0.00  0.00    +0.218 C 
ATOM     16  H   UNL     1      28.662 -25.464 -16.836  0.00  0.00    +0.176 HD
ENDBRANCH   7  14
BRANCH   4  18
ATOM     17  C   UNL     1      34.898 -22.477 -18.311  0.00  0.00    +0.138 C 
ATOM     18  C   UNL     1      34.803 -23.325 -16.060  0.00  0.00    +0.022 C 
ATOM     19  C   UNL     1      34.190 -23.107 -17.294  0.00  0.00    +0.038 C 
ATOM     20  C   UNL     1      36.210 -22.063 -18.111  0.00  0.00    +0.037 C 
ATOM     21  C   UNL     1      36.118 -22.913 -15.852  0.00  0.00    +0.002 C 
ATOM     22  C   UNL     1      36.823 -22.281 -16.877  0.00  0.00    +0.003 C 
BRANCH  17  23
ATOM     23  O   UNL     1      34.297 -22.261 -19.524  0.00  0.00    -0.478 OA
BRANCH  23  24
ATOM     24  C   UNL     1      34.053 -20.908 -19.886  0.00  0.00    +0.183 C 
BRANCH  24  25
ATOM     25  C   UNL     1      35.211 -20.415 -20.740  0.00  0.00    -0.029 C 
BRANCH  25  26
ATOM     26  N   UNL     1      34.776 -19.334 -21.624  0.00  0.00    +0.389 N 
ATOM     27  C   UNL     1      35.463 -18.080 -21.280  0.00  0.00    -0.077 C 
ATOM     28  C   UNL     1      35.003 -19.696 -23.030  0.00  0.00    -0.077 C 
ATOM     29  C   UNL     1      34.983 -16.929 -22.165  0.00  0.00    -0.023 C 
ATOM     30  C   UNL     1      34.508 -18.597 -23.970  0.00  0.00    -0.023 C 
ATOM     31  C   UNL     1      35.154 -17.255 -23.644  0.00  0.00    -0.004 C 
ATOM     32  H   UNL     1      33.774 -19.188 -21.495  0.00  0.00    -0.080 HD
ENDBRANCH  25  26
ENDBRANCH  24  25
ENDBRANCH  23  24
ENDBRANCH  17  23
ENDBRANCH   4  18
TORSDOF 6
ENDMDL
MODEL 2
REMARK VINA RESULT:     -11.7      1.889      4.445
REMARK  Name = 10430360
REMARK  6 active torsions:
REMARK  status: ('A' for Active; 'I' for Inactive)
REMARK    1  A    between atoms: C_4  and  C_18
REMARK    2  A    between atoms: C_7  and  C_14
REMARK    3  A    between atoms: C_17  and  O_23
REMARK    4  A    between atoms: O_23  and  C_24
REMARK    5  A    between atoms: C_24  and  C_25
REMARK    6  A    between atoms: C_25  and  N_26
REMARK                            x       y       z     vdW  Elec       q    Type
REMARK                         _______ _______ _______ _____ _____    ______ ____
ROOT
ATOM      1  N   UNL     1      31.176 -23.421 -16.693  0.00  0.00    -0.276 N 
ATOM      2  N   UNL     1      31.945 -22.870 -17.648  0.00  0.00    -0.173 NA
ATOM      3  C   UNL     1      33.197 -23.528 -15.850  0.00  0.00    +0.036 A 
ATOM      4  C   UNL     1      33.178 -22.935 -17.134  0.00  0.00    +0.102 A 
ATOM      5  C   UNL     1      31.867 -23.836 -15.587  0.00  0.00    +0.075 A 
ATOM      6  C   UNL     1      34.177 -23.835 -14.890  0.00  0.00    +0.006 C 
ATOM      7  C   UNL     1      33.774 -24.444 -13.695  0.00  0.00    +0.033 C 
ATOM      8  C   UNL     1      31.445 -24.443 -14.403  0.00  0.00    +0.019 C 
ATOM      9  C   UNL     1      32.432 -24.742 -13.457  0.00  0.00    +0.004 C 
ATOM     10  H   UNL     1      30.201 -23.516 -16.782  0.00  0.00    +0.189 HD
ENDROOT
BRANCH   7  14
ATOM     11  N   UNL     1      35.709 -25.727 -12.874  0.00  0.00    -0.218 N 
ATOM     12  N   UNL     1      34.905 -24.218 -11.513  0.00  0.00    -0.206 NA
ATOM     13  N   UNL     1      36.503 -25.829 -11.797  0.00  0.00    -0.157 NA
ATOM     14  C   UNL     1      34.765 -24.768 -12.694  0.00  0.00    +0.149 C 
ATOM     15  C   UNL     1      35.975 -24.896 -11.003  0.00  0.00    +0.218 C 
ATOM     16  H   UNL     1      35.801 -26.274 -13.687  0.00  0.00    +0.176 HD
ENDBRANCH   7  14
BRANCH   4  18
ATOM     17  C   UNL     1      35.193 -21.331 -19.820  0.00  0.00    +0.138 C 
ATOM     18  C   UNL     1      34.301 -22.436 -17.876  0.00  0.00    +0.022 C 
ATOM     19  C   UNL     1      34.101 -21.812 -19.108  0.00  0.00    +0.038 C 
ATOM     20  C   UNL     1      36.483 -21.467 -19.319  0.00  0.00    +0.037 C 
ATOM     21  C   UNL     1      35.591 -22.576 -17.367  0.00  0.00    +0.002 C 
ATOM     22  C   UNL     1      36.683 -22.091 -18.088  0.00  0.00    +0.003 C 
BRANCH  17  23
ATOM     23  O   UNL     1      34.997 -20.716 -21.029  0.00  0.00    -0.478 OA
BRANCH  23  24
ATOM     24  C   UNL     1      35.093 -19.297 -21.050  0.00  0.00    +0.183 C 
BRANCH  24  25
ATOM     25  C   UNL     1      36.026 -18.888 -22.178  0.00  0.00    -0.029 C 
BRANCH  25  26
ATOM     26  N   UNL     1      35.712 -17.537 -22.643  0.00  0.00    +0.389 N 
ATOM     27  C   UNL     1      34.961 -17.588 -23.905  0.00  0.00    -0.077 C 
ATOM     28  C   UNL     1      34.971 -16.798 -21.611  0.00  0.00    -0.077 C 
ATOM     29  C   UNL     1      34.667 -16.181 -24.428  0.00  0.00    -0.023 C 
ATOM     30  C   UNL     1      34.678 -15.366 -22.061  0.00  0.00    -0.023 C 
ATOM     31  C   UNL     1      33.930 -15.344 -23.390  0.00  0.00    -0.004 C 
ATOM     32  H   UNL     1      36.586 -17.040 -22.817  0.00  0.00    -0.080 HD
ENDBRANCH  25  26
ENDBRANCH  24  25
ENDBRANCH  23  24
ENDBRANCH  17  23
ENDBRANCH   4  18
TORSDOF 6
ENDMDL
MODEL 3
REMARK VINA RESULT:     -11.6      2.293      4.181
REMARK  Name = 10430360
REMARK  6 active torsions:
REMARK  status: ('A' for Active; 'I' for Inactive)
REMARK    1  A    between atoms: C_4  and  C_18
REMARK    2  A    between atoms: C_7  and  C_14
REMARK    3  A    between atoms: C_17  and  O_23
REMARK    4  A    between atoms: O_23  and  C_24
REMARK    5  A    between atoms: C_24  and  C_25
REMARK    6  A    between atoms: C_25  and  N_26
REMARK                            x       y       z     vdW  Elec       q    Type
REMARK                         _______ _______ _______ _____ _____    ______ ____
ROOT
ATOM      1  N   UNL     1      37.573 -23.057 -16.469  0.00  0.00    -0.276 N 
ATOM      2  N   UNL     1      37.206 -22.427 -17.598  0.00  0.00    -0.173 NA
ATOM      3  C   UNL     1      35.382 -23.075 -16.378  0.00  0.00    +0.036 A 
ATOM      4  C   UNL     1      35.869 -22.438 -17.543  0.00  0.00    +0.102 A 
ATOM      5  C   UNL     1      36.525 -23.471 -15.692  0.00  0.00    +0.075 A 
ATOM      6  C   UNL     1      34.119 -23.359 -15.831  0.00  0.00    +0.006 C 
ATOM      7  C   UNL     1      34.057 -24.035 -14.607  0.00  0.00    +0.033 C 
ATOM      8  C   UNL     1      36.485 -24.146 -14.471  0.00  0.00    +0.019 C 
ATOM      9  C   UNL     1      35.221 -24.422 -13.940  0.00  0.00    +0.004 C 
ATOM     10  H   UNL     1      38.514 -23.207 -16.223  0.00  0.00    +0.189 HD
ENDROOT
BRANCH   7  14
ATOM     11  N   UNL     1      32.542 -25.441 -13.269  0.00  0.00    -0.218 N 
ATOM     12  N   UNL     1      31.668 -23.636 -14.136  0.00  0.00    -0.206 NA
ATOM     13  N   UNL     1      31.267 -25.488 -12.855  0.00  0.00    -0.157 NA
ATOM     14  C   UNL     1      32.769 -24.338 -14.028  0.00  0.00    +0.149 C 
ATOM     15  C   UNL     1      30.780 -24.375 -13.406  0.00  0.00    +0.218 C 
ATOM     16  H   UNL     1      33.224 -26.117 -13.049  0.00  0.00    +0.176 HD
ENDBRANCH   7  14
BRANCH   4  18
ATOM     17  C   UNL     1      34.975 -20.551 -20.623  0.00  0.00    +0.138 C 
ATOM     18  C   UNL     1      35.096 -21.843 -18.595  0.00  0.00    +0.022 C 
ATOM     19  C   UNL     1      35.731 -21.123 -19.608  0.00  0.00    +0.038 C 
ATOM     20  C   UNL     1      33.591 -20.686 -20.640  0.00  0.00    +0.037 C 
ATOM     21  C   UNL     1      33.708 -21.984 -18.605  0.00  0.00    +0.002 C 
ATOM     22  C   UNL     1      32.955 -21.406 -19.628  0.00  0.00    +0.003 C 
BRANCH  17  23
ATOM     23  O   UNL     1      35.598 -19.845 -21.619  0.00  0.00    -0.478 OA
BRANCH  23  24
ATOM     24  C   UNL     1      35.794 -18.454 -21.393  0.00  0.00    +0.183 C 
BRANCH  24  25
ATOM     25  C   UNL     1      35.345 -17.692 -22.629  0.00  0.00    -0.029 C 
BRANCH  25  26
ATOM     26  N   UNL     1      35.138 -16.278 -22.316  0.00  0.00    +0.389 N 
ATOM     27  C   UNL     1      34.404 -15.612 -23.402  0.00  0.00    -0.077 C 
ATOM     28  C   UNL     1      34.437 -16.133 -21.033  0.00  0.00    -0.077 C 
ATOM     29  C   UNL     1      34.223 -14.122 -23.112  0.00  0.00    -0.023 C 
ATOM     30  C   UNL     1      34.256 -14.659 -20.667  0.00  0.00    -0.023 C 
ATOM     31  C   UNL     1      33.533 -13.897 -21.771  0.00  0.00    -0.004 C 
ATOM     32  H   UNL     1      36.049 -15.826 -22.229  0.00  0.00    -0.080 HD
ENDBRANCH  25  26
ENDBRANCH  24  25
ENDBRANCH  23  24
ENDBRANCH  17  23
ENDBRANCH   4  18
TORSDOF 6
ENDMDL
MODEL 4
REMARK VINA RESULT:     -11.5      3.229      5.898
REMARK  Name = 10430360
REMARK  6 active torsions:
REMARK  status: ('A' for Active; 'I' for Inactive)
REMARK    1  A    between atoms: C_4  and  C_18
REMARK    2  A    between atoms: C_7  and  C_14
REMARK    3  A    between atoms: C_17  and  O_23
REMARK    4  A    between atoms: O_23  and  C_24
REMARK    5  A    between atoms: C_24  and  C_25
REMARK    6  A    between atoms: C_25  and  N_26
REMARK                            x       y       z     vdW  Elec       q    Type
REMARK                         _______ _______ _______ _____ _____    ______ ____
ROOT
ATOM      1  N   UNL     1      32.564 -25.078 -13.810  0.00  0.00    -0.276 N 
ATOM      2  N   UNL     1      33.564 -24.651 -14.601  0.00  0.00    -0.173 NA
ATOM      3  C   UNL     1      31.530 -23.944 -15.377  0.00  0.00    +0.036 A 
ATOM      4  C   UNL     1      32.933 -23.959 -15.557  0.00  0.00    +0.102 A 
ATOM      5  C   UNL     1      31.318 -24.687 -14.222  0.00  0.00    +0.075 A 
ATOM      6  C   UNL     1      30.428 -23.393 -16.052  0.00  0.00    +0.006 C 
ATOM      7  C   UNL     1      29.146 -23.614 -15.533  0.00  0.00    +0.033 C 
ATOM      8  C   UNL     1      30.049 -24.920 -13.687  0.00  0.00    +0.019 C 
ATOM      9  C   UNL     1      28.962 -24.365 -14.371  0.00  0.00    +0.004 C 
ATOM     10  H   UNL     1      32.716 -25.624 -13.006  0.00  0.00    +0.189 HD
ENDROOT
BRANCH   7  14
ATOM     11  N   UNL     1      26.939 -22.525 -15.553  0.00  0.00    -0.218 N 
ATOM     12  N   UNL     1      27.805 -22.983 -17.505  0.00  0.00    -0.206 NA
ATOM     13  N   UNL     1      26.010 -22.080 -16.414  0.00  0.00    -0.157 NA
ATOM     14  C   UNL     1      28.000 -23.058 -16.212  0.00  0.00    +0.149 C 
ATOM     15  C   UNL     1      26.582 -22.381 -17.581  0.00  0.00    +0.218 C 
ATOM     16  H   UNL     1      26.861 -22.469 -14.573  0.00  0.00    +0.176 HD
ENDBRANCH   7  14
BRANCH   4  18
ATOM     17  C   UNL     1      35.758 -22.473 -17.470  0.00  0.00    +0.138 C 
ATOM     18  C   UNL     1      33.680 -23.332 -16.610  0.00  0.00    +0.022 C 
ATOM     19  C   UNL     1      35.042 -23.080 -16.445  0.00  0.00    +0.038 C 
ATOM     20  C   UNL     1      35.131 -22.114 -18.657  0.00  0.00    +0.037 C 
ATOM     21  C   UNL     1      33.044 -22.974 -17.798  0.00  0.00    +0.002 C 
ATOM     22  C   UNL     1      33.769 -22.365 -18.823  0.00  0.00    +0.003 C 
BRANCH  17  23
ATOM     23  O   UNL     1      37.097 -22.227 -17.309  0.00  0.00    -0.478 OA
BRANCH  23  24
ATOM     24  C   UNL     1      37.598 -22.251 -15.978  0.00  0.00    +0.183 C 
BRANCH  24  25
ATOM     25  C   UNL     1      38.505 -23.461 -15.820  0.00  0.00    -0.029 C 
BRANCH  25  26
ATOM     26  N   UNL     1      37.947 -24.399 -14.846  0.00  0.00    +0.389 N 
ATOM     27  C   UNL     1      38.987 -25.320 -14.365  0.00  0.00    -0.077 C 
ATOM     28  C   UNL     1      37.323 -23.673 -13.731  0.00  0.00    -0.077 C 
ATOM     29  C   UNL     1      38.409 -26.339 -13.382  0.00  0.00    -0.023 C 
ATOM     30  C   UNL     1      36.692 -24.639 -12.728  0.00  0.00    -0.023 C 
ATOM     31  C   UNL     1      37.710 -25.651 -12.215  0.00  0.00    -0.004 C 
ATOM     32  H   UNL     1      37.223 -24.954 -15.303  0.00  0.00    -0.080 HD
ENDBRANCH  25  26
ENDBRANCH  24  25
ENDBRANCH  23  24
ENDBRANCH  17  23
ENDBRANCH   4  18
TORSDOF 6
ENDMDL
MODEL 5
REMARK VINA RESULT:     -11.2      5.807     11.670
REMARK  Name = 10430360
REMARK  6 active torsions:
REMARK  status: ('A' for Active; 'I' for Inactive)
REMARK    1  A    between atoms: C_4  and  C_18
REMARK    2  A    between atoms: C_7  and  C_14
REMARK    3  A    between atoms: C_17  and  O_23
REMARK    4  A    between atoms: O_23  and  C_24
REMARK    5  A    between atoms: C_24  and  C_25
REMARK    6  A    between atoms: C_25  and  N_26
REMARK                            x       y       z     vdW  Elec       q    Type
REMARK                         _______ _______ _______ _____ _____    ______ ____
ROOT
ATOM      1  N   UNL     1      31.925 -13.957 -19.572  0.00  0.00    -0.276 N 
ATOM      2  N   UNL     1      32.457 -14.875 -20.397  0.00  0.00    -0.173 NA
ATOM      3  C   UNL     1      32.449 -12.798 -21.358  0.00  0.00    +0.036 A 
ATOM      4  C   UNL     1      32.777 -14.167 -21.487  0.00  0.00    +0.102 A 
ATOM      5  C   UNL     1      31.890 -12.690 -20.089  0.00  0.00    +0.075 A 
ATOM      6  C   UNL     1      32.558 -11.649 -22.160  0.00  0.00    +0.006 C 
ATOM      7  C   UNL     1      32.098 -10.430 -21.649  0.00  0.00    +0.033 C 
ATOM      8  C   UNL     1      31.425 -11.485 -19.561  0.00  0.00    +0.019 C 
ATOM      9  C   UNL     1      31.541 -10.351 -20.372  0.00  0.00    +0.004 C 
ATOM     10  H   UNL     1      31.589 -14.178 -18.674  0.00  0.00    +0.189 HD
ENDROOT
BRANCH   7  14
ATOM     11  N   UNL     1      31.116  -8.593 -22.962  0.00  0.00    -0.218 N 
ATOM     12  N   UNL     1      33.296  -8.617 -22.818  0.00  0.00    -0.206 NA
ATOM     13  N   UNL     1      31.484  -7.518 -23.676  0.00  0.00    -0.157 NA
ATOM     14  C   UNL     1      32.200  -9.237 -22.457  0.00  0.00    +0.149 C 
ATOM     15  C   UNL     1      32.811  -7.577 -23.558  0.00  0.00    +0.218 C 
ATOM     16  H   UNL     1      30.183  -8.876 -22.822  0.00  0.00    +0.176 HD
ENDBRANCH   7  14
BRANCH   4  18
ATOM     17  C   UNL     1      34.833 -16.509 -23.521  0.00  0.00    +0.138 C 
ATOM     18  C   UNL     1      33.386 -14.811 -22.616  0.00  0.00    +0.022 C 
ATOM     19  C   UNL     1      34.248 -15.891 -22.423  0.00  0.00    +0.038 C 
ATOM     20  C   UNL     1      34.568 -16.063 -24.811  0.00  0.00    +0.037 C 
ATOM     21  C   UNL     1      33.116 -14.358 -23.907  0.00  0.00    +0.002 C 
ATOM     22  C   UNL     1      33.706 -14.983 -25.005  0.00  0.00    +0.003 C 
BRANCH  17  23
ATOM     23  O   UNL     1      35.679 -17.571 -23.332  0.00  0.00    -0.478 OA
BRANCH  23  24
ATOM     24  C   UNL     1      35.147 -18.702 -22.653  0.00  0.00    +0.183 C 
BRANCH  24  25
ATOM     25  C   UNL     1      36.093 -19.084 -21.526  0.00  0.00    -0.029 C 
BRANCH  25  26
ATOM     26  N   UNL     1      35.381 -19.824 -20.484  0.00  0.00    +0.389 N 
ATOM     27  C   UNL     1      34.041 -20.207 -20.949  0.00  0.00    -0.077 C 
ATOM     28  C   UNL     1      36.157 -21.001 -20.068  0.00  0.00    -0.077 C 
ATOM     29  C   UNL     1      33.266 -20.940 -19.853  0.00  0.00    -0.023 C 
ATOM     30  C   UNL     1      35.450 -21.759 -18.944  0.00  0.00    -0.023 C 
ATOM     31  C   UNL     1      34.034 -22.155 -19.346  0.00  0.00    -0.004 C 
ATOM     32  H   UNL     1      35.270 -19.218 -19.670  0.00  0.00    -0.080 HD
ENDBRANCH  25  26
ENDBRANCH  24  25
ENDBRANCH  23  24
ENDBRANCH  17  23
ENDBRANCH   4  18
TORSDOF 6
ENDMDL
MODEL 6
REMARK VINA RESULT:     -11.1      6.005     10.370
REMARK  Name = 10430360
REMARK  6 active torsions:
REMARK  status: ('A' for Active; 'I' for Inactive)
REMARK    1  A    between atoms: C_4  and  C_18
REMARK    2  A    between atoms: C_7  and  C_14
REMARK    3  A    between atoms: C_17  and  O_23
REMARK    4  A    between atoms: O_23  and  C_24
REMARK    5  A    between atoms: C_24  and  C_25
REMARK    6  A    between atoms: C_25  and  N_26
REMARK                            x       y       z     vdW  Elec       q    Type
REMARK                         _______ _______ _______ _____ _____    ______ ____
ROOT
ATOM      1  N   UNL     1      35.697 -16.496 -23.820  0.00  0.00    -0.276 N 
ATOM      2  N   UNL     1      35.044 -15.405 -23.385  0.00  0.00    -0.173 NA
ATOM      3  C   UNL     1      34.590 -17.223 -22.071  0.00  0.00    +0.036 A 
ATOM      4  C   UNL     1      34.368 -15.848 -22.319  0.00  0.00    +0.102 A 
ATOM      5  C   UNL     1      35.467 -17.621 -23.074  0.00  0.00    +0.075 A 
ATOM      6  C   UNL     1      34.154 -18.165 -21.125  0.00  0.00    +0.006 C 
ATOM      7  C   UNL     1      34.622 -19.481 -21.227  0.00  0.00    +0.033 C 
ATOM      8  C   UNL     1      35.945 -18.927 -23.194  0.00  0.00    +0.019 C 
ATOM      9  C   UNL     1      35.501 -19.854 -22.244  0.00  0.00    +0.004 C 
ATOM     10  H   UNL     1      36.289 -16.486 -24.606  0.00  0.00    +0.189 HD
ENDROOT
BRANCH   7  14
ATOM     11  N   UNL     1      32.876 -20.698 -19.989  0.00  0.00    -0.218 N 
ATOM     12  N   UNL     1      34.941 -21.253 -19.540  0.00  0.00    -0.206 NA
ATOM     13  N   UNL     1      32.741 -21.659 -19.062  0.00  0.00    -0.157 NA
ATOM     14  C   UNL     1      34.185 -20.466 -20.265  0.00  0.00    +0.149 C 
ATOM     15  C   UNL     1      34.018 -21.961 -18.823  0.00  0.00    +0.218 C 
ATOM     16  H   UNL     1      32.124 -20.225 -20.414  0.00  0.00    +0.176 HD
ENDBRANCH   7  14
BRANCH   4  18
ATOM     17  C   UNL     1      32.379 -12.852 -21.361  0.00  0.00    +0.138 C 
ATOM     18  C   UNL     1      33.536 -14.953 -21.565  0.00  0.00    +0.022 C 
ATOM     19  C   UNL     1      33.186 -13.712 -22.096  0.00  0.00    +0.038 C 
ATOM     20  C   UNL     1      31.917 -13.217 -20.101  0.00  0.00    +0.037 C 
ATOM     21  C   UNL     1      33.076 -15.326 -20.303  0.00  0.00    +0.002 C 
ATOM     22  C   UNL     1      32.266 -14.458 -19.570  0.00  0.00    +0.003 C 
BRANCH  17  23
ATOM     23  O   UNL     1      32.035 -11.632 -21.882  0.00  0.00    -0.478 OA
BRANCH  23  24
ATOM     24  C   UNL     1      31.178 -10.816 -21.093  0.00  0.00    +0.183 C 
BRANCH  24  25
ATOM     25  C   UNL     1      31.947  -9.578 -20.659  0.00  0.00    -0.029 C 
BRANCH  25  26
ATOM     26  N   UNL     1      32.305  -8.761 -21.819  0.00  0.00    +0.389 N 
ATOM     27  C   UNL     1      31.100  -8.193 -22.440  0.00  0.00    -0.077 C 
ATOM     28  C   UNL     1      33.251  -7.706 -21.431  0.00  0.00    -0.077 C 
ATOM     29  C   UNL     1      31.454  -7.376 -23.683  0.00  0.00    -0.023 C 
ATOM     30  C   UNL     1      33.675  -6.873 -22.642  0.00  0.00    -0.023 C 
ATOM     31  C   UNL     1      32.466  -6.282 -23.360  0.00  0.00    -0.004 C 
ATOM     32  H   UNL     1      32.764  -9.356 -22.509  0.00  0.00    -0.080 HD
ENDBRANCH  25  26
ENDBRANCH  24  25
ENDBRANCH  23  24
ENDBRANCH  17  23
ENDBRANCH   4  18
TORSDOF 6
ENDMDL
MODEL 7
REMARK VINA RESULT:     -11.1      2.995      6.146
REMARK  Name = 10430360
REMARK  6 active torsions:
REMARK  status: ('A' for Active; 'I' for Inactive)
REMARK    1  A    between atoms: C_4  and  C_18
REMARK    2  A    between atoms: C_7  and  C_14
REMARK    3  A    between atoms: C_17  and  O_23
REMARK    4  A    between atoms: O_23  and  C_24
REMARK    5  A    between atoms: C_24  and  C_25
REMARK    6  A    between atoms: C_25  and  N_26
REMARK                            x       y       z     vdW  Elec       q    Type
REMARK                         _______ _______ _______ _____ _____    ______ ____
ROOT
ATOM      1  N   UNL     1      32.232 -22.177 -18.874  0.00  0.00    -0.276 N 
ATOM      2  N   UNL     1      32.785 -21.344 -19.774  0.00  0.00    -0.173 NA
ATOM      3  C   UNL     1      34.351 -22.145 -18.310  0.00  0.00    +0.036 A 
ATOM      4  C   UNL     1      34.077 -21.325 -19.429  0.00  0.00    +0.102 A 
ATOM      5  C   UNL     1      33.120 -22.691 -17.968  0.00  0.00    +0.075 A 
ATOM      6  C   UNL     1      35.487 -22.483 -17.555  0.00  0.00    +0.006 C 
ATOM      7  C   UNL     1      35.337 -23.365 -16.478  0.00  0.00    +0.033 C 
ATOM      8  C   UNL     1      32.948 -23.572 -16.898  0.00  0.00    +0.019 C 
ATOM      9  C   UNL     1      34.088 -23.899 -16.157  0.00  0.00    +0.004 C 
ATOM     10  H   UNL     1      31.273 -22.397 -18.869  0.00  0.00    +0.189 HD
ENDROOT
BRANCH   7  14
ATOM     11  N   UNL     1      37.725 -23.198 -15.903  0.00  0.00    -0.218 N 
ATOM     12  N   UNL     1      36.535 -24.575 -14.693  0.00  0.00    -0.206 NA
ATOM     13  N   UNL     1      38.619 -23.698 -15.036  0.00  0.00    -0.157 NA
ATOM     14  C   UNL     1      36.491 -23.725 -15.689  0.00  0.00    +0.149 C 
ATOM     15  C   UNL     1      37.850 -24.526 -14.327  0.00  0.00    +0.218 C 
ATOM     16  H   UNL     1      37.935 -22.536 -16.600  0.00  0.00    +0.176 HD
ENDBRANCH   7  14
BRANCH   4  18
ATOM     17  C   UNL     1      35.466 -18.838 -21.825  0.00  0.00    +0.138 C 
ATOM     18  C   UNL     1      35.013 -20.530 -20.174  0.00  0.00    +0.022 C 
ATOM     19  C   UNL     1      34.553 -19.603 -21.109  0.00  0.00    +0.038 C 
ATOM     20  C   UNL     1      36.833 -18.988 -21.619  0.00  0.00    +0.037 C 
ATOM     21  C   UNL     1      36.383 -20.686 -19.962  0.00  0.00    +0.002 C 
ATOM     22  C   UNL     1      37.293 -19.915 -20.684  0.00  0.00    +0.003 C 
BRANCH  17  23
ATOM     23  O   UNL     1      35.015 -17.926 -22.743  0.00  0.00    -0.478 OA
BRANCH  23  24
ATOM     24  C   UNL     1      35.386 -16.569 -22.535  0.00  0.00    +0.183 C 
BRANCH  24  25
ATOM     25  C   UNL     1      34.453 -15.679 -23.340  0.00  0.00    -0.029 C 
BRANCH  25  26
ATOM     26  N   UNL     1      33.417 -15.106 -22.480  0.00  0.00    +0.389 N 
ATOM     27  C   UNL     1      33.742 -15.330 -21.064  0.00  0.00    -0.077 C 
ATOM     28  C   UNL     1      33.245 -13.675 -22.766  0.00  0.00    -0.077 C 
ATOM     29  C   UNL     1      32.644 -14.779 -20.153  0.00  0.00    -0.023 C 
ATOM     30  C   UNL     1      32.131 -13.071 -21.910  0.00  0.00    -0.023 C 
ATOM     31  C   UNL     1      32.386 -13.302 -20.424  0.00  0.00    -0.004 C 
ATOM     32  H   UNL     1      32.532 -15.574 -22.677  0.00  0.00    -0.080 HD
ENDBRANCH  25  26
ENDBRANCH  24  25
ENDBRANCH  23  24
ENDBRANCH  17  23
ENDBRANCH   4  18
TORSDOF 6
ENDMDL
MODEL 8
REMARK VINA RESULT:     -11.1      1.997      3.463
REMARK  Name = 10430360
REMARK  6 active torsions:
REMARK  status: ('A' for Active; 'I' for Inactive)
REMARK    1  A    between atoms: C_4  and  C_18
REMARK    2  A    between atoms: C_7  and  C_14
REMARK    3  A    between atoms: C_17  and  O_23
REMARK    4  A    between atoms: O_23  and  C_24
REMARK    5  A    between atoms: C_24  and  C_25
REMARK    6  A    between atoms: C_25  and  N_26
REMARK                            x       y       z     vdW  Elec       q    Type
REMARK                         _______ _______ _______ _____ _____    ______ ____
ROOT
ATOM      1  N   UNL     1      36.352 -23.257 -16.375  0.00  0.00    -0.276 N 
ATOM      2  N   UNL     1      36.329 -22.510 -17.492  0.00  0.00    -0.173 NA
ATOM      3  C   UNL     1      34.214 -23.073 -16.827  0.00  0.00    +0.036 A 
ATOM      4  C   UNL     1      35.025 -22.398 -17.768  0.00  0.00    +0.102 A 
ATOM      5  C   UNL     1      35.114 -23.629 -15.925  0.00  0.00    +0.075 A 
ATOM      6  C   UNL     1      32.836 -23.277 -16.639  0.00  0.00    +0.006 C 
ATOM      7  C   UNL     1      32.417 -24.037 -15.540  0.00  0.00    +0.033 C 
ATOM      8  C   UNL     1      34.717 -24.389 -14.823  0.00  0.00    +0.019 C 
ATOM      9  C   UNL     1      33.342 -24.583 -14.649  0.00  0.00    +0.004 C 
ATOM     10  H   UNL     1      37.186 -23.515 -15.922  0.00  0.00    +0.189 HD
ENDROOT
BRANCH   7  14
ATOM     11  N   UNL     1      30.043 -23.625 -16.045  0.00  0.00    -0.218 N 
ATOM     12  N   UNL     1      30.454 -25.066 -14.454  0.00  0.00    -0.206 NA
ATOM     13  N   UNL     1      28.818 -24.008 -15.652  0.00  0.00    -0.157 NA
ATOM     14  C   UNL     1      31.006 -24.260 -15.328  0.00  0.00    +0.149 C 
ATOM     15  C   UNL     1      29.121 -24.879 -14.688  0.00  0.00    +0.218 C 
ATOM     16  H   UNL     1      30.219 -22.972 -16.760  0.00  0.00    +0.176 HD
ENDBRANCH   7  14
BRANCH   4  18
ATOM     17  C   UNL     1      35.093 -20.296 -20.838  0.00  0.00    +0.138 C 
ATOM     18  C   UNL     1      34.588 -21.652 -18.914  0.00  0.00    +0.022 C 
ATOM     19  C   UNL     1      35.524 -21.015 -19.731  0.00  0.00    +0.038 C 
ATOM     20  C   UNL     1      33.739 -20.202 -21.141  0.00  0.00    +0.037 C 
ATOM     21  C   UNL     1      33.229 -21.563 -19.212  0.00  0.00    +0.002 C 
ATOM     22  C   UNL     1      32.803 -20.839 -20.325  0.00  0.00    +0.003 C 
BRANCH  17  23
ATOM     23  O   UNL     1      36.011 -19.671 -21.641  0.00  0.00    -0.478 OA
BRANCH  23  24
ATOM     24  C   UNL     1      35.505 -18.974 -22.773  0.00  0.00    +0.183 C 
BRANCH  24  25
ATOM     25  C   UNL     1      35.714 -17.483 -22.561  0.00  0.00    -0.029 C 
BRANCH  25  26
ATOM     26  N   UNL     1      34.646 -16.716 -23.201  0.00  0.00    +0.389 N 
ATOM     27  C   UNL     1      34.615 -15.342 -22.680  0.00  0.00    -0.077 C 
ATOM     28  C   UNL     1      34.809 -16.728 -24.662  0.00  0.00    -0.077 C 
ATOM     29  C   UNL     1      33.472 -14.541 -23.305  0.00  0.00    -0.023 C 
ATOM     30  C   UNL     1      33.672 -15.971 -25.350  0.00  0.00    -0.023 C 
ATOM     31  C   UNL     1      33.558 -14.544 -24.827  0.00  0.00    -0.004 C 
ATOM     32  H   UNL     1      33.751 -17.156 -22.982  0.00  0.00    -0.080 HD
ENDBRANCH  25  26
ENDBRANCH  24  25
ENDBRANCH  23  24
ENDBRANCH  17  23
ENDBRANCH   4  18
TORSDOF 6
ENDMDL
MODEL 9
REMARK VINA RESULT:     -10.9      7.397     12.100
REMARK  Name = 10430360
REMARK  6 active torsions:
REMARK  status: ('A' for Active; 'I' for Inactive)
REMARK    1  A    between atoms: C_4  and  C_18
REMARK    2  A    between atoms: C_7  and  C_14
REMARK    3  A    between atoms: C_17  and  O_23
REMARK    4  A    between atoms: O_23  and  C_24
REMARK    5  A    between atoms: C_24  and  C_25
REMARK    6  A    between atoms: C_25  and  N_26
REMARK                            x       y       z     vdW  Elec       q    Type
REMARK                         _______ _______ _______ _____ _____    ______ ____
ROOT
ATOM      1  N   UNL     1      33.373 -14.446 -25.182  0.00  0.00    -0.276 N 
ATOM      2  N   UNL     1      32.806 -13.572 -24.333  0.00  0.00    -0.173 NA
ATOM      3  C   UNL     1      33.829 -15.280 -23.206  0.00  0.00    +0.036 A 
ATOM      4  C   UNL     1      33.084 -14.081 -23.127  0.00  0.00    +0.102 A 
ATOM      5  C   UNL     1      34.003 -15.495 -24.568  0.00  0.00    +0.075 A 
ATOM      6  C   UNL     1      34.369 -16.199 -22.290  0.00  0.00    +0.006 C 
ATOM      7  C   UNL     1      35.069 -17.306 -22.787  0.00  0.00    +0.033 C 
ATOM      8  C   UNL     1      34.696 -16.592 -25.085  0.00  0.00    +0.019 C 
ATOM      9  C   UNL     1      35.228 -17.497 -24.161  0.00  0.00    +0.004 C 
ATOM     10  H   UNL     1      33.337 -14.341 -26.160  0.00  0.00    +0.189 HD
ENDROOT
BRANCH   7  14
ATOM     11  N   UNL     1      34.876 -18.973 -20.986  0.00  0.00    -0.218 N 
ATOM     12  N   UNL     1      36.894 -18.585 -21.729  0.00  0.00    -0.206 NA
ATOM     13  N   UNL     1      35.640 -19.789 -20.243  0.00  0.00    -0.157 NA
ATOM     14  C   UNL     1      35.631 -18.263 -21.864  0.00  0.00    +0.149 C 
ATOM     15  C   UNL     1      36.851 -19.517 -20.731  0.00  0.00    +0.218 C 
ATOM     16  H   UNL     1      33.898 -18.899 -20.904  0.00  0.00    +0.176 HD
ENDBRANCH   7  14
BRANCH   4  18
ATOM     17  C   UNL     1      31.922 -11.407 -20.814  0.00  0.00    +0.138 C 
ATOM     18  C   UNL     1      32.637 -13.412 -21.938  0.00  0.00    +0.022 C 
ATOM     19  C   UNL     1      32.355 -12.046 -21.970  0.00  0.00    +0.038 C 
ATOM     20  C   UNL     1      31.769 -12.114 -19.627  0.00  0.00    +0.037 C 
ATOM     21  C   UNL     1      32.486 -14.128 -20.751  0.00  0.00    +0.002 C 
ATOM     22  C   UNL     1      32.051 -13.480 -19.595  0.00  0.00    +0.003 C 
BRANCH  17  23
ATOM     23  O   UNL     1      31.643 -10.066 -20.845  0.00  0.00    -0.478 OA
BRANCH  23  24
ATOM     24  C   UNL     1      31.947  -9.320 -19.672  0.00  0.00    +0.183 C 
BRANCH  24  25
ATOM     25  C   UNL     1      32.784  -8.113 -20.065  0.00  0.00    -0.029 C 
BRANCH  25  26
ATOM     26  N   UNL     1      32.464  -7.685 -21.427  0.00  0.00    +0.389 N 
ATOM     27  C   UNL     1      31.529  -6.551 -21.403  0.00  0.00    -0.077 C 
ATOM     28  C   UNL     1      33.691  -7.347 -22.161  0.00  0.00    -0.077 C 
ATOM     29  C   UNL     1      31.147  -6.123 -22.821  0.00  0.00    -0.023 C 
ATOM     30  C   UNL     1      33.379  -6.945 -23.603  0.00  0.00    -0.023 C 
ATOM     31  C   UNL     1      32.380  -5.793 -23.654  0.00  0.00    -0.004 C 
ATOM     32  H   UNL     1      32.009  -8.458 -21.914  0.00  0.00    -0.080 HD
ENDBRANCH  25  26
ENDBRANCH  24  25
ENDBRANCH  23  24
ENDBRANCH  17  23
ENDBRANCH   4  18
TORSDOF 6
ENDMDL
