MODEL 1
REMARK VINA RESULT:     -12.7      0.000      0.000
REMARK  Name = 11952989
REMARK  5 active torsions:
REMARK  status: ('A' for Active; 'I' for Inactive)
REMARK    1  A    between atoms: C_4  and  C_21
REMARK    2  A    between atoms: C_6  and  C_11
REMARK    3  A    between atoms: C_24  and  C_27
REMARK    4  A    between atoms: C_27  and  C_29
REMARK    5  A    between atoms: C_29  and  O_30
REMARK                            x       y       z     vdW  Elec       q    Type
REMARK                         _______ _______ _______ _____ _____    ______ ____
ROOT
ATOM      1  N   UNL     1      33.800 -14.747 -25.548  0.00  0.00    -0.297 N 
ATOM      2  N   UNL     1      34.843 -16.895 -25.233  0.00  0.00    -0.229 NA
ATOM      3  C   UNL     1      33.914 -15.495 -23.448  0.00  0.00    +0.033 C 
ATOM      4  C   UNL     1      33.274 -14.227 -23.450  0.00  0.00    +0.017 C 
ATOM      5  C   UNL     1      34.229 -15.791 -24.771  0.00  0.00    +0.132 C 
ATOM      6  C   UNL     1      34.908 -17.603 -22.897  0.00  0.00    +0.019 C 
ATOM      7  C   UNL     1      34.269 -16.441 -22.472  0.00  0.00    +0.004 C 
ATOM      8  C   UNL     1      33.218 -13.792 -24.757  0.00  0.00    +0.063 C 
ATOM      9  C   UNL     1      35.162 -17.771 -24.252  0.00  0.00    +0.100 C 
ATOM     10  H   UNL     1      33.894 -14.692 -26.528  0.00  0.00    +0.154 HD
ENDROOT
BRANCH   6  11
ATOM     11  C   UNL     1      35.300 -18.617 -21.943  0.00  0.00    +0.001 C 
ATOM     12  C   UNL     1      34.694 -20.415 -20.420  0.00  0.00    +0.000 C 
ATOM     13  C   UNL     1      34.331 -19.426 -21.349  0.00  0.00    +0.000 C 
ATOM     14  C   UNL     1      36.061 -20.585 -20.089  0.00  0.00    +0.000 C 
ATOM     15  C   UNL     1      36.643 -18.783 -21.617  0.00  0.00    +0.000 C 
ATOM     16  C   UNL     1      37.022 -19.761 -20.697  0.00  0.00    +0.000 C 
ATOM     17  C   UNL     1      33.733 -21.238 -19.812  0.00  0.00    +0.000 C 
ATOM     18  C   UNL     1      36.424 -21.573 -19.160  0.00  0.00    +0.000 C 
ATOM     19  C   UNL     1      34.113 -22.215 -18.891  0.00  0.00    +0.000 C 
ATOM     20  C   UNL     1      35.455 -22.383 -18.566  0.00  0.00    +0.000 C 
ENDBRANCH   6  11
BRANCH   4  21
ATOM     21  C   UNL     1      32.750 -13.457 -22.359  0.00  0.00    +0.001 C 
ATOM     22  C   UNL     1      32.500 -12.093 -22.523  0.00  0.00    -0.000 C 
ATOM     23  C   UNL     1      32.488 -14.069 -21.133  0.00  0.00    -0.000 C 
ATOM     24  C   UNL     1      31.729 -11.959 -20.237  0.00  0.00    -0.011 C 
ATOM     25  C   UNL     1      31.991 -11.345 -21.462  0.00  0.00    -0.004 C 
ATOM     26  C   UNL     1      31.978 -13.321 -20.073  0.00  0.00    -0.004 C 
BRANCH  24  27
ATOM     27  C   UNL     1      31.181 -11.158 -19.104  0.00  0.00    +0.136 C 
BRANCH  27  29
ATOM     28  O   UNL     1      31.459  -8.738 -19.107  0.00  0.00    -0.250 OA
ATOM     29  C   UNL     1      31.915  -9.851 -18.878  0.00  0.00    +0.318 C 
BRANCH  29  30
ATOM     30  O   UNL     1      33.164 -10.050 -18.380  0.00  0.00    -0.480 OA
ATOM     31  H   UNL     1      33.368 -10.849 -17.934  0.00  0.00    +0.295 HD
ENDBRANCH  29  30
ENDBRANCH  27  29
ENDBRANCH  24  27
ENDBRANCH   4  21
TORSDOF 5
ENDMDL
MODEL 2
REMARK VINA RESULT:     -11.9      7.059     10.675
REMARK  Name = 11952989
REMARK  5 active torsions:
REMARK  status: ('A' for Active; 'I' for Inactive)
REMARK    1  A    between atoms: C_4  and  C_21
REMARK    2  A    between atoms: C_6  and  C_11
REMARK    3  A    between atoms: C_24  and  C_27
REMARK    4  A    between atoms: C_27  and  C_29
REMARK    5  A    between atoms: C_29  and  O_30
REMARK                            x       y       z     vdW  Elec       q    Type
REMARK                         _______ _______ _______ _____ _____    ______ ____
ROOT
ATOM      1  N   UNL     1      33.631 -25.396 -13.502  0.00  0.00    -0.297 N 
ATOM      2  N   UNL     1      35.529 -24.644 -14.780  0.00  0.00    -0.229 NA
ATOM      3  C   UNL     1      33.198 -24.011 -15.199  0.00  0.00    +0.033 C 
ATOM      4  C   UNL     1      31.976 -24.350 -14.560  0.00  0.00    +0.017 C 
ATOM      5  C   UNL     1      34.210 -24.678 -14.515  0.00  0.00    +0.132 C 
ATOM      6  C   UNL     1      34.929 -23.137 -16.604  0.00  0.00    +0.019 C 
ATOM      7  C   UNL     1      33.575 -23.207 -16.287  0.00  0.00    +0.004 C 
ATOM      8  C   UNL     1      32.274 -25.204 -13.520  0.00  0.00    +0.063 C 
ATOM      9  C   UNL     1      35.835 -23.856 -15.837  0.00  0.00    +0.100 C 
ATOM     10  H   UNL     1      34.115 -25.963 -12.859  0.00  0.00    +0.154 HD
ENDROOT
BRANCH   6  11
ATOM     11  C   UNL     1      35.383 -22.327 -17.714  0.00  0.00    +0.001 C 
ATOM     12  C   UNL     1      34.891 -21.085 -19.748  0.00  0.00    +0.000 C 
ATOM     13  C   UNL     1      34.468 -21.872 -18.664  0.00  0.00    +0.000 C 
ATOM     14  C   UNL     1      36.263 -20.756 -19.869  0.00  0.00    +0.000 C 
ATOM     15  C   UNL     1      36.731 -22.004 -17.834  0.00  0.00    +0.000 C 
ATOM     16  C   UNL     1      37.170 -21.224 -18.904  0.00  0.00    +0.000 C 
ATOM     17  C   UNL     1      33.985 -20.618 -20.713  0.00  0.00    +0.000 C 
ATOM     18  C   UNL     1      36.687 -19.970 -20.953  0.00  0.00    +0.000 C 
ATOM     19  C   UNL     1      34.425 -19.838 -21.783  0.00  0.00    +0.000 C 
ATOM     20  C   UNL     1      35.772 -19.515 -21.903  0.00  0.00    +0.000 C 
ENDBRANCH   6  11
BRANCH   4  21
ATOM     21  C   UNL     1      30.634 -23.940 -14.859  0.00  0.00    +0.001 C 
ATOM     22  C   UNL     1      30.152 -22.722 -14.379  0.00  0.00    -0.000 C 
ATOM     23  C   UNL     1      29.809 -24.759 -15.632  0.00  0.00    -0.000 C 
ATOM     24  C   UNL     1      28.024 -23.144 -15.443  0.00  0.00    -0.011 C 
ATOM     25  C   UNL     1      28.847 -22.325 -14.671  0.00  0.00    -0.004 C 
ATOM     26  C   UNL     1      28.505 -24.361 -15.924  0.00  0.00    -0.004 C 
BRANCH  24  27
ATOM     27  C   UNL     1      26.630 -22.716 -15.757  0.00  0.00    +0.136 C 
BRANCH  27  29
ATOM     28  O   UNL     1      26.303 -20.868 -17.309  0.00  0.00    -0.250 OA
ATOM     29  C   UNL     1      26.489 -22.062 -17.117  0.00  0.00    +0.318 C 
BRANCH  29  30
ATOM     30  O   UNL     1      26.595 -22.966 -18.127  0.00  0.00    -0.480 OA
ATOM     31  H   UNL     1      25.838 -23.438 -18.414  0.00  0.00    +0.295 HD
ENDBRANCH  29  30
ENDBRANCH  27  29
ENDBRANCH  24  27
ENDBRANCH   4  21
TORSDOF 5
ENDMDL
MODEL 3
REMARK VINA RESULT:     -11.7      7.587     12.206
REMARK  Name = 11952989
REMARK  5 active torsions:
REMARK  status: ('A' for Active; 'I' for Inactive)
REMARK    1  A    between atoms: C_4  and  C_21
REMARK    2  A    between atoms: C_6  and  C_11
REMARK    3  A    between atoms: C_24  and  C_27
REMARK    4  A    between atoms: C_27  and  C_29
REMARK    5  A    between atoms: C_29  and  O_30
REMARK                            x       y       z     vdW  Elec       q    Type
REMARK                         _______ _______ _______ _____ _____    ______ ____
ROOT
ATOM      1  N   UNL     1      31.957 -24.879 -14.316  0.00  0.00    -0.297 N 
ATOM      2  N   UNL     1      31.284 -23.463 -16.145  0.00  0.00    -0.229 NA
ATOM      3  C   UNL     1      33.596 -24.077 -15.604  0.00  0.00    +0.033 C 
ATOM      4  C   UNL     1      34.166 -24.886 -14.585  0.00  0.00    +0.017 C 
ATOM      5  C   UNL     1      32.218 -24.094 -15.408  0.00  0.00    +0.132 C 
ATOM      6  C   UNL     1      33.162 -22.650 -17.477  0.00  0.00    +0.019 C 
ATOM      7  C   UNL     1      34.086 -23.325 -16.683  0.00  0.00    +0.004 C 
ATOM      8  C   UNL     1      33.134 -25.366 -13.808  0.00  0.00    +0.063 C 
ATOM      9  C   UNL     1      31.813 -22.754 -17.169  0.00  0.00    +0.100 C 
ATOM     10  H   UNL     1      31.061 -25.066 -13.952  0.00  0.00    +0.154 HD
ENDROOT
BRANCH   6  11
ATOM     11  C   UNL     1      33.602 -21.857 -18.604  0.00  0.00    +0.001 C 
ATOM     12  C   UNL     1      35.408 -20.851 -19.888  0.00  0.00    +0.000 C 
ATOM     13  C   UNL     1      34.963 -21.620 -18.800  0.00  0.00    +0.000 C 
ATOM     14  C   UNL     1      34.457 -20.315 -20.790  0.00  0.00    +0.000 C 
ATOM     15  C   UNL     1      32.668 -21.330 -19.490  0.00  0.00    +0.000 C 
ATOM     16  C   UNL     1      33.091 -20.564 -20.577  0.00  0.00    +0.000 C 
ATOM     17  C   UNL     1      36.774 -20.603 -20.100  0.00  0.00    +0.000 C 
ATOM     18  C   UNL     1      34.902 -19.547 -21.878  0.00  0.00    +0.000 C 
ATOM     19  C   UNL     1      37.196 -19.836 -21.187  0.00  0.00    +0.000 C 
ATOM     20  C   UNL     1      36.263 -19.309 -22.074  0.00  0.00    +0.000 C 
ENDBRANCH   6  11
BRANCH   4  21
ATOM     21  C   UNL     1      35.539 -25.207 -14.323  0.00  0.00    +0.001 C 
ATOM     22  C   UNL     1      36.077 -26.408 -14.787  0.00  0.00    -0.000 C 
ATOM     23  C   UNL     1      36.340 -24.318 -13.604  0.00  0.00    -0.000 C 
ATOM     24  C   UNL     1      38.212 -25.829 -13.814  0.00  0.00    -0.011 C 
ATOM     25  C   UNL     1      37.413 -26.718 -14.532  0.00  0.00    -0.004 C 
ATOM     26  C   UNL     1      37.675 -24.629 -13.349  0.00  0.00    -0.004 C 
BRANCH  24  27
ATOM     27  C   UNL     1      39.641 -26.162 -13.544  0.00  0.00    +0.136 C 
BRANCH  27  29
ATOM     28  O   UNL     1      41.314 -24.675 -14.504  0.00  0.00    -0.250 OA
ATOM     29  C   UNL     1      40.591 -25.657 -14.612  0.00  0.00    +0.318 C 
BRANCH  29  30
ATOM     30  O   UNL     1      40.554 -26.429 -15.730  0.00  0.00    -0.480 OA
ATOM     31  H   UNL     1      41.350 -26.648 -16.174  0.00  0.00    +0.295 HD
ENDBRANCH  29  30
ENDBRANCH  27  29
ENDBRANCH  24  27
ENDBRANCH   4  21
TORSDOF 5
ENDMDL
MODEL 4
REMARK VINA RESULT:     -11.1      1.065      1.731
REMARK  Name = 11952989
REMARK  5 active torsions:
REMARK  status: ('A' for Active; 'I' for Inactive)
REMARK    1  A    between atoms: C_4  and  C_21
REMARK    2  A    between atoms: C_6  and  C_11
REMARK    3  A    between atoms: C_24  and  C_27
REMARK    4  A    between atoms: C_27  and  C_29
REMARK    5  A    between atoms: C_29  and  O_30
REMARK                            x       y       z     vdW  Elec       q    Type
REMARK                         _______ _______ _______ _____ _____    ______ ____
ROOT
ATOM      1  N   UNL     1      34.782 -16.283 -24.840  0.00  0.00    -0.297 N 
ATOM      2  N   UNL     1      35.507 -18.490 -24.201  0.00  0.00    -0.229 NA
ATOM      3  C   UNL     1      34.421 -16.868 -22.716  0.00  0.00    +0.033 C 
ATOM      4  C   UNL     1      33.935 -15.549 -22.918  0.00  0.00    +0.017 C 
ATOM      5  C   UNL     1      34.942 -17.298 -23.933  0.00  0.00    +0.132 C 
ATOM      6  C   UNL     1      35.058 -19.011 -21.858  0.00  0.00    +0.019 C 
ATOM      7  C   UNL     1      34.481 -17.763 -21.636  0.00  0.00    +0.004 C 
ATOM      8  C   UNL     1      34.171 -15.216 -24.235  0.00  0.00    +0.063 C 
ATOM      9  C   UNL     1      35.539 -19.311 -23.125  0.00  0.00    +0.100 C 
ATOM     10  H   UNL     1      35.063 -16.316 -25.784  0.00  0.00    +0.154 HD
ENDROOT
BRANCH   6  11
ATOM     11  C   UNL     1      35.152 -19.979 -20.787  0.00  0.00    +0.001 C 
ATOM     12  C   UNL     1      34.065 -21.490 -19.220  0.00  0.00    +0.000 C 
ATOM     13  C   UNL     1      33.992 -20.549 -20.260  0.00  0.00    +0.000 C 
ATOM     14  C   UNL     1      35.333 -21.856 -18.706  0.00  0.00    +0.000 C 
ATOM     15  C   UNL     1      36.397 -20.339 -20.282  0.00  0.00    +0.000 C 
ATOM     16  C   UNL     1      36.489 -21.272 -19.249  0.00  0.00    +0.000 C 
ATOM     17  C   UNL     1      32.909 -22.074 -18.677  0.00  0.00    +0.000 C 
ATOM     18  C   UNL     1      35.406 -22.797 -17.666  0.00  0.00    +0.000 C 
ATOM     19  C   UNL     1      33.002 -23.007 -17.643  0.00  0.00    +0.000 C 
ATOM     20  C   UNL     1      34.247 -23.368 -17.138  0.00  0.00    +0.000 C 
ENDBRANCH   6  11
BRANCH   4  21
ATOM     21  C   UNL     1      33.304 -14.647 -21.998  0.00  0.00    +0.001 C 
ATOM     22  C   UNL     1      32.950 -13.362 -22.411  0.00  0.00    -0.000 C 
ATOM     23  C   UNL     1      33.044 -15.054 -20.689  0.00  0.00    -0.000 C 
ATOM     24  C   UNL     1      32.076 -12.894 -20.207  0.00  0.00    -0.011 C 
ATOM     25  C   UNL     1      32.336 -12.487 -21.516  0.00  0.00    -0.004 C 
ATOM     26  C   UNL     1      32.431 -14.178 -19.794  0.00  0.00    -0.004 C 
BRANCH  24  27
ATOM     27  C   UNL     1      31.418 -11.957 -19.252  0.00  0.00    +0.136 C 
BRANCH  27  29
ATOM     28  O   UNL     1      32.681  -9.991 -18.567  0.00  0.00    -0.250 OA
ATOM     29  C   UNL     1      31.921 -10.532 -19.359  0.00  0.00    +0.318 C 
BRANCH  29  30
ATOM     30  O   UNL     1      31.427  -9.901 -20.458  0.00  0.00    -0.480 OA
ATOM     31  H   UNL     1      31.987  -9.356 -20.976  0.00  0.00    +0.295 HD
ENDBRANCH  29  30
ENDBRANCH  27  29
ENDBRANCH  24  27
ENDBRANCH   4  21
TORSDOF 5
ENDMDL
MODEL 5
REMARK VINA RESULT:     -11.0      6.714     10.456
REMARK  Name = 11952989
REMARK  5 active torsions:
REMARK  status: ('A' for Active; 'I' for Inactive)
REMARK    1  A    between atoms: C_4  and  C_21
REMARK    2  A    between atoms: C_6  and  C_11
REMARK    3  A    between atoms: C_24  and  C_27
REMARK    4  A    between atoms: C_27  and  C_29
REMARK    5  A    between atoms: C_29  and  O_30
REMARK                            x       y       z     vdW  Elec       q    Type
REMARK                         _______ _______ _______ _____ _____    ______ ____
ROOT
ATOM      1  N   UNL     1      36.244 -24.404 -14.219  0.00  0.00    -0.297 N 
ATOM      2  N   UNL     1      37.633 -23.273 -15.829  0.00  0.00    -0.229 NA
ATOM      3  C   UNL     1      35.181 -23.261 -15.815  0.00  0.00    +0.033 C 
ATOM      4  C   UNL     1      34.217 -23.860 -14.960  0.00  0.00    +0.017 C 
ATOM      5  C   UNL     1      36.433 -23.620 -15.326  0.00  0.00    +0.132 C 
ATOM      6  C   UNL     1      36.357 -22.060 -17.521  0.00  0.00    +0.019 C 
ATOM      7  C   UNL     1      35.142 -22.448 -16.959  0.00  0.00    +0.004 C 
ATOM      8  C   UNL     1      34.901 -24.557 -13.987  0.00  0.00    +0.063 C 
ATOM      9  C   UNL     1      37.536 -22.490 -16.929  0.00  0.00    +0.100 C 
ATOM     10  H   UNL     1      36.962 -24.799 -13.672  0.00  0.00    +0.154 HD
ENDROOT
BRANCH   6  11
ATOM     11  C   UNL     1      36.387 -21.223 -18.700  0.00  0.00    +0.001 C 
ATOM     12  C   UNL     1      35.314 -20.410 -20.727  0.00  0.00    +0.000 C 
ATOM     13  C   UNL     1      35.301 -21.216 -19.577  0.00  0.00    +0.000 C 
ATOM     14  C   UNL     1      36.444 -19.598 -20.991  0.00  0.00    +0.000 C 
ATOM     15  C   UNL     1      37.497 -20.426 -18.959  0.00  0.00    +0.000 C 
ATOM     16  C   UNL     1      37.527 -19.618 -20.096  0.00  0.00    +0.000 C 
ATOM     17  C   UNL     1      34.231 -20.390 -21.621  0.00  0.00    +0.000 C 
ATOM     18  C   UNL     1      36.457 -18.792 -22.140  0.00  0.00    +0.000 C 
ATOM     19  C   UNL     1      34.262 -19.583 -22.758  0.00  0.00    +0.000 C 
ATOM     20  C   UNL     1      35.372 -18.785 -23.018  0.00  0.00    +0.000 C 
ENDBRANCH   6  11
BRANCH   4  21
ATOM     21  C   UNL     1      32.785 -23.812 -15.009  0.00  0.00    +0.001 C 
ATOM     22  C   UNL     1      32.037 -24.067 -13.858  0.00  0.00    -0.000 C 
ATOM     23  C   UNL     1      32.136 -23.512 -16.208  0.00  0.00    -0.000 C 
ATOM     24  C   UNL     1      29.997 -23.719 -15.105  0.00  0.00    -0.011 C 
ATOM     25  C   UNL     1      30.645 -24.020 -13.907  0.00  0.00    -0.004 C 
ATOM     26  C   UNL     1      30.743 -23.465 -16.256  0.00  0.00    -0.004 C 
BRANCH  24  27
ATOM     27  C   UNL     1      28.507 -23.668 -15.155  0.00  0.00    +0.136 C 
BRANCH  27  29
ATOM     28  O   UNL     1      27.665 -24.231 -17.370  0.00  0.00    -0.250 OA
ATOM     29  C   UNL     1      27.958 -23.381 -16.539  0.00  0.00    +0.318 C 
BRANCH  29  30
ATOM     30  O   UNL     1      27.822 -22.048 -16.764  0.00  0.00    -0.480 OA
ATOM     31  H   UNL     1      27.209 -21.741 -17.403  0.00  0.00    +0.295 HD
ENDBRANCH  29  30
ENDBRANCH  27  29
ENDBRANCH  24  27
ENDBRANCH   4  21
TORSDOF 5
ENDMDL
MODEL 6
REMARK VINA RESULT:     -10.8      5.604     11.479
REMARK  Name = 11952989
REMARK  5 active torsions:
REMARK  status: ('A' for Active; 'I' for Inactive)
REMARK    1  A    between atoms: C_4  and  C_21
REMARK    2  A    between atoms: C_6  and  C_11
REMARK    3  A    between atoms: C_24  and  C_27
REMARK    4  A    between atoms: C_27  and  C_29
REMARK    5  A    between atoms: C_29  and  O_30
REMARK                            x       y       z     vdW  Elec       q    Type
REMARK                         _______ _______ _______ _____ _____    ______ ____
ROOT
ATOM      1  N   UNL     1      31.740 -10.608 -19.209  0.00  0.00    -0.297 N 
ATOM      2  N   UNL     1      31.642  -8.235 -19.613  0.00  0.00    -0.229 NA
ATOM      3  C   UNL     1      32.260  -9.931 -21.272  0.00  0.00    +0.033 C 
ATOM      4  C   UNL     1      32.368 -11.347 -21.212  0.00  0.00    +0.017 C 
ATOM      5  C   UNL     1      31.866  -9.503 -20.008  0.00  0.00    +0.132 C 
ATOM      6  C   UNL     1      32.231  -7.621 -21.901  0.00  0.00    +0.019 C 
ATOM      7  C   UNL     1      32.449  -8.950 -22.258  0.00  0.00    +0.004 C 
ATOM      8  C   UNL     1      32.042 -11.734 -19.930  0.00  0.00    +0.063 C 
ATOM      9  C   UNL     1      31.839  -7.332 -20.601  0.00  0.00    +0.100 C 
ATOM     10  H   UNL     1      31.472 -10.597 -18.261  0.00  0.00    +0.154 HD
ENDROOT
BRANCH   6  11
ATOM     11  C   UNL     1      32.409  -6.561 -22.869  0.00  0.00    +0.001 C 
ATOM     12  C   UNL     1      33.672  -5.584 -24.705  0.00  0.00    +0.000 C 
ATOM     13  C   UNL     1      33.483  -6.604 -23.759  0.00  0.00    +0.000 C 
ATOM     14  C   UNL     1      32.757  -4.504 -24.749  0.00  0.00    +0.000 C 
ATOM     15  C   UNL     1      31.510  -5.500 -22.913  0.00  0.00    +0.000 C 
ATOM     16  C   UNL     1      31.681  -4.478 -23.846  0.00  0.00    +0.000 C 
ATOM     17  C   UNL     1      34.747  -5.610 -25.608  0.00  0.00    +0.000 C 
ATOM     18  C   UNL     1      32.945  -3.483 -25.695  0.00  0.00    +0.000 C 
ATOM     19  C   UNL     1      34.918  -4.587 -26.541  0.00  0.00    +0.000 C 
ATOM     20  C   UNL     1      34.019  -3.525 -26.585  0.00  0.00    +0.000 C 
ENDBRANCH   6  11
BRANCH   4  21
ATOM     21  C   UNL     1      32.739 -12.287 -22.229  0.00  0.00    +0.001 C 
ATOM     22  C   UNL     1      32.355 -13.624 -22.118  0.00  0.00    -0.000 C 
ATOM     23  C   UNL     1      33.484 -11.867 -23.332  0.00  0.00    -0.000 C 
ATOM     24  C   UNL     1      33.460 -14.116 -24.210  0.00  0.00    -0.011 C 
ATOM     25  C   UNL     1      32.715 -14.538 -23.108  0.00  0.00    -0.004 C 
ATOM     26  C   UNL     1      33.845 -12.780 -24.321  0.00  0.00    -0.004 C 
BRANCH  24  27
ATOM     27  C   UNL     1      33.843 -15.095 -25.269  0.00  0.00    +0.136 C 
BRANCH  27  29
ATOM     28  O   UNL     1      34.280 -17.475 -25.001  0.00  0.00    -0.250 OA
ATOM     29  C   UNL     1      34.563 -16.315 -24.733  0.00  0.00    +0.318 C 
BRANCH  29  30
ATOM     30  O   UNL     1      35.584 -15.976 -23.901  0.00  0.00    -0.480 OA
ATOM     31  H   UNL     1      36.253 -15.390 -24.196  0.00  0.00    +0.295 HD
ENDBRANCH  29  30
ENDBRANCH  27  29
ENDBRANCH  24  27
ENDBRANCH   4  21
TORSDOF 5
ENDMDL
MODEL 7
REMARK VINA RESULT:     -10.6      3.919      8.852
REMARK  Name = 11952989
REMARK  5 active torsions:
REMARK  status: ('A' for Active; 'I' for Inactive)
REMARK    1  A    between atoms: C_4  and  C_21
REMARK    2  A    between atoms: C_6  and  C_11
REMARK    3  A    between atoms: C_24  and  C_27
REMARK    4  A    between atoms: C_27  and  C_29
REMARK    5  A    between atoms: C_29  and  O_30
REMARK                            x       y       z     vdW  Elec       q    Type
REMARK                         _______ _______ _______ _____ _____    ______ ____
ROOT
ATOM      1  N   UNL     1      36.321 -19.035 -23.299  0.00  0.00    -0.297 N 
ATOM      2  N   UNL     1      35.731 -16.706 -23.472  0.00  0.00    -0.229 NA
ATOM      3  C   UNL     1      34.893 -18.257 -21.769  0.00  0.00    +0.033 C 
ATOM      4  C   UNL     1      35.129 -19.636 -21.518  0.00  0.00    +0.017 C 
ATOM      5  C   UNL     1      35.651 -17.914 -22.884  0.00  0.00    +0.132 C 
ATOM      6  C   UNL     1      34.166 -15.976 -21.746  0.00  0.00    +0.019 C 
ATOM      7  C   UNL     1      34.120 -17.246 -21.176  0.00  0.00    +0.004 C 
ATOM      8  C   UNL     1      36.012 -20.087 -22.476  0.00  0.00    +0.063 C 
ATOM      9  C   UNL     1      34.967 -15.771 -22.861  0.00  0.00    +0.100 C 
ATOM     10  H   UNL     1      36.933 -19.078 -24.070  0.00  0.00    +0.154 HD
ENDROOT
BRANCH   6  11
ATOM     11  C   UNL     1      33.393 -14.890 -21.185  0.00  0.00    +0.001 C 
ATOM     12  C   UNL     1      32.508 -12.630 -21.361  0.00  0.00    +0.000 C 
ATOM     13  C   UNL     1      33.255 -13.695 -21.892  0.00  0.00    +0.000 C 
ATOM     14  C   UNL     1      31.892 -12.781 -20.095  0.00  0.00    +0.000 C 
ATOM     15  C   UNL     1      32.788 -15.038 -19.940  0.00  0.00    +0.000 C 
ATOM     16  C   UNL     1      32.042 -13.991 -19.398  0.00  0.00    +0.000 C 
ATOM     17  C   UNL     1      32.358 -11.420 -22.058  0.00  0.00    +0.000 C 
ATOM     18  C   UNL     1      31.145 -11.716 -19.564  0.00  0.00    +0.000 C 
ATOM     19  C   UNL     1      31.613 -10.374 -21.514  0.00  0.00    +0.000 C 
ATOM     20  C   UNL     1      31.007 -10.521 -20.271  0.00  0.00    +0.000 C 
ENDBRANCH   6  11
BRANCH   4  21
ATOM     21  C   UNL     1      34.601 -20.491 -20.495  0.00  0.00    +0.001 C 
ATOM     22  C   UNL     1      33.228 -20.517 -20.246  0.00  0.00    -0.000 C 
ATOM     23  C   UNL     1      35.459 -21.299 -19.748  0.00  0.00    -0.000 C 
ATOM     24  C   UNL     1      33.574 -22.155 -18.505  0.00  0.00    -0.011 C 
ATOM     25  C   UNL     1      32.715 -21.348 -19.251  0.00  0.00    -0.004 C 
ATOM     26  C   UNL     1      34.946 -22.130 -18.753  0.00  0.00    -0.004 C 
BRANCH  24  27
ATOM     27  C   UNL     1      33.023 -23.047 -17.443  0.00  0.00    +0.136 C 
BRANCH  27  29
ATOM     28  O   UNL     1      34.444 -22.747 -15.488  0.00  0.00    -0.250 OA
ATOM     29  C   UNL     1      34.049 -23.455 -16.405  0.00  0.00    +0.318 C 
BRANCH  29  30
ATOM     30  O   UNL     1      34.496 -24.723 -16.605  0.00  0.00    -0.480 OA
ATOM     31  H   UNL     1      34.880 -24.960 -17.426  0.00  0.00    +0.295 HD
ENDBRANCH  29  30
ENDBRANCH  27  29
ENDBRANCH  24  27
ENDBRANCH   4  21
TORSDOF 5
ENDMDL
MODEL 8
REMARK VINA RESULT:     -10.5      6.512     10.288
REMARK  Name = 11952989
REMARK  5 active torsions:
REMARK  status: ('A' for Active; 'I' for Inactive)
REMARK    1  A    between atoms: C_4  and  C_21
REMARK    2  A    between atoms: C_6  and  C_11
REMARK    3  A    between atoms: C_24  and  C_27
REMARK    4  A    between atoms: C_27  and  C_29
REMARK    5  A    between atoms: C_29  and  O_30
REMARK                            x       y       z     vdW  Elec       q    Type
REMARK                         _______ _______ _______ _____ _____    ______ ____
ROOT
ATOM      1  N   UNL     1      30.908 -23.399 -16.052  0.00  0.00    -0.297 N 
ATOM      2  N   UNL     1      32.066 -24.594 -14.309  0.00  0.00    -0.229 NA
ATOM      3  C   UNL     1      33.136 -23.450 -16.196  0.00  0.00    +0.033 C 
ATOM      4  C   UNL     1      32.621 -22.710 -17.294  0.00  0.00    +0.017 C 
ATOM      5  C   UNL     1      32.043 -23.865 -15.441  0.00  0.00    +0.132 C 
ATOM      6  C   UNL     1      34.492 -24.578 -14.577  0.00  0.00    +0.019 C 
ATOM      7  C   UNL     1      34.412 -23.822 -15.744  0.00  0.00    +0.004 C 
ATOM      8  C   UNL     1      31.248 -22.696 -17.178  0.00  0.00    +0.063 C 
ATOM      9  C   UNL     1      33.319 -24.924 -13.921  0.00  0.00    +0.100 C 
ATOM     10  H   UNL     1      29.989 -23.547 -15.730  0.00  0.00    +0.154 HD
ENDROOT
BRANCH   6  11
ATOM     11  C   UNL     1      35.777 -24.994 -14.058  0.00  0.00    +0.001 C 
ATOM     12  C   UNL     1      38.157 -25.371 -14.396  0.00  0.00    +0.000 C 
ATOM     13  C   UNL     1      36.902 -24.970 -14.883  0.00  0.00    +0.000 C 
ATOM     14  C   UNL     1      38.272 -25.802 -13.052  0.00  0.00    +0.000 C 
ATOM     15  C   UNL     1      35.890 -25.418 -12.737  0.00  0.00    +0.000 C 
ATOM     16  C   UNL     1      37.128 -25.820 -12.236  0.00  0.00    +0.000 C 
ATOM     17  C   UNL     1      39.300 -25.354 -15.212  0.00  0.00    +0.000 C 
ATOM     18  C   UNL     1      39.526 -26.204 -12.565  0.00  0.00    +0.000 C 
ATOM     19  C   UNL     1      40.538 -25.756 -14.709  0.00  0.00    +0.000 C 
ATOM     20  C   UNL     1      40.652 -26.180 -13.389  0.00  0.00    +0.000 C 
ENDBRANCH   6  11
BRANCH   4  21
ATOM     21  C   UNL     1      33.309 -22.062 -18.372  0.00  0.00    +0.001 C 
ATOM     22  C   UNL     1      32.611 -21.227 -19.245  0.00  0.00    -0.000 C 
ATOM     23  C   UNL     1      34.679 -22.264 -18.550  0.00  0.00    -0.000 C 
ATOM     24  C   UNL     1      34.649 -20.799 -20.470  0.00  0.00    -0.011 C 
ATOM     25  C   UNL     1      33.280 -20.596 -20.293  0.00  0.00    -0.004 C 
ATOM     26  C   UNL     1      35.348 -21.634 -19.598  0.00  0.00    -0.004 C 
BRANCH  24  27
ATOM     27  C   UNL     1      35.365 -20.122 -21.590  0.00  0.00    +0.136 C 
BRANCH  27  29
ATOM     28  O   UNL     1      37.537 -19.113 -21.151  0.00  0.00    -0.250 OA
ATOM     29  C   UNL     1      36.316 -19.036 -21.130  0.00  0.00    +0.318 C 
BRANCH  29  30
ATOM     30  O   UNL     1      35.652 -17.937 -20.682  0.00  0.00    -0.480 OA
ATOM     31  H   UNL     1      34.718 -17.954 -20.604  0.00  0.00    +0.295 HD
ENDBRANCH  29  30
ENDBRANCH  27  29
ENDBRANCH  24  27
ENDBRANCH   4  21
TORSDOF 5
ENDMDL
MODEL 9
REMARK VINA RESULT:     -10.4      5.297     11.199
REMARK  Name = 11952989
REMARK  5 active torsions:
REMARK  status: ('A' for Active; 'I' for Inactive)
REMARK    1  A    between atoms: C_4  and  C_21
REMARK    2  A    between atoms: C_6  and  C_11
REMARK    3  A    between atoms: C_24  and  C_27
REMARK    4  A    between atoms: C_27  and  C_29
REMARK    5  A    between atoms: C_29  and  O_30
REMARK                            x       y       z     vdW  Elec       q    Type
REMARK                         _______ _______ _______ _____ _____    ______ ____
ROOT
ATOM      1  N   UNL     1      31.514 -11.406 -18.658  0.00  0.00    -0.297 N 
ATOM      2  N   UNL     1      31.405  -9.044 -19.121  0.00  0.00    -0.229 NA
ATOM      3  C   UNL     1      32.195 -10.760 -20.684  0.00  0.00    +0.033 C 
ATOM      4  C   UNL     1      32.325 -12.171 -20.584  0.00  0.00    +0.017 C 
ATOM      5  C   UNL     1      31.686 -10.314 -19.468  0.00  0.00    +0.132 C 
ATOM      6  C   UNL     1      32.175  -8.464 -21.363  0.00  0.00    +0.019 C 
ATOM      7  C   UNL     1      32.449  -9.795 -21.671  0.00  0.00    +0.004 C 
ATOM      8  C   UNL     1      31.898 -12.540 -19.326  0.00  0.00    +0.063 C 
ATOM      9  C   UNL     1      31.668  -8.157 -20.108  0.00  0.00    +0.100 C 
ATOM     10  H   UNL     1      31.165 -11.381 -17.737  0.00  0.00    +0.154 HD
ENDROOT
BRANCH   6  11
ATOM     11  C   UNL     1      32.415  -7.420 -22.336  0.00  0.00    +0.001 C 
ATOM     12  C   UNL     1      31.803  -5.277 -23.312  0.00  0.00    +0.000 C 
ATOM     13  C   UNL     1      31.585  -6.299 -22.374  0.00  0.00    +0.000 C 
ATOM     14  C   UNL     1      32.880  -5.394 -24.225  0.00  0.00    +0.000 C 
ATOM     15  C   UNL     1      33.473  -7.536 -23.233  0.00  0.00    +0.000 C 
ATOM     16  C   UNL     1      33.705  -6.530 -24.172  0.00  0.00    +0.000 C 
ATOM     17  C   UNL     1      30.978  -4.142 -23.365  0.00  0.00    +0.000 C 
ATOM     18  C   UNL     1      33.098  -4.372 -25.163  0.00  0.00    +0.000 C 
ATOM     19  C   UNL     1      31.211  -3.137 -24.304  0.00  0.00    +0.000 C 
ATOM     20  C   UNL     1      32.268  -3.251 -25.201  0.00  0.00    +0.000 C 
ENDBRANCH   6  11
BRANCH   4  21
ATOM     21  C   UNL     1      32.800 -13.124 -21.545  0.00  0.00    +0.001 C 
ATOM     22  C   UNL     1      33.254 -14.374 -21.124  0.00  0.00    -0.000 C 
ATOM     23  C   UNL     1      32.808 -12.802 -22.903  0.00  0.00    -0.000 C 
ATOM     24  C   UNL     1      33.722 -14.978 -23.416  0.00  0.00    -0.011 C 
ATOM     25  C   UNL     1      33.715 -15.300 -22.059  0.00  0.00    -0.004 C 
ATOM     26  C   UNL     1      33.268 -13.728 -23.838  0.00  0.00    -0.004 C 
BRANCH  24  27
ATOM     27  C   UNL     1      34.213 -15.971 -24.416  0.00  0.00    +0.136 C 
BRANCH  27  29
ATOM     28  O   UNL     1      34.024 -14.992 -26.638  0.00  0.00    -0.250 OA
ATOM     29  C   UNL     1      33.617 -15.783 -25.796  0.00  0.00    +0.318 C 
BRANCH  29  30
ATOM     30  O   UNL     1      32.557 -16.607 -26.007  0.00  0.00    -0.480 OA
ATOM     31  H   UNL     1      32.645 -17.530 -25.864  0.00  0.00    +0.295 HD
ENDBRANCH  29  30
ENDBRANCH  27  29
ENDBRANCH  24  27
ENDBRANCH   4  21
TORSDOF 5
ENDMDL
