MODEL 1
REMARK VINA RESULT:     -12.1      0.000      0.000
REMARK  Name = 60870
REMARK  7 active torsions:
REMARK  status: ('A' for Active; 'I' for Inactive)
REMARK    1  A    between atoms: C_2  and  C_4
REMARK    2  A    between atoms: C_2  and  C_18
REMARK    3  A    between atoms: C_3  and  C_9
REMARK    4  A    between atoms: C_9  and  C_14
REMARK    5  A    between atoms: C_18  and  C_19
REMARK    6  A    between atoms: C_19  and  C_22
REMARK    7  A    between atoms: C_24  and  C_26
REMARK                            x       y       z     vdW  Elec       q    Type
REMARK                         _______ _______ _______ _____ _____    ______ ____
ROOT
ATOM      1  O   UNL     1      35.078 -19.785 -22.664  0.00  0.00    -0.291 OA
ATOM      2  C   UNL     1      34.913 -19.503 -21.459  0.00  0.00    +0.173 C 
ENDROOT
BRANCH   2   4
ATOM      3  C   UNL     1      33.928 -22.508 -18.653  0.00  0.00    -0.021 C 
ATOM      4  C   UNL     1      34.574 -20.536 -20.493  0.00  0.00    +0.035 C 
ATOM      5  C   UNL     1      35.257 -22.293 -18.982  0.00  0.00    -0.004 C 
ATOM      6  C   UNL     1      32.915 -21.754 -19.227  0.00  0.00    -0.004 C 
ATOM      7  C   UNL     1      35.583 -21.301 -19.907  0.00  0.00    +0.003 C 
ATOM      8  C   UNL     1      33.241 -20.762 -20.153  0.00  0.00    +0.003 C 
BRANCH   3   9
ATOM      9  C   UNL     1      33.576 -23.579 -17.652  0.00  0.00    +0.047 C 
BRANCH   9  14
ATOM     10  S   UNL     1      34.210 -23.699 -14.974  0.00  0.00    -0.048 S 
ATOM     11  O   UNL     1      30.799 -23.034 -16.653  0.00  0.00    -0.274 OA
ATOM     12  O   UNL     1      32.936 -24.849 -12.983  0.00  0.00    -0.263 OA
ATOM     13  N   UNL     1      31.682 -23.981 -14.737  0.00  0.00    -0.246 N 
ATOM     14  C   UNL     1      33.191 -22.993 -16.305  0.00  0.00    +0.137 C 
ATOM     15  C   UNL     1      31.759 -23.324 -15.948  0.00  0.00    +0.239 C 
ATOM     16  C   UNL     1      32.835 -24.275 -14.056  0.00  0.00    +0.279 C 
ATOM     17  H   UNL     1      30.808 -24.237 -14.366  0.00  0.00    +0.158 HD
ENDBRANCH   9  14
ENDBRANCH   3   9
ENDBRANCH   2   4
BRANCH   2  18
ATOM     18  C   UNL     1      35.074 -18.042 -20.999  0.00  0.00    +0.076 C 
BRANCH  18  19
ATOM     19  C   UNL     1      35.573 -17.105 -22.103  0.00  0.00    +0.066 C 
BRANCH  19  22
ATOM     20  O   UNL     1      33.293 -14.505 -23.275  0.00  0.00    -0.449 OA
ATOM     21  N   UNL     1      34.201 -15.201 -21.323  0.00  0.00    -0.373 NA
ATOM     22  C   UNL     1      34.626 -15.970 -22.357  0.00  0.00    +0.130 C 
ATOM     23  C   UNL     1      34.096 -15.574 -23.538  0.00  0.00    +0.216 C 
ATOM     24  C   UNL     1      33.410 -14.343 -21.929  0.00  0.00    +0.277 C 
ATOM     25  C   UNL     1      34.189 -16.010 -24.936  0.00  0.00    +0.055 C 
BRANCH  24  26
ATOM     26  C   UNL     1      32.648 -13.259 -21.375  0.00  0.00    +0.066 C 
ATOM     27  C   UNL     1      32.230 -13.300 -20.042  0.00  0.00    +0.006 C 
ATOM     28  C   UNL     1      32.317 -12.155 -22.168  0.00  0.00    +0.006 C 
ATOM     29  C   UNL     1      31.488 -12.248 -19.505  0.00  0.00    +0.000 C 
ATOM     30  C   UNL     1      31.575 -11.103 -21.631  0.00  0.00    +0.000 C 
ATOM     31  C   UNL     1      31.161 -11.149 -20.299  0.00  0.00    +0.000 C 
ENDBRANCH  24  26
ENDBRANCH  19  22
ENDBRANCH  18  19
ENDBRANCH   2  18
TORSDOF 7
ENDMDL
MODEL 2
REMARK VINA RESULT:     -11.7      4.881     11.649
REMARK  Name = 60870
REMARK  7 active torsions:
REMARK  status: ('A' for Active; 'I' for Inactive)
REMARK    1  A    between atoms: C_2  and  C_4
REMARK    2  A    between atoms: C_2  and  C_18
REMARK    3  A    between atoms: C_3  and  C_9
REMARK    4  A    between atoms: C_9  and  C_14
REMARK    5  A    between atoms: C_18  and  C_19
REMARK    6  A    between atoms: C_19  and  C_22
REMARK    7  A    between atoms: C_24  and  C_26
REMARK                            x       y       z     vdW  Elec       q    Type
REMARK                         _______ _______ _______ _____ _____    ______ ____
ROOT
ATOM      1  O   UNL     1      33.302 -14.831 -24.554  0.00  0.00    -0.291 OA
ATOM      2  C   UNL     1      33.523 -14.316 -23.439  0.00  0.00    +0.173 C 
ENDROOT
BRANCH   2   4
ATOM      3  C   UNL     1      33.223 -10.135 -22.885  0.00  0.00    -0.021 C 
ATOM      4  C   UNL     1      33.419 -12.878 -23.249  0.00  0.00    +0.035 C 
ATOM      5  C   UNL     1      34.073 -10.634 -23.861  0.00  0.00    -0.004 C 
ATOM      6  C   UNL     1      32.469 -10.984 -22.088  0.00  0.00    -0.004 C 
ATOM      7  C   UNL     1      34.171 -12.014 -24.044  0.00  0.00    +0.003 C 
ATOM      8  C   UNL     1      32.568 -12.364 -22.271  0.00  0.00    +0.003 C 
BRANCH   3   9
ATOM      9  C   UNL     1      33.116  -8.645 -22.688  0.00  0.00    +0.047 C 
BRANCH   9  14
ATOM     10  S   UNL     1      30.762  -7.232 -22.908  0.00  0.00    -0.048 S 
ATOM     11  O   UNL     1      32.990  -7.806 -19.809  0.00  0.00    -0.274 OA
ATOM     12  O   UNL     1      30.094  -4.890 -21.918  0.00  0.00    -0.263 OA
ATOM     13  N   UNL     1      31.557  -6.224 -20.700  0.00  0.00    -0.246 N 
ATOM     14  C   UNL     1      31.873  -8.264 -21.903  0.00  0.00    +0.137 C 
ATOM     15  C   UNL     1      32.219  -7.434 -20.688  0.00  0.00    +0.239 C 
ATOM     16  C   UNL     1      30.743  -5.913 -21.757  0.00  0.00    +0.279 C 
ATOM     17  H   UNL     1      31.668  -5.590 -19.956  0.00  0.00    +0.158 HD
ENDBRANCH   9  14
ENDBRANCH   3   9
ENDBRANCH   2   4
BRANCH   2  18
ATOM     18  C   UNL     1      33.907 -15.223 -22.254  0.00  0.00    +0.076 C 
BRANCH  18  19
ATOM     19  C   UNL     1      35.184 -16.034 -22.494  0.00  0.00    +0.066 C 
BRANCH  19  22
ATOM     20  O   UNL     1      34.575 -19.632 -22.603  0.00  0.00    -0.449 OA
ATOM     21  N   UNL     1      35.054 -18.047 -21.063  0.00  0.00    -0.373 NA
ATOM     22  C   UNL     1      34.967 -17.506 -22.304  0.00  0.00    +0.130 C 
ATOM     23  C   UNL     1      34.681 -18.435 -23.245  0.00  0.00    +0.216 C 
ATOM     24  C   UNL     1      34.810 -19.316 -21.301  0.00  0.00    +0.277 C 
ATOM     25  C   UNL     1      34.476 -18.438 -24.698  0.00  0.00    +0.055 C 
BRANCH  24  26
ATOM     26  C   UNL     1      34.758 -20.421 -20.384  0.00  0.00    +0.066 C 
ATOM     27  C   UNL     1      33.527 -20.921 -19.952  0.00  0.00    +0.006 C 
ATOM     28  C   UNL     1      35.941 -21.002 -19.916  0.00  0.00    +0.006 C 
ATOM     29  C   UNL     1      33.477 -21.993 -19.061  0.00  0.00    +0.000 C 
ATOM     30  C   UNL     1      35.891 -22.074 -19.025  0.00  0.00    +0.000 C 
ATOM     31  C   UNL     1      34.659 -22.569 -18.597  0.00  0.00    +0.000 C 
ENDBRANCH  24  26
ENDBRANCH  19  22
ENDBRANCH  18  19
ENDBRANCH   2  18
TORSDOF 7
ENDMDL
MODEL 3
REMARK VINA RESULT:     -11.6      3.597     11.195
REMARK  Name = 60870
REMARK  7 active torsions:
REMARK  status: ('A' for Active; 'I' for Inactive)
REMARK    1  A    between atoms: C_2  and  C_4
REMARK    2  A    between atoms: C_2  and  C_18
REMARK    3  A    between atoms: C_3  and  C_9
REMARK    4  A    between atoms: C_9  and  C_14
REMARK    5  A    between atoms: C_18  and  C_19
REMARK    6  A    between atoms: C_19  and  C_22
REMARK    7  A    between atoms: C_24  and  C_26
REMARK                            x       y       z     vdW  Elec       q    Type
REMARK                         _______ _______ _______ _____ _____    ______ ____
ROOT
ATOM      1  O   UNL     1      33.522 -24.430 -18.149  0.00  0.00    -0.291 OA
ATOM      2  C   UNL     1      33.353 -23.208 -17.962  0.00  0.00    +0.173 C 
ENDROOT
BRANCH   2   4
ATOM      3  C   UNL     1      35.062 -20.365 -20.584  0.00  0.00    -0.021 C 
ATOM      4  C   UNL     1      33.941 -22.229 -18.864  0.00  0.00    +0.035 C 
ATOM      5  C   UNL     1      33.683 -20.423 -20.447  0.00  0.00    -0.004 C 
ATOM      6  C   UNL     1      35.890 -21.222 -19.875  0.00  0.00    -0.004 C 
ATOM      7  C   UNL     1      33.119 -21.361 -19.582  0.00  0.00    +0.003 C 
ATOM      8  C   UNL     1      35.326 -22.160 -19.009  0.00  0.00    +0.003 C 
BRANCH   3   9
ATOM      9  C   UNL     1      35.672 -19.351 -21.518  0.00  0.00    +0.047 C 
BRANCH   9  14
ATOM     10  S   UNL     1      34.637 -18.736 -23.996  0.00  0.00    -0.048 S 
ATOM     11  O   UNL     1      34.972 -16.508 -20.863  0.00  0.00    -0.274 OA
ATOM     12  O   UNL     1      34.962 -16.591 -25.480  0.00  0.00    -0.263 OA
ATOM     13  N   UNL     1      34.983 -16.344 -23.169  0.00  0.00    -0.246 N 
ATOM     14  C   UNL     1      34.615 -18.494 -22.193  0.00  0.00    +0.137 C 
ATOM     15  C   UNL     1      34.876 -17.020 -21.972  0.00  0.00    +0.239 C 
ATOM     16  C   UNL     1      34.886 -17.039 -24.346  0.00  0.00    +0.279 C 
ATOM     17  H   UNL     1      35.128 -15.371 -23.178  0.00  0.00    +0.158 HD
ENDBRANCH   9  14
ENDBRANCH   3   9
ENDBRANCH   2   4
BRANCH   2  18
ATOM     18  C   UNL     1      32.508 -22.739 -16.762  0.00  0.00    +0.076 C 
BRANCH  18  19
ATOM     19  C   UNL     1      31.855 -23.888 -15.989  0.00  0.00    +0.066 C 
BRANCH  19  22
ATOM     20  O   UNL     1      33.215 -24.940 -12.768  0.00  0.00    -0.449 OA
ATOM     21  N   UNL     1      33.965 -24.050 -14.708  0.00  0.00    -0.373 NA
ATOM     22  C   UNL     1      32.624 -24.251 -14.753  0.00  0.00    +0.130 C 
ATOM     23  C   UNL     1      32.150 -24.783 -13.602  0.00  0.00    +0.216 C 
ATOM     24  C   UNL     1      34.264 -24.477 -13.501  0.00  0.00    +0.277 C 
ATOM     25  C   UNL     1      30.838 -25.200 -13.094  0.00  0.00    +0.055 C 
BRANCH  24  26
ATOM     26  C   UNL     1      35.540 -24.529 -12.844  0.00  0.00    +0.066 C 
ATOM     27  C   UNL     1      35.736 -23.863 -11.631  0.00  0.00    +0.006 C 
ATOM     28  C   UNL     1      36.597 -25.246 -13.416  0.00  0.00    +0.006 C 
ATOM     29  C   UNL     1      36.976 -23.913 -10.994  0.00  0.00    +0.000 C 
ATOM     30  C   UNL     1      37.837 -25.295 -12.779  0.00  0.00    +0.000 C 
ATOM     31  C   UNL     1      38.026 -24.628 -11.568  0.00  0.00    +0.000 C 
ENDBRANCH  24  26
ENDBRANCH  19  22
ENDBRANCH  18  19
ENDBRANCH   2  18
TORSDOF 7
ENDMDL
MODEL 4
REMARK VINA RESULT:     -11.4      1.707      2.934
REMARK  Name = 60870
REMARK  7 active torsions:
REMARK  status: ('A' for Active; 'I' for Inactive)
REMARK    1  A    between atoms: C_2  and  C_4
REMARK    2  A    between atoms: C_2  and  C_18
REMARK    3  A    between atoms: C_3  and  C_9
REMARK    4  A    between atoms: C_9  and  C_14
REMARK    5  A    between atoms: C_18  and  C_19
REMARK    6  A    between atoms: C_19  and  C_22
REMARK    7  A    between atoms: C_24  and  C_26
REMARK                            x       y       z     vdW  Elec       q    Type
REMARK                         _______ _______ _______ _____ _____    ______ ____
ROOT
ATOM      1  O   UNL     1      37.440 -19.568 -21.021  0.00  0.00    -0.291 OA
ATOM      2  C   UNL     1      36.197 -19.566 -20.911  0.00  0.00    +0.173 C 
ENDROOT
BRANCH   2   4
ATOM      3  C   UNL     1      34.225 -22.526 -18.624  0.00  0.00    -0.021 C 
ATOM      4  C   UNL     1      35.519 -20.585 -20.124  0.00  0.00    +0.035 C 
ATOM      5  C   UNL     1      33.481 -21.690 -19.443  0.00  0.00    -0.004 C 
ATOM      6  C   UNL     1      35.605 -22.409 -18.543  0.00  0.00    -0.004 C 
ATOM      7  C   UNL     1      34.132 -20.713 -20.198  0.00  0.00    +0.003 C 
ATOM      8  C   UNL     1      36.256 -21.433 -19.298  0.00  0.00    +0.003 C 
BRANCH   3   9
ATOM      9  C   UNL     1      33.523 -23.582 -17.809  0.00  0.00    +0.047 C 
BRANCH   9  14
ATOM     10  S   UNL     1      34.084 -23.975 -15.141  0.00  0.00    -0.048 S 
ATOM     11  O   UNL     1      30.777 -22.894 -16.812  0.00  0.00    -0.274 OA
ATOM     12  O   UNL     1      32.675 -25.176 -13.275  0.00  0.00    -0.263 OA
ATOM     13  N   UNL     1      31.537 -24.065 -14.969  0.00  0.00    -0.246 N 
ATOM     14  C   UNL     1      33.155 -23.079 -16.424  0.00  0.00    +0.137 C 
ATOM     15  C   UNL     1      31.694 -23.319 -16.119  0.00  0.00    +0.239 C 
ATOM     16  C   UNL     1      32.646 -24.508 -14.297  0.00  0.00    +0.279 C 
ATOM     17  H   UNL     1      30.636 -24.278 -14.635  0.00  0.00    +0.158 HD
ENDBRANCH   9  14
ENDBRANCH   3   9
ENDBRANCH   2   4
BRANCH   2  18
ATOM     18  C   UNL     1      35.379 -18.467 -21.615  0.00  0.00    +0.076 C 
BRANCH  18  19
ATOM     19  C   UNL     1      35.067 -17.267 -20.717  0.00  0.00    +0.066 C 
BRANCH  19  22
ATOM     20  O   UNL     1      33.015 -14.546 -22.028  0.00  0.00    -0.449 OA
ATOM     21  N   UNL     1      34.701 -15.880 -22.732  0.00  0.00    -0.373 NA
ATOM     22  C   UNL     1      34.350 -16.176 -21.455  0.00  0.00    +0.130 C 
ATOM     23  C   UNL     1      33.342 -15.390 -21.009  0.00  0.00    +0.216 C 
ATOM     24  C   UNL     1      33.872 -14.902 -23.023  0.00  0.00    +0.277 C 
ATOM     25  C   UNL     1      32.580 -15.256 -19.763  0.00  0.00    +0.055 C 
BRANCH  24  26
ATOM     26  C   UNL     1      33.741 -14.152 -24.241  0.00  0.00    +0.066 C 
ATOM     27  C   UNL     1      33.986 -12.776 -24.251  0.00  0.00    +0.006 C 
ATOM     28  C   UNL     1      33.364 -14.795 -25.425  0.00  0.00    +0.006 C 
ATOM     29  C   UNL     1      33.857 -12.048 -25.434  0.00  0.00    +0.000 C 
ATOM     30  C   UNL     1      33.235 -14.067 -26.608  0.00  0.00    +0.000 C 
ATOM     31  C   UNL     1      33.481 -12.693 -26.612  0.00  0.00    +0.000 C 
ENDBRANCH  24  26
ENDBRANCH  19  22
ENDBRANCH  18  19
ENDBRANCH   2  18
TORSDOF 7
ENDMDL
MODEL 5
REMARK VINA RESULT:     -11.3      2.896      5.125
REMARK  Name = 60870
REMARK  7 active torsions:
REMARK  status: ('A' for Active; 'I' for Inactive)
REMARK    1  A    between atoms: C_2  and  C_4
REMARK    2  A    between atoms: C_2  and  C_18
REMARK    3  A    between atoms: C_3  and  C_9
REMARK    4  A    between atoms: C_9  and  C_14
REMARK    5  A    between atoms: C_18  and  C_19
REMARK    6  A    between atoms: C_19  and  C_22
REMARK    7  A    between atoms: C_24  and  C_26
REMARK                            x       y       z     vdW  Elec       q    Type
REMARK                         _______ _______ _______ _____ _____    ______ ____
ROOT
ATOM      1  O   UNL     1      34.350 -15.964 -25.862  0.00  0.00    -0.291 OA
ATOM      2  C   UNL     1      34.085 -15.732 -24.665  0.00  0.00    +0.173 C 
ENDROOT
BRANCH   2   4
ATOM      3  C   UNL     1      35.404 -18.342 -21.611  0.00  0.00    -0.021 C 
ATOM      4  C   UNL     1      34.539 -16.630 -23.614  0.00  0.00    +0.035 C 
ATOM      5  C   UNL     1      35.362 -18.793 -22.922  0.00  0.00    -0.004 C 
ATOM      6  C   UNL     1      35.021 -17.049 -21.285  0.00  0.00    -0.004 C 
ATOM      7  C   UNL     1      34.928 -17.931 -23.930  0.00  0.00    +0.003 C 
ATOM      8  C   UNL     1      34.586 -16.188 -22.293  0.00  0.00    +0.003 C 
BRANCH   3   9
ATOM      9  C   UNL     1      35.874 -19.272 -20.522  0.00  0.00    +0.047 C 
BRANCH   9  14
ATOM     10  S   UNL     1      33.468 -20.600 -20.339  0.00  0.00    -0.048 S 
ATOM     11  O   UNL     1      37.025 -21.855 -19.518  0.00  0.00    -0.274 OA
ATOM     12  O   UNL     1      32.544 -22.173 -18.447  0.00  0.00    -0.263 OA
ATOM     13  N   UNL     1      34.833 -22.162 -18.848  0.00  0.00    -0.246 N 
ATOM     14  C   UNL     1      35.260 -20.654 -20.652  0.00  0.00    +0.137 C 
ATOM     15  C   UNL     1      35.828 -21.610 -19.627  0.00  0.00    +0.239 C 
ATOM     16  C   UNL     1      33.532 -21.783 -19.049  0.00  0.00    +0.279 C 
ATOM     17  H   UNL     1      35.055 -22.823 -18.154  0.00  0.00    +0.158 HD
ENDBRANCH   9  14
ENDBRANCH   3   9
ENDBRANCH   2   4
BRANCH   2  18
ATOM     18  C   UNL     1      33.268 -14.477 -24.305  0.00  0.00    +0.076 C 
BRANCH  18  19
ATOM     19  C   UNL     1      34.109 -13.356 -23.688  0.00  0.00    +0.066 C 
BRANCH  19  22
ATOM     20  O   UNL     1      31.951 -11.479 -21.419  0.00  0.00    -0.449 OA
ATOM     21  N   UNL     1      33.247 -11.084 -23.231  0.00  0.00    -0.373 NA
ATOM     22  C   UNL     1      33.280 -12.396 -22.888  0.00  0.00    +0.130 C 
ATOM     23  C   UNL     1      32.512 -12.659 -21.805  0.00  0.00    +0.216 C 
ATOM     24  C   UNL     1      32.439 -10.585 -22.322  0.00  0.00    +0.277 C 
ATOM     25  C   UNL     1      32.175 -13.847 -21.013  0.00  0.00    +0.055 C 
BRANCH  24  26
ATOM     26  C   UNL     1      31.997  -9.230 -22.141  0.00  0.00    +0.066 C 
ATOM     27  C   UNL     1      31.278  -8.583 -23.151  0.00  0.00    +0.006 C 
ATOM     28  C   UNL     1      32.284  -8.549 -20.954  0.00  0.00    +0.006 C 
ATOM     29  C   UNL     1      30.850  -7.267 -22.976  0.00  0.00    +0.000 C 
ATOM     30  C   UNL     1      31.856  -7.233 -20.779  0.00  0.00    +0.000 C 
ATOM     31  C   UNL     1      31.139  -6.592 -21.791  0.00  0.00    +0.000 C 
ENDBRANCH  24  26
ENDBRANCH  19  22
ENDBRANCH  18  19
ENDBRANCH   2  18
TORSDOF 7
ENDMDL
MODEL 6
REMARK VINA RESULT:     -11.3      3.387      6.318
REMARK  Name = 60870
REMARK  7 active torsions:
REMARK  status: ('A' for Active; 'I' for Inactive)
REMARK    1  A    between atoms: C_2  and  C_4
REMARK    2  A    between atoms: C_2  and  C_18
REMARK    3  A    between atoms: C_3  and  C_9
REMARK    4  A    between atoms: C_9  and  C_14
REMARK    5  A    between atoms: C_18  and  C_19
REMARK    6  A    between atoms: C_19  and  C_22
REMARK    7  A    between atoms: C_24  and  C_26
REMARK                            x       y       z     vdW  Elec       q    Type
REMARK                         _______ _______ _______ _____ _____    ______ ____
ROOT
ATOM      1  O   UNL     1      32.479 -23.795 -16.861  0.00  0.00    -0.291 OA
ATOM      2  C   UNL     1      33.691 -23.524 -16.979  0.00  0.00    +0.173 C 
ENDROOT
BRANCH   2   4
ATOM      3  C   UNL     1      36.254 -23.574 -13.616  0.00  0.00    -0.021 C 
ATOM      4  C   UNL     1      34.574 -23.542 -15.822  0.00  0.00    +0.035 C 
ATOM      5  C   UNL     1      34.971 -24.087 -13.502  0.00  0.00    -0.004 C 
ATOM      6  C   UNL     1      36.712 -23.047 -14.814  0.00  0.00    -0.004 C 
ATOM      7  C   UNL     1      34.125 -24.071 -14.612  0.00  0.00    +0.003 C 
ATOM      8  C   UNL     1      35.867 -23.031 -15.924  0.00  0.00    +0.003 C 
BRANCH   3   9
ATOM      9  C   UNL     1      37.168 -23.593 -12.418  0.00  0.00    +0.047 C 
BRANCH   9  14
ATOM     10  S   UNL     1      38.603 -25.429 -13.886  0.00  0.00    -0.048 S 
ATOM     11  O   UNL     1      36.294 -25.995 -10.846  0.00  0.00    -0.274 OA
ATOM     12  O   UNL     1      37.903 -27.800 -14.780  0.00  0.00    -0.263 OA
ATOM     13  N   UNL     1      36.995 -27.070 -12.769  0.00  0.00    -0.246 N 
ATOM     14  C   UNL     1      37.906 -24.914 -12.287  0.00  0.00    +0.137 C 
ATOM     15  C   UNL     1      36.973 -26.028 -11.866  0.00  0.00    +0.239 C 
ATOM     16  C   UNL     1      37.777 -26.972 -13.891  0.00  0.00    +0.279 C 
ATOM     17  H   UNL     1      36.454 -27.876 -12.610  0.00  0.00    +0.158 HD
ENDBRANCH   9  14
ENDBRANCH   3   9
ENDBRANCH   2   4
BRANCH   2  18
ATOM     18  C   UNL     1      34.252 -23.170 -18.369  0.00  0.00    +0.076 C 
BRANCH  18  19
ATOM     19  C   UNL     1      33.428 -22.112 -19.109  0.00  0.00    +0.066 C 
BRANCH  19  22
ATOM     20  O   UNL     1      35.974 -19.948 -20.582  0.00  0.00    -0.449 OA
ATOM     21  N   UNL     1      33.721 -20.151 -20.588  0.00  0.00    -0.373 NA
ATOM     22  C   UNL     1      34.292 -21.109 -19.814  0.00  0.00    +0.130 C 
ATOM     23  C   UNL     1      35.642 -21.009 -19.794  0.00  0.00    +0.216 C 
ATOM     24  C   UNL     1      34.771 -19.488 -21.019  0.00  0.00    +0.277 C 
ATOM     25  C   UNL     1      36.744 -21.738 -19.158  0.00  0.00    +0.055 C 
BRANCH  24  26
ATOM     26  C   UNL     1      34.832 -18.346 -21.889  0.00  0.00    +0.066 C 
ATOM     27  C   UNL     1      34.826 -17.054 -21.357  0.00  0.00    +0.006 C 
ATOM     28  C   UNL     1      34.896 -18.522 -23.275  0.00  0.00    +0.006 C 
ATOM     29  C   UNL     1      34.884 -15.946 -22.203  0.00  0.00    +0.000 C 
ATOM     30  C   UNL     1      34.954 -17.413 -24.121  0.00  0.00    +0.000 C 
ATOM     31  C   UNL     1      34.948 -16.125 -23.584  0.00  0.00    +0.000 C 
ENDBRANCH  24  26
ENDBRANCH  19  22
ENDBRANCH  18  19
ENDBRANCH   2  18
TORSDOF 7
ENDMDL
MODEL 7
REMARK VINA RESULT:     -11.2      4.745     11.461
REMARK  Name = 60870
REMARK  7 active torsions:
REMARK  status: ('A' for Active; 'I' for Inactive)
REMARK    1  A    between atoms: C_2  and  C_4
REMARK    2  A    between atoms: C_2  and  C_18
REMARK    3  A    between atoms: C_3  and  C_9
REMARK    4  A    between atoms: C_9  and  C_14
REMARK    5  A    between atoms: C_18  and  C_19
REMARK    6  A    between atoms: C_19  and  C_22
REMARK    7  A    between atoms: C_24  and  C_26
REMARK                            x       y       z     vdW  Elec       q    Type
REMARK                         _______ _______ _______ _____ _____    ______ ____
ROOT
ATOM      1  O   UNL     1      32.227 -15.713 -20.262  0.00  0.00    -0.291 OA
ATOM      2  C   UNL     1      33.061 -14.880 -20.672  0.00  0.00    +0.173 C 
ENDROOT
BRANCH   2   4
ATOM      3  C   UNL     1      31.850 -10.996 -21.820  0.00  0.00    -0.021 C 
ATOM      4  C   UNL     1      32.645 -13.543 -21.067  0.00  0.00    +0.035 C 
ATOM      5  C   UNL     1      31.496 -11.477 -20.569  0.00  0.00    -0.004 C 
ATOM      6  C   UNL     1      32.594 -11.765 -22.701  0.00  0.00    -0.004 C 
ATOM      7  C   UNL     1      31.897 -12.759 -20.190  0.00  0.00    +0.003 C 
ATOM      8  C   UNL     1      32.994 -13.047 -22.322  0.00  0.00    +0.003 C 
BRANCH   3   9
ATOM      9  C   UNL     1      31.418  -9.610 -22.229  0.00  0.00    +0.047 C 
BRANCH   9  14
ATOM     10  S   UNL     1      31.435  -7.039 -21.243  0.00  0.00    -0.048 S 
ATOM     11  O   UNL     1      34.127  -8.888 -23.300  0.00  0.00    -0.274 OA
ATOM     12  O   UNL     1      32.195  -4.795 -22.381  0.00  0.00    -0.263 OA
ATOM     13  N   UNL     1      33.301  -6.754 -22.965  0.00  0.00    -0.246 N 
ATOM     14  C   UNL     1      32.355  -8.543 -21.693  0.00  0.00    +0.137 C 
ATOM     15  C   UNL     1      33.360  -8.113 -22.738  0.00  0.00    +0.239 C 
ATOM     16  C   UNL     1      32.376  -5.999 -22.292  0.00  0.00    +0.279 C 
ATOM     17  H   UNL     1      33.917  -6.330 -23.604  0.00  0.00    +0.158 HD
ENDBRANCH   9  14
ENDBRANCH   3   9
ENDBRANCH   2   4
BRANCH   2  18
ATOM     18  C   UNL     1      34.546 -15.281 -20.756  0.00  0.00    +0.076 C 
BRANCH  18  19
ATOM     19  C   UNL     1      34.921 -15.961 -22.076  0.00  0.00    +0.066 C 
BRANCH  19  22
ATOM     20  O   UNL     1      34.677 -19.585 -22.448  0.00  0.00    -0.449 OA
ATOM     21  N   UNL     1      34.842 -18.066 -20.780  0.00  0.00    -0.373 NA
ATOM     22  C   UNL     1      34.830 -17.455 -21.992  0.00  0.00    +0.130 C 
ATOM     23  C   UNL     1      34.732 -18.344 -23.008  0.00  0.00    +0.216 C 
ATOM     24  C   UNL     1      34.747 -19.334 -21.113  0.00  0.00    +0.277 C 
ATOM     25  C   UNL     1      34.677 -18.270 -24.473  0.00  0.00    +0.055 C 
BRANCH  24  26
ATOM     26  C   UNL     1      34.709 -20.496 -20.269  0.00  0.00    +0.066 C 
ATOM     27  C   UNL     1      33.484 -21.053 -19.892  0.00  0.00    +0.006 C 
ATOM     28  C   UNL     1      35.899 -21.077 -19.819  0.00  0.00    +0.006 C 
ATOM     29  C   UNL     1      33.448 -22.181 -19.071  0.00  0.00    +0.000 C 
ATOM     30  C   UNL     1      35.863 -22.205 -18.999  0.00  0.00    +0.000 C 
ATOM     31  C   UNL     1      34.637 -22.756 -18.625  0.00  0.00    +0.000 C 
ENDBRANCH  24  26
ENDBRANCH  19  22
ENDBRANCH  18  19
ENDBRANCH   2  18
TORSDOF 7
ENDMDL
MODEL 8
REMARK VINA RESULT:     -11.2      3.606     10.747
REMARK  Name = 60870
REMARK  7 active torsions:
REMARK  status: ('A' for Active; 'I' for Inactive)
REMARK    1  A    between atoms: C_2  and  C_4
REMARK    2  A    between atoms: C_2  and  C_18
REMARK    3  A    between atoms: C_3  and  C_9
REMARK    4  A    between atoms: C_9  and  C_14
REMARK    5  A    between atoms: C_18  and  C_19
REMARK    6  A    between atoms: C_19  and  C_22
REMARK    7  A    between atoms: C_24  and  C_26
REMARK                            x       y       z     vdW  Elec       q    Type
REMARK                         _______ _______ _______ _____ _____    ______ ____
ROOT
ATOM      1  O   UNL     1      36.298 -20.740 -19.696  0.00  0.00    -0.291 OA
ATOM      2  C   UNL     1      35.221 -20.417 -20.239  0.00  0.00    +0.173 C 
ENDROOT
BRANCH   2   4
ATOM      3  C   UNL     1      35.126 -17.499 -23.297  0.00  0.00    -0.021 C 
ATOM      4  C   UNL     1      35.190 -19.413 -21.291  0.00  0.00    +0.035 C 
ATOM      5  C   UNL     1      35.371 -17.108 -21.989  0.00  0.00    -0.004 C 
ATOM      6  C   UNL     1      34.913 -18.831 -23.619  0.00  0.00    -0.004 C 
ATOM      7  C   UNL     1      35.403 -18.071 -20.980  0.00  0.00    +0.003 C 
ATOM      8  C   UNL     1      34.945 -19.794 -22.610  0.00  0.00    +0.003 C 
BRANCH   3   9
ATOM      9  C   UNL     1      35.093 -16.459 -24.387  0.00  0.00    +0.047 C 
BRANCH   9  14
ATOM     10  S   UNL     1      33.095 -15.517 -26.033  0.00  0.00    -0.048 S 
ATOM     11  O   UNL     1      34.567 -13.948 -22.829  0.00  0.00    -0.274 OA
ATOM     12  O   UNL     1      32.657 -13.091 -26.945  0.00  0.00    -0.263 OA
ATOM     13  N   UNL     1      33.616 -13.319 -24.840  0.00  0.00    -0.246 N 
ATOM     14  C   UNL     1      33.806 -15.653 -24.364  0.00  0.00    +0.137 C 
ATOM     15  C   UNL     1      34.051 -14.233 -23.904  0.00  0.00    +0.239 C 
ATOM     16  C   UNL     1      33.081 -13.766 -26.020  0.00  0.00    +0.279 C 
ATOM     17  H   UNL     1      33.690 -12.354 -24.664  0.00  0.00    +0.158 HD
ENDBRANCH   9  14
ENDBRANCH   3   9
ENDBRANCH   2   4
BRANCH   2  18
ATOM     18  C   UNL     1      33.916 -21.097 -19.784  0.00  0.00    +0.076 C 
BRANCH  18  19
ATOM     19  C   UNL     1      34.069 -22.596 -19.516  0.00  0.00    +0.066 C 
BRANCH  19  22
ATOM     20  O   UNL     1      34.006 -23.330 -15.940  0.00  0.00    -0.449 OA
ATOM     21  N   UNL     1      32.571 -23.326 -17.689  0.00  0.00    -0.373 NA
ATOM     22  C   UNL     1      33.813 -22.947 -18.081  0.00  0.00    +0.130 C 
ATOM     23  C   UNL     1      34.692 -22.941 -17.051  0.00  0.00    +0.216 C 
ATOM     24  C   UNL     1      32.744 -23.543 -16.404  0.00  0.00    +0.277 C 
ATOM     25  C   UNL     1      36.116 -22.630 -16.880  0.00  0.00    +0.055 C 
BRANCH  24  26
ATOM     26  C   UNL     1      31.793 -23.971 -15.416  0.00  0.00    +0.066 C 
ATOM     27  C   UNL     1      32.231 -24.477 -14.189  0.00  0.00    +0.006 C 
ATOM     28  C   UNL     1      30.422 -23.886 -15.677  0.00  0.00    +0.006 C 
ATOM     29  C   UNL     1      31.307 -24.894 -13.230  0.00  0.00    +0.000 C 
ATOM     30  C   UNL     1      29.498 -24.303 -14.719  0.00  0.00    +0.000 C 
ATOM     31  C   UNL     1      29.941 -24.807 -13.496  0.00  0.00    +0.000 C 
ENDBRANCH  24  26
ENDBRANCH  19  22
ENDBRANCH  18  19
ENDBRANCH   2  18
TORSDOF 7
ENDMDL
MODEL 9
REMARK VINA RESULT:     -11.2      3.301      4.619
REMARK  Name = 60870
REMARK  7 active torsions:
REMARK  status: ('A' for Active; 'I' for Inactive)
REMARK    1  A    between atoms: C_2  and  C_4
REMARK    2  A    between atoms: C_2  and  C_18
REMARK    3  A    between atoms: C_3  and  C_9
REMARK    4  A    between atoms: C_9  and  C_14
REMARK    5  A    between atoms: C_18  and  C_19
REMARK    6  A    between atoms: C_19  and  C_22
REMARK    7  A    between atoms: C_24  and  C_26
REMARK                            x       y       z     vdW  Elec       q    Type
REMARK                         _______ _______ _______ _____ _____    ______ ____
ROOT
ATOM      1  O   UNL     1      33.082 -22.981 -19.571  0.00  0.00    -0.291 OA
ATOM      2  C   UNL     1      33.898 -22.151 -19.120  0.00  0.00    +0.173 C 
ENDROOT
BRANCH   2   4
ATOM      3  C   UNL     1      36.445 -23.151 -15.897  0.00  0.00    -0.021 C 
ATOM      4  C   UNL     1      34.775 -22.496 -18.012  0.00  0.00    +0.035 C 
ATOM      5  C   UNL     1      35.113 -23.532 -15.856  0.00  0.00    -0.004 C 
ATOM      6  C   UNL     1      36.958 -22.449 -16.978  0.00  0.00    -0.004 C 
ATOM      7  C   UNL     1      34.272 -23.203 -16.920  0.00  0.00    +0.003 C 
ATOM      8  C   UNL     1      36.117 -22.119 -18.042  0.00  0.00    +0.003 C 
BRANCH   3   9
ATOM      9  C   UNL     1      37.354 -23.508 -14.749  0.00  0.00    +0.047 C 
BRANCH   9  14
ATOM     10  S   UNL     1      36.282 -25.600 -13.311  0.00  0.00    -0.048 S 
ATOM     11  O   UNL     1      39.881 -25.122 -14.622  0.00  0.00    -0.274 OA
ATOM     12  O   UNL     1      37.268 -26.932 -11.271  0.00  0.00    -0.263 OA
ATOM     13  N   UNL     1      38.745 -26.109 -12.866  0.00  0.00    -0.246 N 
ATOM     14  C   UNL     1      37.467 -25.011 -14.560  0.00  0.00    +0.137 C 
ATOM     15  C   UNL     1      38.835 -25.402 -14.047  0.00  0.00    +0.239 C 
ATOM     16  C   UNL     1      37.514 -26.332 -12.306  0.00  0.00    +0.279 C 
ATOM     17  H   UNL     1      39.557 -26.450 -12.428  0.00  0.00    +0.158 HD
ENDBRANCH   9  14
ENDBRANCH   3   9
ENDBRANCH   2   4
BRANCH   2  18
ATOM     18  C   UNL     1      33.973 -20.748 -19.753  0.00  0.00    +0.076 C 
BRANCH  18  19
ATOM     19  C   UNL     1      35.181 -20.557 -20.674  0.00  0.00    +0.066 C 
BRANCH  19  22
ATOM     20  O   UNL     1      34.863 -18.045 -23.305  0.00  0.00    -0.449 OA
ATOM     21  N   UNL     1      34.841 -18.136 -21.045  0.00  0.00    -0.373 NA
ATOM     22  C   UNL     1      35.026 -19.370 -21.577  0.00  0.00    +0.130 C 
ATOM     23  C   UNL     1      35.043 -19.343 -22.931  0.00  0.00    +0.216 C 
ATOM     24  C   UNL     1      34.750 -17.386 -22.120  0.00  0.00    +0.277 C 
ATOM     25  C   UNL     1      35.200 -20.331 -24.004  0.00  0.00    +0.055 C 
BRANCH  24  26
ATOM     26  C   UNL     1      34.548 -15.967 -22.227  0.00  0.00    +0.066 C 
ATOM     27  C   UNL     1      34.411 -15.187 -21.075  0.00  0.00    +0.006 C 
ATOM     28  C   UNL     1      34.486 -15.359 -23.484  0.00  0.00    +0.006 C 
ATOM     29  C   UNL     1      34.213 -13.810 -21.180  0.00  0.00    +0.000 C 
ATOM     30  C   UNL     1      34.289 -13.982 -23.588  0.00  0.00    +0.000 C 
ATOM     31  C   UNL     1      34.152 -13.208 -22.436  0.00  0.00    +0.000 C 
ENDBRANCH  24  26
ENDBRANCH  19  22
ENDBRANCH  18  19
ENDBRANCH   2  18
TORSDOF 7
ENDMDL
