MODEL 1
REMARK VINA RESULT:     -13.2      0.000      0.000
REMARK  Name = 10200813
REMARK  4 active torsions:
REMARK  status: ('A' for Active; 'I' for Inactive)
REMARK    1  A    between atoms: C_3  and  C_24
REMARK    2  A    between atoms: C_8  and  C_11
REMARK    3  A    between atoms: N_10  and  C_16
REMARK    4  A    between atoms: C_24  and  C_26
REMARK                            x       y       z     vdW  Elec       q    Type
REMARK                         _______ _______ _______ _____ _____    ______ ____
ROOT
ATOM      1  O   UNL     1      34.793 -17.655 -24.325  0.00  0.00    -0.265 OA
ATOM      2  N   UNL     1      34.673 -16.161 -22.515  0.00  0.00    -0.272 N 
ATOM      3  C   UNL     1      33.099 -14.096 -21.229  0.00  0.00    +0.008 C 
ATOM      4  C   UNL     1      32.933 -14.431 -22.720  0.00  0.00    +0.022 C 
ATOM      5  C   UNL     1      33.594 -15.331 -20.460  0.00  0.00    +0.022 C 
ATOM      6  C   UNL     1      34.218 -15.016 -23.301  0.00  0.00    +0.094 C 
ATOM      7  C   UNL     1      34.866 -15.901 -21.085  0.00  0.00    +0.094 C 
ATOM      8  C   UNL     1      34.931 -17.371 -23.142  0.00  0.00    +0.303 C 
ENDROOT
BRANCH   8  11
ATOM      9  O   UNL     1      36.641 -18.678 -22.311  0.00  0.00    -0.265 OA
ATOM     10  N   UNL     1      34.435 -19.074 -21.552  0.00  0.00    -0.277 N 
ATOM     11  C   UNL     1      35.437 -18.462 -22.278  0.00  0.00    +0.303 C 
ATOM     12  H   UNL     1      33.523 -18.727 -21.687  0.00  0.00    +0.155 HD
BRANCH  10  16
ATOM     13  O   UNL     1      32.628 -22.371 -18.452  0.00  0.00    -0.407 OA
ATOM     14  O   UNL     1      32.829 -24.123 -16.956  0.00  0.00    -0.223 OA
ATOM     15  N   UNL     1      34.714 -23.217 -17.984  0.00  0.00    -0.287 N 
ATOM     16  C   UNL     1      34.572 -20.144 -20.638  0.00  0.00    +0.054 C 
ATOM     17  C   UNL     1      33.433 -20.666 -20.038  0.00  0.00    +0.054 C 
ATOM     18  C   UNL     1      35.854 -20.643 -20.369  0.00  0.00    +0.016 C 
ATOM     19  C   UNL     1      33.621 -21.708 -19.156  0.00  0.00    +0.167 A 
ATOM     20  C   UNL     1      34.879 -22.202 -18.888  0.00  0.00    +0.096 A 
ATOM     21  C   UNL     1      36.022 -21.700 -19.471  0.00  0.00    +0.022 C 
ATOM     22  C   UNL     1      33.358 -23.324 -17.718  0.00  0.00    +0.419 A 
ATOM     23  H   UNL     1      35.428 -23.772 -17.594  0.00  0.00    +0.172 HD
ENDBRANCH  10  16
ENDBRANCH   8  11
BRANCH   3  24
ATOM     24  C   UNL     1      31.789 -13.578 -20.640  0.00  0.00    +0.026 C 
BRANCH  24  26
ATOM     25  F   UNL     1      31.887  -8.000 -19.961  0.00  0.00    -0.204 F 
ATOM     26  C   UNL     1      31.816 -12.086 -20.458  0.00  0.00    -0.022 C 
ATOM     27  C   UNL     1      31.786 -11.552 -19.177  0.00  0.00    -0.002 C 
ATOM     28  C   UNL     1      31.869 -11.261 -21.574  0.00  0.00    -0.002 C 
ATOM     29  C   UNL     1      31.811 -10.167 -19.009  0.00  0.00    +0.029 C 
ATOM     30  C   UNL     1      31.894  -9.876 -21.406  0.00  0.00    +0.029 C 
ATOM     31  C   UNL     1      31.865  -9.330 -20.123  0.00  0.00    +0.140 C 
ENDBRANCH  24  26
ENDBRANCH   3  24
TORSDOF 4
ENDMDL
MODEL 2
REMARK VINA RESULT:     -12.1      1.201      1.435
REMARK  Name = 10200813
REMARK  4 active torsions:
REMARK  status: ('A' for Active; 'I' for Inactive)
REMARK    1  A    between atoms: C_3  and  C_24
REMARK    2  A    between atoms: C_8  and  C_11
REMARK    3  A    between atoms: N_10  and  C_16
REMARK    4  A    between atoms: C_24  and  C_26
REMARK                            x       y       z     vdW  Elec       q    Type
REMARK                         _______ _______ _______ _____ _____    ______ ____
ROOT
ATOM      1  O   UNL     1      34.908 -16.818 -23.454  0.00  0.00    -0.265 OA
ATOM      2  N   UNL     1      34.455 -15.012 -22.019  0.00  0.00    -0.272 N 
ATOM      3  C   UNL     1      32.833 -12.648 -21.602  0.00  0.00    +0.008 C 
ATOM      4  C   UNL     1      33.058 -13.239 -23.003  0.00  0.00    +0.022 C 
ATOM      5  C   UNL     1      32.943 -13.750 -20.537  0.00  0.00    +0.022 C 
ATOM      6  C   UNL     1      34.378 -14.004 -23.074  0.00  0.00    +0.094 C 
ATOM      7  C   UNL     1      34.264 -14.507 -20.655  0.00  0.00    +0.094 C 
ATOM      8  C   UNL     1      34.738 -16.331 -22.343  0.00  0.00    +0.303 C 
ENDROOT
BRANCH   8  11
ATOM      9  O   UNL     1      34.894 -16.786 -20.087  0.00  0.00    -0.265 OA
ATOM     10  N   UNL     1      34.878 -18.594 -21.614  0.00  0.00    -0.277 N 
ATOM     11  C   UNL     1      34.848 -17.275 -21.208  0.00  0.00    +0.303 C 
ATOM     12  H   UNL     1      34.825 -18.754 -22.584  0.00  0.00    +0.155 HD
BRANCH  10  16
ATOM     13  O   UNL     1      32.939 -22.233 -19.016  0.00  0.00    -0.407 OA
ATOM     14  O   UNL     1      33.078 -24.111 -17.673  0.00  0.00    -0.223 OA
ATOM     15  N   UNL     1      35.008 -23.045 -18.428  0.00  0.00    -0.287 N 
ATOM     16  C   UNL     1      34.977 -19.741 -20.792  0.00  0.00    +0.054 C 
ATOM     17  C   UNL     1      33.811 -20.357 -20.354  0.00  0.00    +0.054 C 
ATOM     18  C   UNL     1      36.249 -20.217 -20.447  0.00  0.00    +0.016 C 
ATOM     19  C   UNL     1      33.963 -21.471 -19.557  0.00  0.00    +0.167 A 
ATOM     20  C   UNL     1      35.211 -21.943 -19.215  0.00  0.00    +0.096 A 
ATOM     21  C   UNL     1      36.379 -21.348 -19.637  0.00  0.00    +0.022 C 
ATOM     22  C   UNL     1      33.639 -23.224 -18.304  0.00  0.00    +0.419 A 
ATOM     23  H   UNL     1      35.707 -23.608 -18.023  0.00  0.00    +0.172 HD
ENDBRANCH  10  16
ENDBRANCH   8  11
BRANCH   3  24
ATOM     24  C   UNL     1      31.479 -11.946 -21.520  0.00  0.00    +0.026 C 
BRANCH  24  26
ATOM     25  F   UNL     1      32.059  -6.422 -20.658  0.00  0.00    -0.204 F 
ATOM     26  C   UNL     1      31.635 -10.468 -21.289  0.00  0.00    -0.022 C 
ATOM     27  C   UNL     1      31.876  -9.998 -20.006  0.00  0.00    -0.002 C 
ATOM     28  C   UNL     1      31.534  -9.593 -22.363  0.00  0.00    -0.002 C 
ATOM     29  C   UNL     1      32.020  -8.626 -19.792  0.00  0.00    +0.029 C 
ATOM     30  C   UNL     1      31.678  -8.222 -22.150  0.00  0.00    +0.029 C 
ATOM     31  C   UNL     1      31.922  -7.739 -20.864  0.00  0.00    +0.140 C 
ENDBRANCH  24  26
ENDBRANCH   3  24
TORSDOF 4
ENDMDL
MODEL 3
REMARK VINA RESULT:     -11.9      4.829      7.363
REMARK  Name = 10200813
REMARK  4 active torsions:
REMARK  status: ('A' for Active; 'I' for Inactive)
REMARK    1  A    between atoms: C_3  and  C_24
REMARK    2  A    between atoms: C_8  and  C_11
REMARK    3  A    between atoms: N_10  and  C_16
REMARK    4  A    between atoms: C_24  and  C_26
REMARK                            x       y       z     vdW  Elec       q    Type
REMARK                         _______ _______ _______ _____ _____    ______ ____
ROOT
ATOM      1  O   UNL     1      31.912 -22.322 -17.564  0.00  0.00    -0.265 OA
ATOM      2  N   UNL     1      33.599 -22.116 -19.188  0.00  0.00    -0.272 N 
ATOM      3  C   UNL     1      35.048 -20.283 -20.900  0.00  0.00    +0.008 C 
ATOM      4  C   UNL     1      33.654 -19.945 -20.348  0.00  0.00    +0.022 C 
ATOM      5  C   UNL     1      35.776 -21.248 -19.951  0.00  0.00    +0.022 C 
ATOM      6  C   UNL     1      32.852 -21.213 -20.060  0.00  0.00    +0.094 C 
ATOM      7  C   UNL     1      34.933 -22.490 -19.668  0.00  0.00    +0.094 C 
ATOM      8  C   UNL     1      33.015 -22.591 -18.022  0.00  0.00    +0.303 C 
ENDROOT
BRANCH   8  11
ATOM      9  O   UNL     1      33.558 -24.730 -17.350  0.00  0.00    -0.265 OA
ATOM     10  N   UNL     1      34.776 -22.912 -16.450  0.00  0.00    -0.277 N 
ATOM     11  C   UNL     1      33.824 -23.542 -17.225  0.00  0.00    +0.303 C 
ATOM     12  H   UNL     1      34.810 -21.929 -16.511  0.00  0.00    +0.155 HD
BRANCH  10  16
ATOM     13  O   UNL     1      35.946 -25.834 -12.730  0.00  0.00    -0.407 OA
ATOM     14  O   UNL     1      37.452 -26.841 -11.293  0.00  0.00    -0.223 OA
ATOM     15  N   UNL     1      38.189 -25.385 -12.956  0.00  0.00    -0.287 N 
ATOM     16  C   UNL     1      35.707 -23.519 -15.576  0.00  0.00    +0.054 C 
ATOM     17  C   UNL     1      35.242 -24.383 -14.592  0.00  0.00    +0.054 C 
ATOM     18  C   UNL     1      37.070 -23.230 -15.733  0.00  0.00    +0.016 C 
ATOM     19  C   UNL     1      36.190 -24.950 -13.769  0.00  0.00    +0.167 A 
ATOM     20  C   UNL     1      37.531 -24.669 -13.919  0.00  0.00    +0.096 A 
ATOM     21  C   UNL     1      38.014 -23.816 -14.887  0.00  0.00    +0.022 C 
ATOM     22  C   UNL     1      37.238 -26.089 -12.235  0.00  0.00    +0.419 A 
ATOM     23  H   UNL     1      39.162 -25.397 -12.802  0.00  0.00    +0.172 HD
ENDBRANCH  10  16
ENDBRANCH   8  11
BRANCH   3  24
ATOM     24  C   UNL     1      35.868 -19.013 -21.118  0.00  0.00    +0.026 C 
BRANCH  24  26
ATOM     25  F   UNL     1      34.111 -16.162 -25.632  0.00  0.00    -0.204 F 
ATOM     26  C   UNL     1      35.397 -18.251 -22.326  0.00  0.00    -0.022 C 
ATOM     27  C   UNL     1      34.973 -18.945 -23.451  0.00  0.00    -0.002 C 
ATOM     28  C   UNL     1      35.394 -16.862 -22.300  0.00  0.00    -0.002 C 
ATOM     29  C   UNL     1      34.537 -18.237 -24.571  0.00  0.00    +0.029 C 
ATOM     30  C   UNL     1      34.958 -16.154 -23.420  0.00  0.00    +0.029 C 
ATOM     31  C   UNL     1      34.529 -16.842 -24.556  0.00  0.00    +0.140 C 
ENDBRANCH  24  26
ENDBRANCH   3  24
TORSDOF 4
ENDMDL
MODEL 4
REMARK VINA RESULT:     -11.2      4.070      6.774
REMARK  Name = 10200813
REMARK  4 active torsions:
REMARK  status: ('A' for Active; 'I' for Inactive)
REMARK    1  A    between atoms: C_3  and  C_24
REMARK    2  A    between atoms: C_8  and  C_11
REMARK    3  A    between atoms: N_10  and  C_16
REMARK    4  A    between atoms: C_24  and  C_26
REMARK                            x       y       z     vdW  Elec       q    Type
REMARK                         _______ _______ _______ _____ _____    ______ ____
ROOT
ATOM      1  O   UNL     1      31.874 -11.850 -19.079  0.00  0.00    -0.265 OA
ATOM      2  N   UNL     1      31.903 -10.543 -21.033  0.00  0.00    -0.272 N 
ATOM      3  C   UNL     1      32.805  -8.063 -22.228  0.00  0.00    +0.008 C 
ATOM      4  C   UNL     1      32.647  -8.219 -20.707  0.00  0.00    +0.022 C 
ATOM      5  C   UNL     1      33.102  -9.426 -22.873  0.00  0.00    +0.022 C 
ATOM      6  C   UNL     1      31.602  -9.278 -20.366  0.00  0.00    +0.094 C 
ATOM      7  C   UNL     1      32.049 -10.463 -22.489  0.00  0.00    +0.094 C 
ATOM      8  C   UNL     1      31.986 -11.712 -20.291  0.00  0.00    +0.303 C 
ENDROOT
BRANCH   8  11
ATOM      9  O   UNL     1      31.319 -13.389 -21.729  0.00  0.00    -0.265 OA
ATOM     10  N   UNL     1      33.525 -13.434 -20.874  0.00  0.00    -0.277 N 
ATOM     11  C   UNL     1      32.243 -12.955 -21.054  0.00  0.00    +0.303 C 
ATOM     12  H   UNL     1      34.107 -12.911 -20.275  0.00  0.00    +0.155 HD
BRANCH  10  16
ATOM     13  O   UNL     1      35.180 -18.012 -20.651  0.00  0.00    -0.407 OA
ATOM     14  O   UNL     1      36.108 -19.917 -21.576  0.00  0.00    -0.223 OA
ATOM     15  N   UNL     1      35.717 -18.030 -22.886  0.00  0.00    -0.287 N 
ATOM     16  C   UNL     1      34.095 -14.592 -21.452  0.00  0.00    +0.054 C 
ATOM     17  C   UNL     1      34.319 -15.704 -20.649  0.00  0.00    +0.054 C 
ATOM     18  C   UNL     1      34.414 -14.579 -22.817  0.00  0.00    +0.016 C 
ATOM     19  C   UNL     1      34.875 -16.806 -21.262  0.00  0.00    +0.167 A 
ATOM     20  C   UNL     1      35.191 -16.798 -22.603  0.00  0.00    +0.096 A 
ATOM     21  C   UNL     1      34.977 -15.708 -23.417  0.00  0.00    +0.022 C 
ATOM     22  C   UNL     1      35.713 -18.766 -21.712  0.00  0.00    +0.419 A 
ATOM     23  H   UNL     1      36.040 -18.338 -23.764  0.00  0.00    +0.172 HD
ENDBRANCH  10  16
ENDBRANCH   8  11
BRANCH   3  24
ATOM     24  C   UNL     1      33.901  -7.054 -22.559  0.00  0.00    +0.026 C 
BRANCH  24  26
ATOM     25  F   UNL     1      32.231  -3.402 -26.492  0.00  0.00    -0.204 F 
ATOM     26  C   UNL     1      33.455  -6.076 -23.611  0.00  0.00    -0.022 C 
ATOM     27  C   UNL     1      32.379  -5.238 -23.353  0.00  0.00    -0.002 C 
ATOM     28  C   UNL     1      34.124  -6.026 -24.827  0.00  0.00    -0.002 C 
ATOM     29  C   UNL     1      31.965  -4.331 -24.330  0.00  0.00    +0.029 C 
ATOM     30  C   UNL     1      33.710  -5.120 -25.803  0.00  0.00    +0.029 C 
ATOM     31  C   UNL     1      32.630  -4.272 -25.554  0.00  0.00    +0.140 C 
ENDBRANCH  24  26
ENDBRANCH   3  24
TORSDOF 4
ENDMDL
MODEL 5
REMARK VINA RESULT:     -11.1      4.502     10.040
REMARK  Name = 10200813
REMARK  4 active torsions:
REMARK  status: ('A' for Active; 'I' for Inactive)
REMARK    1  A    between atoms: C_3  and  C_24
REMARK    2  A    between atoms: C_8  and  C_11
REMARK    3  A    between atoms: N_10  and  C_16
REMARK    4  A    between atoms: C_24  and  C_26
REMARK                            x       y       z     vdW  Elec       q    Type
REMARK                         _______ _______ _______ _____ _____    ______ ____
ROOT
ATOM      1  O   UNL     1      37.434 -19.346 -20.437  0.00  0.00    -0.265 OA
ATOM      2  N   UNL     1      35.640 -20.845 -20.185  0.00  0.00    -0.272 N 
ATOM      3  C   UNL     1      34.270 -22.637 -18.368  0.00  0.00    +0.008 C 
ATOM      4  C   UNL     1      35.739 -22.239 -18.158  0.00  0.00    +0.022 C 
ATOM      5  C   UNL     1      33.523 -21.529 -19.126  0.00  0.00    +0.022 C 
ATOM      6  C   UNL     1      36.406 -21.871 -19.482  0.00  0.00    +0.094 C 
ATOM      7  C   UNL     1      34.232 -21.172 -20.430  0.00  0.00    +0.094 C 
ATOM      8  C   UNL     1      36.268 -19.682 -20.607  0.00  0.00    +0.303 C 
ENDROOT
BRANCH   8  11
ATOM      9  O   UNL     1      34.962 -19.107 -22.419  0.00  0.00    -0.265 OA
ATOM     10  N   UNL     1      35.306 -17.505 -20.712  0.00  0.00    -0.277 N 
ATOM     11  C   UNL     1      35.429 -18.719 -21.357  0.00  0.00    +0.303 C 
ATOM     12  H   UNL     1      35.777 -17.418 -19.851  0.00  0.00    +0.155 HD
BRANCH  10  16
ATOM     13  O   UNL     1      32.183 -13.832 -20.004  0.00  0.00    -0.407 OA
ATOM     14  O   UNL     1      30.989 -11.977 -20.698  0.00  0.00    -0.223 OA
ATOM     15  N   UNL     1      32.400 -13.101 -22.172  0.00  0.00    -0.287 N 
ATOM     16  C   UNL     1      34.580 -16.373 -21.149  0.00  0.00    +0.054 C 
ATOM     17  C   UNL     1      33.745 -15.721 -20.250  0.00  0.00    +0.054 C 
ATOM     18  C   UNL     1      34.729 -15.946 -22.476  0.00  0.00    +0.016 C 
ATOM     19  C   UNL     1      33.062 -14.623 -20.727  0.00  0.00    +0.167 A 
ATOM     20  C   UNL     1      33.205 -14.200 -22.030  0.00  0.00    +0.096 A 
ATOM     21  C   UNL     1      34.027 -14.831 -22.937  0.00  0.00    +0.022 C 
ATOM     22  C   UNL     1      31.781 -12.875 -20.954  0.00  0.00    +0.419 A 
ATOM     23  H   UNL     1      32.282 -12.568 -22.992  0.00  0.00    +0.172 HD
ENDBRANCH  10  16
ENDBRANCH   8  11
BRANCH   3  24
ATOM     24  C   UNL     1      33.592 -22.935 -17.033  0.00  0.00    +0.026 C 
BRANCH  24  26
ATOM     25  F   UNL     1      37.222 -25.026 -13.286  0.00  0.00    -0.204 F 
ATOM     26  C   UNL     1      34.564 -23.495 -16.031  0.00  0.00    -0.022 C 
ATOM     27  C   UNL     1      34.512 -24.844 -15.707  0.00  0.00    -0.002 C 
ATOM     28  C   UNL     1      35.499 -22.655 -15.442  0.00  0.00    -0.002 C 
ATOM     29  C   UNL     1      35.414 -25.363 -14.777  0.00  0.00    +0.029 C 
ATOM     30  C   UNL     1      36.401 -23.173 -14.512  0.00  0.00    +0.029 C 
ATOM     31  C   UNL     1      36.358 -24.528 -14.180  0.00  0.00    +0.140 C 
ENDBRANCH  24  26
ENDBRANCH   3  24
TORSDOF 4
ENDMDL
MODEL 6
REMARK VINA RESULT:     -10.9      5.133     10.108
REMARK  Name = 10200813
REMARK  4 active torsions:
REMARK  status: ('A' for Active; 'I' for Inactive)
REMARK    1  A    between atoms: C_3  and  C_24
REMARK    2  A    between atoms: C_8  and  C_11
REMARK    3  A    between atoms: N_10  and  C_16
REMARK    4  A    between atoms: C_24  and  C_26
REMARK                            x       y       z     vdW  Elec       q    Type
REMARK                         _______ _______ _______ _____ _____    ______ ____
ROOT
ATOM      1  O   UNL     1      33.628 -13.812 -25.977  0.00  0.00    -0.265 OA
ATOM      2  N   UNL     1      33.728 -15.112 -24.021  0.00  0.00    -0.272 N 
ATOM      3  C   UNL     1      34.922 -17.429 -22.758  0.00  0.00    +0.008 C 
ATOM      4  C   UNL     1      34.846 -17.290 -24.286  0.00  0.00    +0.022 C 
ATOM      5  C   UNL     1      34.958 -16.041 -22.099  0.00  0.00    +0.022 C 
ATOM      6  C   UNL     1      33.673 -16.403 -24.702  0.00  0.00    +0.094 C 
ATOM      7  C   UNL     1      33.786 -15.178 -22.558  0.00  0.00    +0.094 C 
ATOM      8  C   UNL     1      33.677 -13.939 -24.760  0.00  0.00    +0.303 C 
ENDROOT
BRANCH   8  11
ATOM      9  O   UNL     1      34.558 -11.864 -24.267  0.00  0.00    -0.265 OA
ATOM     10  N   UNL     1      32.675 -12.620 -23.049  0.00  0.00    -0.277 N 
ATOM     11  C   UNL     1      33.686 -12.676 -23.987  0.00  0.00    +0.303 C 
ATOM     12  H   UNL     1      32.079 -13.403 -23.000  0.00  0.00    +0.155 HD
BRANCH  10  16
ATOM     13  O   UNL     1      32.485  -7.901 -21.849  0.00  0.00    -0.407 OA
ATOM     14  O   UNL     1      32.038  -6.158 -20.396  0.00  0.00    -0.223 OA
ATOM     15  N   UNL     1      31.680  -8.368 -19.747  0.00  0.00    -0.287 N 
ATOM     16  C   UNL     1      32.399 -11.564 -22.150  0.00  0.00    +0.054 C 
ATOM     17  C   UNL     1      32.622 -10.255 -22.561  0.00  0.00    +0.054 C 
ATOM     18  C   UNL     1      31.909 -11.873 -20.874  0.00  0.00    +0.016 C 
ATOM     19  C   UNL     1      32.337  -9.264 -21.647  0.00  0.00    +0.167 A 
ATOM     20  C   UNL     1      31.855  -9.563 -20.392  0.00  0.00    +0.096 A 
ATOM     21  C   UNL     1      31.627 -10.852 -19.964  0.00  0.00    +0.022 C 
ATOM     22  C   UNL     1      32.059  -7.361 -20.622  0.00  0.00    +0.419 A 
ATOM     23  H   UNL     1      31.346  -8.244 -18.829  0.00  0.00    +0.172 HD
ENDBRANCH  10  16
ENDBRANCH   8  11
BRANCH   3  24
ATOM     24  C   UNL     1      36.137 -18.258 -22.348  0.00  0.00    +0.026 C 
BRANCH  24  26
ATOM     25  F   UNL     1      34.749 -22.311 -18.711  0.00  0.00    -0.204 F 
ATOM     26  C   UNL     1      35.765 -19.343 -21.376  0.00  0.00    -0.022 C 
ATOM     27  C   UNL     1      34.431 -19.688 -21.213  0.00  0.00    -0.002 C 
ATOM     28  C   UNL     1      36.762 -19.984 -20.652  0.00  0.00    -0.002 C 
ATOM     29  C   UNL     1      34.087 -20.695 -20.310  0.00  0.00    +0.029 C 
ATOM     30  C   UNL     1      36.418 -20.990 -19.750  0.00  0.00    +0.029 C 
ATOM     31  C   UNL     1      35.080 -21.346 -19.579  0.00  0.00    +0.140 C 
ENDBRANCH  24  26
ENDBRANCH   3  24
TORSDOF 4
ENDMDL
MODEL 7
REMARK VINA RESULT:     -10.8      4.712     10.426
REMARK  Name = 10200813
REMARK  4 active torsions:
REMARK  status: ('A' for Active; 'I' for Inactive)
REMARK    1  A    between atoms: C_3  and  C_24
REMARK    2  A    between atoms: C_8  and  C_11
REMARK    3  A    between atoms: N_10  and  C_16
REMARK    4  A    between atoms: C_24  and  C_26
REMARK                            x       y       z     vdW  Elec       q    Type
REMARK                         _______ _______ _______ _____ _____    ______ ____
ROOT
ATOM      1  O   UNL     1      37.523 -19.493 -20.067  0.00  0.00    -0.265 OA
ATOM      2  N   UNL     1      35.893 -21.159 -19.761  0.00  0.00    -0.272 N 
ATOM      3  C   UNL     1      34.623 -22.928 -17.851  0.00  0.00    +0.008 C 
ATOM      4  C   UNL     1      36.025 -22.347 -17.608  0.00  0.00    +0.022 C 
ATOM      5  C   UNL     1      33.805 -21.984 -18.746  0.00  0.00    +0.022 C 
ATOM      6  C   UNL     1      36.724 -22.024 -18.927  0.00  0.00    +0.094 C 
ATOM      7  C   UNL     1      34.546 -21.666 -20.042  0.00  0.00    +0.094 C 
ATOM      8  C   UNL     1      36.413 -19.974 -20.261  0.00  0.00    +0.303 C 
ENDROOT
BRANCH   8  11
ATOM      9  O   UNL     1      34.807 -19.814 -21.910  0.00  0.00    -0.265 OA
ATOM     10  N   UNL     1      35.638 -17.824 -20.934  0.00  0.00    -0.277 N 
ATOM     11  C   UNL     1      35.519 -19.184 -21.139  0.00  0.00    +0.303 C 
ATOM     12  H   UNL     1      36.285 -17.540 -20.248  0.00  0.00    +0.155 HD
BRANCH  10  16
ATOM     13  O   UNL     1      34.160 -15.495 -24.952  0.00  0.00    -0.407 OA
ATOM     14  O   UNL     1      33.014 -13.821 -26.062  0.00  0.00    -0.223 OA
ATOM     15  N   UNL     1      32.990 -13.936 -23.734  0.00  0.00    -0.287 N 
ATOM     16  C   UNL     1      34.934 -16.794 -21.600  0.00  0.00    +0.054 C 
ATOM     17  C   UNL     1      34.965 -16.748 -22.989  0.00  0.00    +0.054 C 
ATOM     18  C   UNL     1      34.228 -15.855 -20.837  0.00  0.00    +0.016 C 
ATOM     19  C   UNL     1      34.262 -15.726 -23.589  0.00  0.00    +0.167 A 
ATOM     20  C   UNL     1      33.567 -14.800 -22.843  0.00  0.00    +0.096 A 
ATOM     21  C   UNL     1      33.522 -14.827 -21.466  0.00  0.00    +0.022 C 
ATOM     22  C   UNL     1      33.345 -14.350 -25.008  0.00  0.00    +0.419 A 
ATOM     23  H   UNL     1      32.426 -13.160 -23.512  0.00  0.00    +0.172 HD
ENDBRANCH  10  16
ENDBRANCH   8  11
BRANCH   3  24
ATOM     24  C   UNL     1      33.904 -23.181 -16.528  0.00  0.00    +0.026 C 
BRANCH  24  26
ATOM     25  F   UNL     1      37.345 -25.438 -12.699  0.00  0.00    -0.204 F 
ATOM     26  C   UNL     1      34.826 -23.785 -15.504  0.00  0.00    -0.022 C 
ATOM     27  C   UNL     1      34.981 -25.164 -15.452  0.00  0.00    -0.002 C 
ATOM     28  C   UNL     1      35.507 -22.956 -14.623  0.00  0.00    -0.002 C 
ATOM     29  C   UNL     1      35.836 -25.724 -14.502  0.00  0.00    +0.029 C 
ATOM     30  C   UNL     1      36.362 -23.516 -13.673  0.00  0.00    +0.029 C 
ATOM     31  C   UNL     1      36.526 -24.900 -13.613  0.00  0.00    +0.140 C 
ENDBRANCH  24  26
ENDBRANCH   3  24
TORSDOF 4
ENDMDL
MODEL 8
REMARK VINA RESULT:     -10.7      4.650      7.806
REMARK  Name = 10200813
REMARK  4 active torsions:
REMARK  status: ('A' for Active; 'I' for Inactive)
REMARK    1  A    between atoms: C_3  and  C_24
REMARK    2  A    between atoms: C_8  and  C_11
REMARK    3  A    between atoms: N_10  and  C_16
REMARK    4  A    between atoms: C_24  and  C_26
REMARK                            x       y       z     vdW  Elec       q    Type
REMARK                         _______ _______ _______ _____ _____    ______ ____
ROOT
ATOM      1  O   UNL     1      32.079 -10.636 -18.581  0.00  0.00    -0.265 OA
ATOM      2  N   UNL     1      31.909  -9.724 -20.741  0.00  0.00    -0.272 N 
ATOM      3  C   UNL     1      32.807  -7.619 -22.517  0.00  0.00    +0.008 C 
ATOM      4  C   UNL     1      32.873  -7.472 -20.989  0.00  0.00    +0.022 C 
ATOM      5  C   UNL     1      32.894  -9.101 -22.912  0.00  0.00    +0.022 C 
ATOM      6  C   UNL     1      31.813  -8.333 -20.305  0.00  0.00    +0.094 C 
ATOM      7  C   UNL     1      31.836  -9.932 -22.191  0.00  0.00    +0.094 C 
ATOM      8  C   UNL     1      32.013 -10.737 -19.800  0.00  0.00    +0.303 C 
ENDROOT
BRANCH   8  11
ATOM      9  O   UNL     1      31.006 -12.754 -20.293  0.00  0.00    -0.265 OA
ATOM     10  N   UNL     1      33.303 -12.478 -20.790  0.00  0.00    -0.277 N 
ATOM     11  C   UNL     1      32.053 -12.121 -20.328  0.00  0.00    +0.303 C 
ATOM     12  H   UNL     1      34.008 -11.794 -20.719  0.00  0.00    +0.155 HD
BRANCH  10  16
ATOM     13  O   UNL     1      34.145 -15.430 -24.575  0.00  0.00    -0.407 OA
ATOM     14  O   UNL     1      34.769 -17.447 -25.518  0.00  0.00    -0.223 OA
ATOM     15  N   UNL     1      34.747 -17.175 -23.204  0.00  0.00    -0.287 N 
ATOM     16  C   UNL     1      33.685 -13.717 -21.354  0.00  0.00    +0.054 C 
ATOM     17  C   UNL     1      33.689 -13.854 -22.737  0.00  0.00    +0.054 C 
ATOM     18  C   UNL     1      34.048 -14.766 -20.499  0.00  0.00    +0.016 C 
ATOM     19  C   UNL     1      34.071 -15.081 -23.236  0.00  0.00    +0.167 A 
ATOM     20  C   UNL     1      34.428 -16.115 -22.399  0.00  0.00    +0.096 A 
ATOM     21  C   UNL     1      34.431 -16.002 -21.026  0.00  0.00    +0.022 C 
ATOM     22  C   UNL     1      34.578 -16.768 -24.518  0.00  0.00    +0.419 A 
ATOM     23  H   UNL     1      35.043 -18.066 -22.905  0.00  0.00    +0.172 HD
ENDBRANCH  10  16
ENDBRANCH   8  11
BRANCH   3  24
ATOM     24  C   UNL     1      33.915  -6.810 -23.188  0.00  0.00    +0.026 C 
BRANCH  24  26
ATOM     25  F   UNL     1      31.823  -2.898 -26.639  0.00  0.00    -0.204 F 
ATOM     26  C   UNL     1      33.355  -5.764 -24.112  0.00  0.00    -0.022 C 
ATOM     27  C   UNL     1      33.939  -5.565 -25.355  0.00  0.00    -0.002 C 
ATOM     28  C   UNL     1      32.261  -5.010 -23.709  0.00  0.00    -0.002 C 
ATOM     29  C   UNL     1      33.420  -4.594 -26.212  0.00  0.00    +0.029 C 
ATOM     30  C   UNL     1      31.741  -4.039 -24.565  0.00  0.00    +0.029 C 
ATOM     31  C   UNL     1      32.321  -3.832 -25.817  0.00  0.00    +0.140 C 
ENDBRANCH  24  26
ENDBRANCH   3  24
TORSDOF 4
ENDMDL
MODEL 9
REMARK VINA RESULT:     -10.5      5.995     10.547
REMARK  Name = 10200813
REMARK  4 active torsions:
REMARK  status: ('A' for Active; 'I' for Inactive)
REMARK    1  A    between atoms: C_3  and  C_24
REMARK    2  A    between atoms: C_8  and  C_11
REMARK    3  A    between atoms: N_10  and  C_16
REMARK    4  A    between atoms: C_24  and  C_26
REMARK                            x       y       z     vdW  Elec       q    Type
REMARK                         _______ _______ _______ _____ _____    ______ ____
ROOT
ATOM      1  O   UNL     1      38.169 -23.039 -15.353  0.00  0.00    -0.265 OA
ATOM      2  N   UNL     1      36.013 -23.931 -15.633  0.00  0.00    -0.272 N 
ATOM      3  C   UNL     1      33.687 -25.011 -14.284  0.00  0.00    +0.008 C 
ATOM      4  C   UNL     1      35.077 -25.012 -13.628  0.00  0.00    +0.022 C 
ATOM      5  C   UNL     1      33.574 -23.851 -15.286  0.00  0.00    +0.022 C 
ATOM      6  C   UNL     1      36.184 -25.026 -14.680  0.00  0.00    +0.094 C 
ATOM      7  C   UNL     1      34.711 -23.884 -16.305  0.00  0.00    +0.094 C 
ATOM      8  C   UNL     1      37.062 -23.057 -15.876  0.00  0.00    +0.303 C 
ENDROOT
BRANCH   8  11
ATOM      9  O   UNL     1      37.462 -20.973 -16.782  0.00  0.00    -0.265 OA
ATOM     10  N   UNL     1      35.879 -22.385 -17.831  0.00  0.00    -0.277 N 
ATOM     11  C   UNL     1      36.819 -22.009 -16.894  0.00  0.00    +0.303 C 
ATOM     12  H   UNL     1      35.486 -23.282 -17.722  0.00  0.00    +0.155 HD
BRANCH  10  16
ATOM     13  O   UNL     1      36.557 -19.340 -21.575  0.00  0.00    -0.407 OA
ATOM     14  O   UNL     1      35.822 -18.094 -23.380  0.00  0.00    -0.223 OA
ATOM     15  N   UNL     1      34.327 -19.373 -22.131  0.00  0.00    -0.287 N 
ATOM     16  C   UNL     1      35.417 -21.627 -18.932  0.00  0.00    +0.054 C 
ATOM     17  C   UNL     1      36.329 -20.872 -19.659  0.00  0.00    +0.054 C 
ATOM     18  C   UNL     1      34.053 -21.663 -19.252  0.00  0.00    +0.016 C 
ATOM     19  C   UNL     1      35.827 -20.153 -20.722  0.00  0.00    +0.167 A 
ATOM     20  C   UNL     1      34.487 -20.185 -21.040  0.00  0.00    +0.096 A 
ATOM     21  C   UNL     1      33.566 -20.925 -20.333  0.00  0.00    +0.022 C 
ATOM     22  C   UNL     1      35.572 -18.860 -22.458  0.00  0.00    +0.419 A 
ATOM     23  H   UNL     1      33.480 -19.186 -22.599  0.00  0.00    +0.172 HD
ENDBRANCH  10  16
ENDBRANCH   8  11
BRANCH   3  24
ATOM     24  C   UNL     1      32.588 -24.926 -13.228  0.00  0.00    +0.026 C 
BRANCH  24  26
ATOM     25  F   UNL     1      27.610 -23.675 -15.518  0.00  0.00    -0.204 F 
ATOM     26  C   UNL     1      31.256 -24.591 -13.840  0.00  0.00    -0.022 C 
ATOM     27  C   UNL     1      30.386 -25.616 -14.187  0.00  0.00    -0.002 C 
ATOM     28  C   UNL     1      30.914 -23.262 -14.051  0.00  0.00    -0.002 C 
ATOM     29  C   UNL     1      29.150 -25.305 -14.755  0.00  0.00    +0.029 C 
ATOM     30  C   UNL     1      29.679 -22.951 -14.619  0.00  0.00    +0.029 C 
ATOM     31  C   UNL     1      28.797 -23.973 -14.971  0.00  0.00    +0.140 C 
ENDBRANCH  24  26
ENDBRANCH   3  24
TORSDOF 4
ENDMDL
