MODEL 1
REMARK VINA RESULT:     -12.1      0.000      0.000
REMARK  Name = 25025505
REMARK  6 active torsions:
REMARK  status: ('A' for Active; 'I' for Inactive)
REMARK    1  A    between atoms: C_3  and  C_9
REMARK    2  A    between atoms: C_4  and  C_20
REMARK    3  A    between atoms: C_17  and  C_18
REMARK    4  A    between atoms: C_20  and  O_21
REMARK    5  A    between atoms: O_21  and  C_22
REMARK    6  A    between atoms: C_25  and  N_28
REMARK                            x       y       z     vdW  Elec       q    Type
REMARK                         _______ _______ _______ _____ _____    ______ ____
ROOT
ATOM      1  S   UNL     1      36.325 -24.490 -14.854  0.00  0.00    -0.079 S 
ATOM      2  N   UNL     1      33.809 -23.949 -15.103  0.00  0.00    -0.404 NA
ATOM      3  C   UNL     1      34.965 -23.914 -15.728  0.00  0.00    +0.134 C 
ATOM      4  C   UNL     1      34.002 -24.467 -13.838  0.00  0.00    +0.142 C 
ATOM      5  C   UNL     1      35.298 -24.818 -13.520  0.00  0.00    +0.122 C 
ENDROOT
BRANCH   3   9
ATOM      6  N   UNL     1      35.202 -21.409 -19.239  0.00  0.00    -0.253 N 
ATOM      7  N   UNL     1      36.327 -19.655 -20.295  0.00  0.00    -0.203 NA
ATOM      8  N   UNL     1      34.263 -20.522 -21.186  0.00  0.00    -0.181 NA
ATOM      9  C   UNL     1      35.159 -23.406 -17.145  0.00  0.00    +0.062 C 
ATOM     10  C   UNL     1      33.864 -22.830 -17.735  0.00  0.00    +0.030 C 
ATOM     11  C   UNL     1      36.276 -22.356 -17.234  0.00  0.00    +0.030 C 
ATOM     12  C   UNL     1      34.072 -22.343 -19.170  0.00  0.00    +0.102 C 
ATOM     13  C   UNL     1      36.474 -21.879 -18.673  0.00  0.00    +0.102 C 
ATOM     14  C   UNL     1      35.267 -20.486 -20.290  0.00  0.00    +0.090 C 
ATOM     15  C   UNL     1      36.358 -18.778 -21.320  0.00  0.00    +0.161 C 
ATOM     16  C   UNL     1      34.357 -19.618 -22.183  0.00  0.00    +0.104 C 
ATOM     17  C   UNL     1      35.391 -18.712 -22.302  0.00  0.00    +0.001 C 
BRANCH  17  18
ATOM     18  C   UNL     1      35.461 -17.733 -23.413  0.00  0.00    +0.026 C 
ATOM     19  C   UNL     1      35.027 -16.328 -22.989  0.00  0.00    +0.005 C 
ENDBRANCH  17  18
ENDBRANCH   3   9
BRANCH   4  20
ATOM     20  C   UNL     1      32.831 -24.600 -12.948  0.00  0.00    +0.260 C 
BRANCH  20  21
ATOM     21  O   UNL     1      31.865 -25.468 -13.540  0.00  0.00    -0.468 OA
BRANCH  21  22
ATOM     22  C   UNL     1      30.823 -24.869 -14.192  0.00  0.00    +0.139 C 
ATOM     23  C   UNL     1      30.556 -23.515 -13.987  0.00  0.00    +0.038 C 
ATOM     24  C   UNL     1      30.025 -25.611 -15.062  0.00  0.00    +0.038 C 
ATOM     25  C   UNL     1      28.695 -23.648 -15.520  0.00  0.00    +0.078 C 
ATOM     26  C   UNL     1      29.492 -22.904 -14.651  0.00  0.00    +0.020 C 
ATOM     27  C   UNL     1      28.961 -25.002 -15.727  0.00  0.00    +0.020 C 
BRANCH  25  28
ATOM     28  N   UNL     1      27.640 -23.042 -16.180  0.00  0.00    -0.149 N 
ATOM     29  N   UNL     1      27.556 -23.006 -17.516  0.00  0.00    -0.048 NA
ATOM     30  N   UNL     1      25.799 -21.979 -16.606  0.00  0.00    -0.107 NA
ATOM     31  N   UNL     1      26.428 -22.355 -17.772  0.00  0.00    -0.024 NA
ATOM     32  C   UNL     1      26.566 -22.415 -15.633  0.00  0.00    +0.215 C 
ENDBRANCH  25  28
ENDBRANCH  21  22
ENDBRANCH  20  21
ENDBRANCH   4  20
TORSDOF 6
ENDMDL
MODEL 2
REMARK VINA RESULT:     -12.0      6.430     10.305
REMARK  Name = 25025505
REMARK  6 active torsions:
REMARK  status: ('A' for Active; 'I' for Inactive)
REMARK    1  A    between atoms: C_3  and  C_9
REMARK    2  A    between atoms: C_4  and  C_20
REMARK    3  A    between atoms: C_17  and  C_18
REMARK    4  A    between atoms: C_20  and  O_21
REMARK    5  A    between atoms: O_21  and  C_22
REMARK    6  A    between atoms: C_25  and  N_28
REMARK                            x       y       z     vdW  Elec       q    Type
REMARK                         _______ _______ _______ _____ _____    ______ ____
ROOT
ATOM      1  S   UNL     1      34.152 -16.272 -24.900  0.00  0.00    -0.079 S 
ATOM      2  N   UNL     1      34.520 -15.972 -22.359  0.00  0.00    -0.404 NA
ATOM      3  C   UNL     1      34.013 -15.400 -23.428  0.00  0.00    +0.134 C 
ATOM      4  C   UNL     1      35.062 -17.191 -22.720  0.00  0.00    +0.142 C 
ATOM      5  C   UNL     1      34.958 -17.526 -24.054  0.00  0.00    +0.122 C 
ENDROOT
BRANCH   3   9
ATOM      6  N   UNL     1      32.989 -11.269 -22.693  0.00  0.00    -0.253 N 
ATOM      7  N   UNL     1      33.603  -9.037 -23.003  0.00  0.00    -0.203 NA
ATOM      8  N   UNL     1      31.794  -9.634 -21.528  0.00  0.00    -0.181 NA
ATOM      9  C   UNL     1      33.329 -14.046 -23.434  0.00  0.00    +0.062 C 
ATOM     10  C   UNL     1      32.842 -13.639 -22.035  0.00  0.00    +0.030 C 
ATOM     11  C   UNL     1      34.234 -12.944 -24.004  0.00  0.00    +0.030 C 
ATOM     12  C   UNL     1      32.136 -12.283 -22.063  0.00  0.00    +0.102 C 
ATOM     13  C   UNL     1      33.516 -11.594 -24.026  0.00  0.00    +0.102 C 
ATOM     14  C   UNL     1      32.786  -9.916 -22.395  0.00  0.00    +0.090 C 
ATOM     15  C   UNL     1      33.381  -7.743 -22.692  0.00  0.00    +0.161 C 
ATOM     16  C   UNL     1      31.627  -8.322 -21.262  0.00  0.00    +0.104 C 
ATOM     17  C   UNL     1      32.398  -7.322 -21.819  0.00  0.00    +0.001 C 
BRANCH  17  18
ATOM     18  C   UNL     1      32.184  -5.890 -21.503  0.00  0.00    +0.026 C 
ATOM     19  C   UNL     1      30.705  -5.535 -21.344  0.00  0.00    +0.005 C 
ENDBRANCH  17  18
ENDBRANCH   3   9
BRANCH   4  20
ATOM     20  C   UNL     1      35.693 -18.016 -21.670  0.00  0.00    +0.260 C 
BRANCH  20  21
ATOM     21  O   UNL     1      35.526 -19.401 -21.973  0.00  0.00    -0.468 OA
BRANCH  21  22
ATOM     22  C   UNL     1      35.047 -20.194 -20.967  0.00  0.00    +0.139 C 
ATOM     23  C   UNL     1      35.929 -20.946 -20.190  0.00  0.00    +0.038 C 
ATOM     24  C   UNL     1      33.676 -20.251 -20.716  0.00  0.00    +0.038 C 
ATOM     25  C   UNL     1      34.070 -21.812 -18.915  0.00  0.00    +0.078 C 
ATOM     26  C   UNL     1      35.440 -21.755 -19.165  0.00  0.00    +0.020 C 
ATOM     27  C   UNL     1      33.187 -21.060 -19.691  0.00  0.00    +0.020 C 
BRANCH  25  28
ATOM     28  N   UNL     1      33.585 -22.614 -17.898  0.00  0.00    -0.149 N 
ATOM     29  N   UNL     1      32.274 -22.816 -17.707  0.00  0.00    -0.048 NA
ATOM     30  N   UNL     1      33.456 -23.937 -16.184  0.00  0.00    -0.107 NA
ATOM     31  N   UNL     1      32.201 -23.626 -16.658  0.00  0.00    -0.024 NA
ATOM     32  C   UNL     1      34.297 -23.301 -16.967  0.00  0.00    +0.215 C 
ENDBRANCH  25  28
ENDBRANCH  21  22
ENDBRANCH  20  21
ENDBRANCH   4  20
TORSDOF 6
ENDMDL
MODEL 3
REMARK VINA RESULT:     -11.3      5.141      9.002
REMARK  Name = 25025505
REMARK  6 active torsions:
REMARK  status: ('A' for Active; 'I' for Inactive)
REMARK    1  A    between atoms: C_3  and  C_9
REMARK    2  A    between atoms: C_4  and  C_20
REMARK    3  A    between atoms: C_17  and  C_18
REMARK    4  A    between atoms: C_20  and  O_21
REMARK    5  A    between atoms: O_21  and  C_22
REMARK    6  A    between atoms: C_25  and  N_28
REMARK                            x       y       z     vdW  Elec       q    Type
REMARK                         _______ _______ _______ _____ _____    ______ ____
ROOT
ATOM      1  S   UNL     1      35.296 -18.389 -23.068  0.00  0.00    -0.079 S 
ATOM      2  N   UNL     1      34.378 -18.423 -20.652  0.00  0.00    -0.404 NA
ATOM      3  C   UNL     1      34.728 -17.629 -21.638  0.00  0.00    +0.134 C 
ATOM      4  C   UNL     1      34.569 -19.733 -21.045  0.00  0.00    +0.142 C 
ATOM      5  C   UNL     1      35.061 -19.915 -22.320  0.00  0.00    +0.122 C 
ENDROOT
BRANCH   3   9
ATOM      6  N   UNL     1      33.449 -13.521 -22.021  0.00  0.00    -0.253 N 
ATOM      7  N   UNL     1      31.921 -11.895 -21.328  0.00  0.00    -0.203 NA
ATOM      8  N   UNL     1      33.423 -11.485 -23.168  0.00  0.00    -0.181 NA
ATOM      9  C   UNL     1      34.658 -16.114 -21.586  0.00  0.00    +0.062 C 
ATOM     10  C   UNL     1      34.571 -15.491 -22.987  0.00  0.00    +0.030 C 
ATOM     11  C   UNL     1      33.484 -15.618 -20.729  0.00  0.00    +0.030 C 
ATOM     12  C   UNL     1      34.524 -13.964 -22.917  0.00  0.00    +0.102 C 
ATOM     13  C   UNL     1      33.450 -14.091 -20.667  0.00  0.00    +0.102 C 
ATOM     14  C   UNL     1      32.906 -12.240 -22.179  0.00  0.00    +0.090 C 
ATOM     15  C   UNL     1      31.420 -10.655 -21.510  0.00  0.00    +0.161 C 
ATOM     16  C   UNL     1      32.875 -10.258 -23.293  0.00  0.00    +0.104 C 
ATOM     17  C   UNL     1      31.861  -9.785 -22.485  0.00  0.00    +0.001 C 
BRANCH  17  18
ATOM     18  C   UNL     1      31.285  -8.430 -22.653  0.00  0.00    +0.026 C 
ATOM     19  C   UNL     1      32.173  -7.334 -22.061  0.00  0.00    +0.005 C 
ENDBRANCH  17  18
ENDBRANCH   3   9
BRANCH   4  20
ATOM     20  C   UNL     1      34.240 -20.808 -20.087  0.00  0.00    +0.260 C 
BRANCH  20  21
ATOM     21  O   UNL     1      35.369 -21.662 -19.906  0.00  0.00    -0.468 OA
BRANCH  21  22
ATOM     22  C   UNL     1      35.635 -22.063 -18.626  0.00  0.00    +0.139 C 
ATOM     23  C   UNL     1      34.657 -22.728 -17.885  0.00  0.00    +0.038 C 
ATOM     24  C   UNL     1      36.883 -21.806 -18.059  0.00  0.00    +0.038 C 
ATOM     25  C   UNL     1      36.176 -22.878 -16.014  0.00  0.00    +0.078 C 
ATOM     26  C   UNL     1      34.928 -23.136 -16.579  0.00  0.00    +0.020 C 
ATOM     27  C   UNL     1      37.155 -22.213 -16.753  0.00  0.00    +0.020 C 
BRANCH  25  28
ATOM     28  N   UNL     1      36.445 -23.283 -14.718  0.00  0.00    -0.149 N 
ATOM     29  N   UNL     1      37.670 -23.203 -14.182  0.00  0.00    -0.048 NA
ATOM     30  N   UNL     1      36.235 -24.052 -12.702  0.00  0.00    -0.107 NA
ATOM     31  N   UNL     1      37.537 -23.675 -12.948  0.00  0.00    -0.024 NA
ATOM     32  C   UNL     1      35.577 -23.801 -13.810  0.00  0.00    +0.215 C 
ENDBRANCH  25  28
ENDBRANCH  21  22
ENDBRANCH  20  21
ENDBRANCH   4  20
TORSDOF 6
ENDMDL
MODEL 4
REMARK VINA RESULT:     -11.1      6.603     10.468
REMARK  Name = 25025505
REMARK  6 active torsions:
REMARK  status: ('A' for Active; 'I' for Inactive)
REMARK    1  A    between atoms: C_3  and  C_9
REMARK    2  A    between atoms: C_4  and  C_20
REMARK    3  A    between atoms: C_17  and  C_18
REMARK    4  A    between atoms: C_20  and  O_21
REMARK    5  A    between atoms: O_21  and  C_22
REMARK    6  A    between atoms: C_25  and  N_28
REMARK                            x       y       z     vdW  Elec       q    Type
REMARK                         _______ _______ _______ _____ _____    ______ ____
ROOT
ATOM      1  S   UNL     1      33.669 -15.308 -20.262  0.00  0.00    -0.079 S 
ATOM      2  N   UNL     1      34.519 -15.812 -22.651  0.00  0.00    -0.404 NA
ATOM      3  C   UNL     1      33.847 -14.943 -21.930  0.00  0.00    +0.134 C 
ATOM      4  C   UNL     1      34.928 -16.848 -21.834  0.00  0.00    +0.142 C 
ATOM      5  C   UNL     1      34.562 -16.751 -20.508  0.00  0.00    +0.122 C 
ENDROOT
BRANCH   3   9
ATOM      6  N   UNL     1      32.834 -10.805 -22.640  0.00  0.00    -0.253 N 
ATOM      7  N   UNL     1      33.588  -8.730 -23.405  0.00  0.00    -0.203 NA
ATOM      8  N   UNL     1      31.460  -8.947 -22.296  0.00  0.00    -0.181 NA
ATOM      9  C   UNL     1      33.235 -13.666 -22.475  0.00  0.00    +0.062 C 
ATOM     10  C   UNL     1      32.446 -12.900 -21.403  0.00  0.00    +0.030 C 
ATOM     11  C   UNL     1      34.289 -12.740 -23.098  0.00  0.00    +0.030 C 
ATOM     12  C   UNL     1      31.818 -11.628 -21.975  0.00  0.00    +0.102 C 
ATOM     13  C   UNL     1      33.648 -11.473 -23.665  0.00  0.00    +0.102 C 
ATOM     14  C   UNL     1      32.617  -9.429 -22.788  0.00  0.00    +0.090 C 
ATOM     15  C   UNL     1      33.346  -7.408 -23.529  0.00  0.00    +0.161 C 
ATOM     16  C   UNL     1      31.284  -7.619 -22.454  0.00  0.00    +0.104 C 
ATOM     17  C   UNL     1      32.202  -6.791 -23.068  0.00  0.00    +0.001 C 
BRANCH  17  18
ATOM     18  C   UNL     1      31.973  -5.335 -23.223  0.00  0.00    +0.026 C 
ATOM     19  C   UNL     1      32.496  -4.795 -24.556  0.00  0.00    +0.005 C 
ENDBRANCH  17  18
ENDBRANCH   3   9
BRANCH   4  20
ATOM     20  C   UNL     1      35.706 -17.950 -22.435  0.00  0.00    +0.260 C 
BRANCH  20  21
ATOM     21  O   UNL     1      34.864 -19.082 -22.647  0.00  0.00    -0.468 OA
BRANCH  21  22
ATOM     22  C   UNL     1      34.648 -19.895 -21.569  0.00  0.00    +0.139 C 
ATOM     23  C   UNL     1      35.728 -20.472 -20.901  0.00  0.00    +0.038 C 
ATOM     24  C   UNL     1      33.346 -20.147 -21.136  0.00  0.00    +0.038 C 
ATOM     25  C   UNL     1      34.205 -21.553 -19.370  0.00  0.00    +0.078 C 
ATOM     26  C   UNL     1      35.507 -21.302 -19.802  0.00  0.00    +0.020 C 
ATOM     27  C   UNL     1      33.124 -20.976 -20.036  0.00  0.00    +0.020 C 
BRANCH  25  28
ATOM     28  N   UNL     1      33.986 -22.376 -18.280  0.00  0.00    -0.149 N 
ATOM     29  N   UNL     1      32.770 -22.845 -17.969  0.00  0.00    -0.048 NA
ATOM     30  N   UNL     1      34.278 -23.583 -16.502  0.00  0.00    -0.107 NA
ATOM     31  N   UNL     1      32.954 -23.583 -16.881  0.00  0.00    -0.024 NA
ATOM     32  C   UNL     1      34.898 -22.831 -17.381  0.00  0.00    +0.215 C 
ENDBRANCH  25  28
ENDBRANCH  21  22
ENDBRANCH  20  21
ENDBRANCH   4  20
TORSDOF 6
ENDMDL
MODEL 5
REMARK VINA RESULT:     -10.9      5.057     10.659
REMARK  Name = 25025505
REMARK  6 active torsions:
REMARK  status: ('A' for Active; 'I' for Inactive)
REMARK    1  A    between atoms: C_3  and  C_9
REMARK    2  A    between atoms: C_4  and  C_20
REMARK    3  A    between atoms: C_17  and  C_18
REMARK    4  A    between atoms: C_20  and  O_21
REMARK    5  A    between atoms: O_21  and  C_22
REMARK    6  A    between atoms: C_25  and  N_28
REMARK                            x       y       z     vdW  Elec       q    Type
REMARK                         _______ _______ _______ _____ _____    ______ ____
ROOT
ATOM      1  S   UNL     1      33.609 -20.939 -20.196  0.00  0.00    -0.079 S 
ATOM      2  N   UNL     1      36.102 -20.290 -20.403  0.00  0.00    -0.404 NA
ATOM      3  C   UNL     1      35.265 -21.078 -19.767  0.00  0.00    +0.134 C 
ATOM      4  C   UNL     1      35.393 -19.516 -21.300  0.00  0.00    +0.142 C 
ATOM      5  C   UNL     1      34.030 -19.725 -21.331  0.00  0.00    +0.122 C 
ENDROOT
BRANCH   3   9
ATOM      6  N   UNL     1      36.051 -23.021 -15.990  0.00  0.00    -0.253 N 
ATOM      7  N   UNL     1      35.121 -23.931 -14.050  0.00  0.00    -0.203 NA
ATOM      8  N   UNL     1      37.500 -23.607 -14.254  0.00  0.00    -0.181 NA
ATOM      9  C   UNL     1      35.669 -22.078 -18.699  0.00  0.00    +0.062 C 
ATOM     10  C   UNL     1      36.809 -21.550 -17.815  0.00  0.00    +0.030 C 
ATOM     11  C   UNL     1      34.483 -22.492 -17.816  0.00  0.00    +0.030 C 
ATOM     12  C   UNL     1      37.219 -22.578 -16.760  0.00  0.00    +0.102 C 
ATOM     13  C   UNL     1      34.907 -23.519 -16.766  0.00  0.00    +0.102 C 
ATOM     14  C   UNL     1      36.232 -23.545 -14.704  0.00  0.00    +0.090 C 
ATOM     15  C   UNL     1      35.332 -24.430 -12.814  0.00  0.00    +0.161 C 
ATOM     16  C   UNL     1      37.638 -24.116 -13.012  0.00  0.00    +0.104 C 
ATOM     17  C   UNL     1      36.580 -24.547 -12.237  0.00  0.00    +0.001 C 
BRANCH  17  18
ATOM     18  C   UNL     1      36.772 -25.100 -10.875  0.00  0.00    +0.026 C 
ATOM     19  C   UNL     1      35.664 -24.681  -9.908  0.00  0.00    +0.005 C 
ENDBRANCH  17  18
ENDBRANCH   3   9
BRANCH   4  20
ATOM     20  C   UNL     1      36.135 -18.548 -22.132  0.00  0.00    +0.260 C 
BRANCH  20  21
ATOM     21  O   UNL     1      35.318 -18.110 -23.217  0.00  0.00    -0.468 OA
BRANCH  21  22
ATOM     22  C   UNL     1      34.885 -16.814 -23.172  0.00  0.00    +0.139 C 
ATOM     23  C   UNL     1      34.443 -16.184 -24.337  0.00  0.00    +0.038 C 
ATOM     24  C   UNL     1      34.884 -16.120 -21.963  0.00  0.00    +0.038 C 
ATOM     25  C   UNL     1      34.002 -14.169 -23.081  0.00  0.00    +0.078 C 
ATOM     26  C   UNL     1      34.002 -14.862 -24.291  0.00  0.00    +0.020 C 
ATOM     27  C   UNL     1      34.443 -14.798 -21.916  0.00  0.00    +0.020 C 
BRANCH  25  28
ATOM     28  N   UNL     1      33.564 -12.858 -23.036  0.00  0.00    -0.149 N 
ATOM     29  N   UNL     1      32.584 -12.457 -22.215  0.00  0.00    -0.048 NA
ATOM     30  N   UNL     1      33.333 -10.736 -23.418  0.00  0.00    -0.107 NA
ATOM     31  N   UNL     1      32.446 -11.158 -22.453  0.00  0.00    -0.024 NA
ATOM     32  C   UNL     1      34.015 -11.803 -23.764  0.00  0.00    +0.215 C 
ENDBRANCH  25  28
ENDBRANCH  21  22
ENDBRANCH  20  21
ENDBRANCH   4  20
TORSDOF 6
ENDMDL
MODEL 6
REMARK VINA RESULT:     -10.7      5.795     11.150
REMARK  Name = 25025505
REMARK  6 active torsions:
REMARK  status: ('A' for Active; 'I' for Inactive)
REMARK    1  A    between atoms: C_3  and  C_9
REMARK    2  A    between atoms: C_4  and  C_20
REMARK    3  A    between atoms: C_17  and  C_18
REMARK    4  A    between atoms: C_20  and  O_21
REMARK    5  A    between atoms: O_21  and  C_22
REMARK    6  A    between atoms: C_25  and  N_28
REMARK                            x       y       z     vdW  Elec       q    Type
REMARK                         _______ _______ _______ _____ _____    ______ ____
ROOT
ATOM      1  S   UNL     1      35.300 -19.515 -23.172  0.00  0.00    -0.079 S 
ATOM      2  N   UNL     1      35.002 -18.137 -21.006  0.00  0.00    -0.404 NA
ATOM      3  C   UNL     1      35.227 -19.347 -21.466  0.00  0.00    +0.134 C 
ATOM      4  C   UNL     1      34.877 -17.270 -22.073  0.00  0.00    +0.142 C 
ATOM      5  C   UNL     1      35.007 -17.832 -23.326  0.00  0.00    +0.122 C 
ENDROOT
BRANCH   3   9
ATOM      6  N   UNL     1      35.495 -22.044 -18.103  0.00  0.00    -0.253 N 
ATOM      7  N   UNL     1      34.327 -23.149 -16.408  0.00  0.00    -0.203 NA
ATOM      8  N   UNL     1      36.736 -23.145 -16.458  0.00  0.00    -0.181 NA
ATOM      9  C   UNL     1      35.422 -20.574 -20.595  0.00  0.00    +0.062 C 
ATOM     10  C   UNL     1      36.563 -20.391 -19.584  0.00  0.00    +0.030 C 
ATOM     11  C   UNL     1      34.136 -20.965 -19.851  0.00  0.00    +0.030 C 
ATOM     12  C   UNL     1      36.760 -21.644 -18.730  0.00  0.00    +0.102 C 
ATOM     13  C   UNL     1      34.346 -22.218 -19.002  0.00  0.00    +0.102 C 
ATOM     14  C   UNL     1      35.520 -22.816 -16.935  0.00  0.00    +0.090 C 
ATOM     15  C   UNL     1      34.388 -23.891 -15.283  0.00  0.00    +0.161 C 
ATOM     16  C   UNL     1      36.723 -23.888 -15.331  0.00  0.00    +0.104 C 
ATOM     17  C   UNL     1      35.569 -24.294 -14.693  0.00  0.00    +0.001 C 
BRANCH  17  18
ATOM     18  C   UNL     1      35.595 -25.110 -13.456  0.00  0.00    +0.026 C 
ATOM     19  C   UNL     1      34.883 -24.429 -12.285  0.00  0.00    +0.005 C 
ENDBRANCH  17  18
ENDBRANCH   3   9
BRANCH   4  20
ATOM     20  C   UNL     1      34.618 -15.844 -21.792  0.00  0.00    +0.260 C 
BRANCH  20  21
ATOM     21  O   UNL     1      33.852 -15.269 -22.850  0.00  0.00    -0.468 OA
BRANCH  21  22
ATOM     22  C   UNL     1      33.441 -13.976 -22.677  0.00  0.00    +0.139 C 
ATOM     23  C   UNL     1      33.954 -12.965 -23.490  0.00  0.00    +0.038 C 
ATOM     24  C   UNL     1      32.509 -13.667 -21.687  0.00  0.00    +0.038 C 
ATOM     25  C   UNL     1      32.604 -11.339 -22.322  0.00  0.00    +0.078 C 
ATOM     26  C   UNL     1      33.536 -11.647 -23.312  0.00  0.00    +0.020 C 
ATOM     27  C   UNL     1      32.089 -12.349 -21.509  0.00  0.00    +0.020 C 
BRANCH  25  28
ATOM     28  N   UNL     1      32.188 -10.031 -22.146  0.00  0.00    -0.149 N 
ATOM     29  N   UNL     1      31.969  -9.203 -23.177  0.00  0.00    -0.048 NA
ATOM     30  N   UNL     1      31.569  -8.157 -21.249  0.00  0.00    -0.107 NA
ATOM     31  N   UNL     1      31.590  -8.058 -22.623  0.00  0.00    -0.024 NA
ATOM     32  C   UNL     1      31.942  -9.385 -20.976  0.00  0.00    +0.215 C 
ENDBRANCH  25  28
ENDBRANCH  21  22
ENDBRANCH  20  21
ENDBRANCH   4  20
TORSDOF 6
ENDMDL
MODEL 7
REMARK VINA RESULT:     -10.7      6.620     10.842
REMARK  Name = 25025505
REMARK  6 active torsions:
REMARK  status: ('A' for Active; 'I' for Inactive)
REMARK    1  A    between atoms: C_3  and  C_9
REMARK    2  A    between atoms: C_4  and  C_20
REMARK    3  A    between atoms: C_17  and  C_18
REMARK    4  A    between atoms: C_20  and  O_21
REMARK    5  A    between atoms: O_21  and  C_22
REMARK    6  A    between atoms: C_25  and  N_28
REMARK                            x       y       z     vdW  Elec       q    Type
REMARK                         _______ _______ _______ _____ _____    ______ ____
ROOT
ATOM      1  S   UNL     1      33.452 -15.551 -25.388  0.00  0.00    -0.079 S 
ATOM      2  N   UNL     1      34.721 -16.260 -23.250  0.00  0.00    -0.404 NA
ATOM      3  C   UNL     1      34.165 -15.236 -23.859  0.00  0.00    +0.134 C 
ATOM      4  C   UNL     1      34.578 -17.381 -24.043  0.00  0.00    +0.142 C 
ATOM      5  C   UNL     1      33.918 -17.194 -25.240  0.00  0.00    +0.122 C 
ENDROOT
BRANCH   3   9
ATOM      6  N   UNL     1      33.123 -11.118 -23.075  0.00  0.00    -0.253 N 
ATOM      7  N   UNL     1      31.505  -9.655 -22.239  0.00  0.00    -0.203 NA
ATOM      8  N   UNL     1      33.441  -8.828 -23.411  0.00  0.00    -0.181 NA
ATOM      9  C   UNL     1      34.119 -13.827 -23.299  0.00  0.00    +0.062 C 
ATOM     10  C   UNL     1      34.412 -12.768 -24.373  0.00  0.00    +0.030 C 
ATOM     11  C   UNL     1      32.774 -13.516 -22.626  0.00  0.00    +0.030 C 
ATOM     12  C   UNL     1      34.383 -11.356 -23.788  0.00  0.00    +0.102 C 
ATOM     13  C   UNL     1      32.759 -12.102 -22.045  0.00  0.00    +0.102 C 
ATOM     14  C   UNL     1      32.669  -9.806 -22.899  0.00  0.00    +0.090 C 
ATOM     15  C   UNL     1      31.096  -8.378 -22.090  0.00  0.00    +0.161 C 
ATOM     16  C   UNL     1      32.973  -7.577 -23.225  0.00  0.00    +0.104 C 
ATOM     17  C   UNL     1      31.795  -7.288 -22.567  0.00  0.00    +0.001 C 
BRANCH  17  18
ATOM     18  C   UNL     1      31.313  -5.899 -22.382  0.00  0.00    +0.026 C 
ATOM     19  C   UNL     1      31.758  -4.965 -23.508  0.00  0.00    +0.005 C 
ENDBRANCH  17  18
ENDBRANCH   3   9
BRANCH   4  20
ATOM     20  C   UNL     1      35.133 -18.660 -23.556  0.00  0.00    +0.260 C 
BRANCH  20  21
ATOM     21  O   UNL     1      35.650 -18.496 -22.237  0.00  0.00    -0.468 OA
BRANCH  21  22
ATOM     22  C   UNL     1      35.309 -19.453 -21.322  0.00  0.00    +0.139 C 
ATOM     23  C   UNL     1      33.966 -19.760 -21.099  0.00  0.00    +0.038 C 
ATOM     24  C   UNL     1      36.303 -20.124 -20.610  0.00  0.00    +0.038 C 
ATOM     25  C   UNL     1      34.613 -21.406 -19.454  0.00  0.00    +0.078 C 
ATOM     26  C   UNL     1      33.618 -20.736 -20.165  0.00  0.00    +0.020 C 
ATOM     27  C   UNL     1      35.956 -21.101 -19.676  0.00  0.00    +0.020 C 
BRANCH  25  28
ATOM     28  N   UNL     1      34.268 -22.374 -18.529  0.00  0.00    -0.149 N 
ATOM     29  N   UNL     1      33.140 -23.091 -18.626  0.00  0.00    -0.048 NA
ATOM     30  N   UNL     1      34.287 -23.703 -16.815  0.00  0.00    -0.107 NA
ATOM     31  N   UNL     1      33.157 -23.902 -17.576  0.00  0.00    -0.024 NA
ATOM     32  C   UNL     1      34.961 -22.754 -17.423  0.00  0.00    +0.215 C 
ENDBRANCH  25  28
ENDBRANCH  21  22
ENDBRANCH  20  21
ENDBRANCH   4  20
TORSDOF 6
ENDMDL
MODEL 8
REMARK VINA RESULT:     -10.6      5.405      8.782
REMARK  Name = 25025505
REMARK  6 active torsions:
REMARK  status: ('A' for Active; 'I' for Inactive)
REMARK    1  A    between atoms: C_3  and  C_9
REMARK    2  A    between atoms: C_4  and  C_20
REMARK    3  A    between atoms: C_17  and  C_18
REMARK    4  A    between atoms: C_20  and  O_21
REMARK    5  A    between atoms: O_21  and  C_22
REMARK    6  A    between atoms: C_25  and  N_28
REMARK                            x       y       z     vdW  Elec       q    Type
REMARK                         _______ _______ _______ _____ _____    ______ ____
ROOT
ATOM      1  S   UNL     1      35.171 -17.713 -23.542  0.00  0.00    -0.079 S 
ATOM      2  N   UNL     1      35.296 -17.511 -20.968  0.00  0.00    -0.404 NA
ATOM      3  C   UNL     1      34.749 -16.990 -22.044  0.00  0.00    +0.134 C 
ATOM      4  C   UNL     1      36.111 -18.560 -21.345  0.00  0.00    +0.142 C 
ATOM      5  C   UNL     1      36.172 -18.821 -22.698  0.00  0.00    +0.122 C 
ENDROOT
BRANCH   3   9
ATOM      6  N   UNL     1      33.058 -13.019 -21.885  0.00  0.00    -0.253 N 
ATOM      7  N   UNL     1      32.868 -10.950 -22.954  0.00  0.00    -0.203 NA
ATOM      8  N   UNL     1      32.062 -11.266 -20.705  0.00  0.00    -0.181 NA
ATOM      9  C   UNL     1      33.789 -15.815 -22.036  0.00  0.00    +0.062 C 
ATOM     10  C   UNL     1      33.835 -15.041 -20.710  0.00  0.00    +0.030 C 
ATOM     11  C   UNL     1      34.047 -14.851 -23.203  0.00  0.00    +0.030 C 
ATOM     12  C   UNL     1      32.846 -13.874 -20.711  0.00  0.00    +0.102 C 
ATOM     13  C   UNL     1      33.052 -13.690 -23.192  0.00  0.00    +0.102 C 
ATOM     14  C   UNL     1      32.642 -11.682 -21.846  0.00  0.00    +0.090 C 
ATOM     15  C   UNL     1      32.457  -9.667 -22.881  0.00  0.00    +0.161 C 
ATOM     16  C   UNL     1      31.676  -9.973 -20.701  0.00  0.00    +0.104 C 
ATOM     17  C   UNL     1      31.850  -9.118 -21.771  0.00  0.00    +0.001 C 
BRANCH  17  18
ATOM     18  C   UNL     1      31.412  -7.702 -21.730  0.00  0.00    +0.026 C 
ATOM     19  C   UNL     1      32.427  -6.790 -21.039  0.00  0.00    +0.005 C 
ENDBRANCH  17  18
ENDBRANCH   3   9
BRANCH   4  20
ATOM     20  C   UNL     1      36.835 -19.299 -20.292  0.00  0.00    +0.260 C 
BRANCH  20  21
ATOM     21  O   UNL     1      36.630 -20.702 -20.452  0.00  0.00    -0.468 OA
BRANCH  21  22
ATOM     22  C   UNL     1      35.716 -21.286 -19.619  0.00  0.00    +0.139 C 
ATOM     23  C   UNL     1      34.354 -21.214 -19.915  0.00  0.00    +0.038 C 
ATOM     24  C   UNL     1      36.144 -21.954 -18.472  0.00  0.00    +0.038 C 
ATOM     25  C   UNL     1      33.851 -22.476 -17.919  0.00  0.00    +0.078 C 
ATOM     26  C   UNL     1      33.422 -21.808 -19.065  0.00  0.00    +0.020 C 
ATOM     27  C   UNL     1      35.212 -22.549 -17.621  0.00  0.00    +0.020 C 
BRANCH  25  28
ATOM     28  N   UNL     1      32.927 -23.066 -17.075  0.00  0.00    -0.149 N 
ATOM     29  N   UNL     1      31.606 -22.980 -17.286  0.00  0.00    -0.048 NA
ATOM     30  N   UNL     1      32.017 -24.171 -15.447  0.00  0.00    -0.107 NA
ATOM     31  N   UNL     1      31.054 -23.657 -16.287  0.00  0.00    -0.024 NA
ATOM     32  C   UNL     1      33.167 -23.793 -15.953  0.00  0.00    +0.215 C 
ENDBRANCH  25  28
ENDBRANCH  21  22
ENDBRANCH  20  21
ENDBRANCH   4  20
TORSDOF 6
ENDMDL
MODEL 9
REMARK VINA RESULT:     -10.5      5.014      8.565
REMARK  Name = 25025505
REMARK  6 active torsions:
REMARK  status: ('A' for Active; 'I' for Inactive)
REMARK    1  A    between atoms: C_3  and  C_9
REMARK    2  A    between atoms: C_4  and  C_20
REMARK    3  A    between atoms: C_17  and  C_18
REMARK    4  A    between atoms: C_20  and  O_21
REMARK    5  A    between atoms: O_21  and  C_22
REMARK    6  A    between atoms: C_25  and  N_28
REMARK                            x       y       z     vdW  Elec       q    Type
REMARK                         _______ _______ _______ _____ _____    ______ ____
ROOT
ATOM      1  S   UNL     1      37.061 -18.571 -21.217  0.00  0.00    -0.079 S 
ATOM      2  N   UNL     1      34.861 -19.820 -20.690  0.00  0.00    -0.404 NA
ATOM      3  C   UNL     1      35.350 -18.694 -21.158  0.00  0.00    +0.134 C 
ATOM      4  C   UNL     1      35.907 -20.655 -20.350  0.00  0.00    +0.142 C 
ATOM      5  C   UNL     1      37.173 -20.152 -20.564  0.00  0.00    +0.122 C 
ENDROOT
BRANCH   3   9
ATOM      6  N   UNL     1      33.933 -14.735 -22.146  0.00  0.00    -0.253 N 
ATOM      7  N   UNL     1      34.218 -12.860 -23.510  0.00  0.00    -0.203 NA
ATOM      8  N   UNL     1      32.715 -12.810 -21.628  0.00  0.00    -0.181 NA
ATOM      9  C   UNL     1      34.509 -17.525 -21.637  0.00  0.00    +0.062 C 
ATOM     10  C   UNL     1      34.171 -16.552 -20.499  0.00  0.00    +0.030 C 
ATOM     11  C   UNL     1      35.185 -16.759 -22.784  0.00  0.00    +0.030 C 
ATOM     12  C   UNL     1      33.305 -15.393 -20.994  0.00  0.00    +0.102 C 
ATOM     13  C   UNL     1      34.309 -15.604 -23.270  0.00  0.00    +0.102 C 
ATOM     14  C   UNL     1      33.606 -13.406 -22.442  0.00  0.00    +0.090 C 
ATOM     15  C   UNL     1      33.882 -11.579 -23.765  0.00  0.00    +0.161 C 
ATOM     16  C   UNL     1      32.425 -11.531 -21.941  0.00  0.00    +0.104 C 
ATOM     17  C   UNL     1      32.983 -10.856 -23.008  0.00  0.00    +0.001 C 
BRANCH  17  18
ATOM     18  C   UNL     1      32.639  -9.449 -23.321  0.00  0.00    +0.026 C 
ATOM     19  C   UNL     1      33.309  -8.453 -22.373  0.00  0.00    +0.005 C 
ENDBRANCH  17  18
ENDBRANCH   3   9
BRANCH   4  20
ATOM     20  C   UNL     1      35.590 -21.987 -19.797  0.00  0.00    +0.260 C 
BRANCH  20  21
ATOM     21  O   UNL     1      34.955 -21.849 -18.526  0.00  0.00    -0.468 OA
BRANCH  21  22
ATOM     22  C   UNL     1      35.622 -22.366 -17.450  0.00  0.00    +0.139 C 
ATOM     23  C   UNL     1      36.973 -22.076 -17.259  0.00  0.00    +0.038 C 
ATOM     24  C   UNL     1      34.951 -23.183 -16.541  0.00  0.00    +0.038 C 
ATOM     25  C   UNL     1      36.981 -23.421 -15.254  0.00  0.00    +0.078 C 
ATOM     26  C   UNL     1      37.652 -22.603 -16.162  0.00  0.00    +0.020 C 
ATOM     27  C   UNL     1      35.629 -23.711 -15.443  0.00  0.00    +0.020 C 
BRANCH  25  28
ATOM     28  N   UNL     1      37.654 -23.944 -14.165  0.00  0.00    -0.149 N 
ATOM     29  N   UNL     1      37.689 -23.324 -12.977  0.00  0.00    -0.048 NA
ATOM     30  N   UNL     1      38.841 -25.231 -12.885  0.00  0.00    -0.107 NA
ATOM     31  N   UNL     1      38.416 -24.115 -12.198  0.00  0.00    -0.024 NA
ATOM     32  C   UNL     1      38.358 -25.105 -14.099  0.00  0.00    +0.215 C 
ENDBRANCH  25  28
ENDBRANCH  21  22
ENDBRANCH  20  21
ENDBRANCH   4  20
TORSDOF 6
ENDMDL
