MODEL 1
REMARK VINA RESULT:     -11.6      0.000      0.000
REMARK  Name = 44129624
REMARK  6 active torsions:
REMARK  status: ('A' for Active; 'I' for Inactive)
REMARK    1  A    between atoms: C_1  and  O_20
REMARK    2  A    between atoms: C_4  and  C_8
REMARK    3  A    between atoms: C_8  and  C_9
REMARK    4  A    between atoms: C_10  and  C_16
REMARK    5  A    between atoms: O_20  and  C_21
REMARK    6  A    between atoms: C_21  and  C_23
REMARK                            x       y       z     vdW  Elec       q    Type
REMARK                         _______ _______ _______ _____ _____    ______ ____
ROOT
ATOM      1  C   UNL     1      33.625 -22.266 -18.884  0.00  0.00    +0.138 C 
ATOM      2  C   UNL     1      33.077 -21.261 -19.681  0.00  0.00    +0.037 C 
ATOM      3  C   UNL     1      35.010 -22.377 -18.755  0.00  0.00    +0.037 C 
ATOM      4  C   UNL     1      35.297 -20.477 -20.220  0.00  0.00    +0.039 C 
ATOM      5  C   UNL     1      33.912 -20.367 -20.349  0.00  0.00    +0.006 C 
ATOM      6  C   UNL     1      35.845 -21.482 -19.423  0.00  0.00    +0.006 C 
ENDROOT
BRANCH   4   8
ATOM      7  O   UNL     1      37.400 -19.662 -20.837  0.00  0.00    -0.287 OA
ATOM      8  C   UNL     1      36.168 -19.543 -20.914  0.00  0.00    +0.196 C 
BRANCH   8   9
ATOM      9  C   UNL     1      35.639 -18.414 -21.739  0.00  0.00    +0.039 C 
ATOM     10  C   UNL     1      34.649 -16.309 -23.278  0.00  0.00    +0.001 C 
ATOM     11  C   UNL     1      35.496 -18.567 -23.118  0.00  0.00    +0.003 C 
ATOM     12  C   UNL     1      35.288 -17.209 -21.130  0.00  0.00    +0.003 C 
ATOM     13  C   UNL     1      35.001 -17.513 -23.887  0.00  0.00    +0.000 C 
ATOM     14  C   UNL     1      34.793 -16.157 -21.899  0.00  0.00    +0.000 C 
BRANCH  10  16
ATOM     15  S   UNL     1      33.529 -12.821 -24.737  0.00  0.00    -0.086 S 
ATOM     16  C   UNL     1      34.140 -15.227 -24.072  0.00  0.00    +0.007 C 
ATOM     17  C   UNL     1      33.537 -15.314 -25.360  0.00  0.00    +0.007 C 
ATOM     18  C   UNL     1      34.198 -13.928 -23.615  0.00  0.00    +0.035 C 
ATOM     19  C   UNL     1      33.158 -14.078 -25.839  0.00  0.00    +0.035 C 
ENDBRANCH  10  16
ENDBRANCH   8   9
ENDBRANCH   4   8
BRANCH   1  20
ATOM     20  O   UNL     1      32.803 -23.147 -18.227  0.00  0.00    -0.478 OA
BRANCH  20  21
ATOM     21  C   UNL     1      33.170 -23.502 -16.904  0.00  0.00    +0.184 C 
BRANCH  21  23
ATOM     22  N   UNL     1      30.741 -23.072 -16.645  0.00  0.00    +0.388 N 
ATOM     23  C   UNL     1      31.908 -23.785 -16.104  0.00  0.00    -0.017 C 
ATOM     24  C   UNL     1      31.987 -23.283 -14.671  0.00  0.00    -0.020 C 
ATOM     25  C   UNL     1      30.533 -23.100 -14.264  0.00  0.00    -0.025 C 
ATOM     26  C   UNL     1      29.747 -23.119 -15.567  0.00  0.00    -0.082 C 
ATOM     27  H   UNL     1      30.389 -23.539 -17.480  0.00  0.00    -0.084 HD
ATOM     28  H   UNL     1      30.966 -22.116 -16.921  0.00  0.00    -0.084 HD
ENDBRANCH  21  23
ENDBRANCH  20  21
ENDBRANCH   1  20
TORSDOF 6
ENDMDL
MODEL 2
REMARK VINA RESULT:     -11.3      1.143      1.573
REMARK  Name = 44129624
REMARK  6 active torsions:
REMARK  status: ('A' for Active; 'I' for Inactive)
REMARK    1  A    between atoms: C_1  and  O_20
REMARK    2  A    between atoms: C_4  and  C_8
REMARK    3  A    between atoms: C_8  and  C_9
REMARK    4  A    between atoms: C_10  and  C_16
REMARK    5  A    between atoms: O_20  and  C_21
REMARK    6  A    between atoms: C_21  and  C_23
REMARK                            x       y       z     vdW  Elec       q    Type
REMARK                         _______ _______ _______ _____ _____    ______ ____
ROOT
ATOM      1  C   UNL     1      33.738 -22.022 -19.254  0.00  0.00    +0.138 C 
ATOM      2  C   UNL     1      33.020 -21.070 -19.975  0.00  0.00    +0.037 C 
ATOM      3  C   UNL     1      35.133 -22.000 -19.264  0.00  0.00    +0.037 C 
ATOM      4  C   UNL     1      35.090 -20.071 -20.719  0.00  0.00    +0.039 C 
ATOM      5  C   UNL     1      33.695 -20.094 -20.708  0.00  0.00    +0.006 C 
ATOM      6  C   UNL     1      35.809 -21.024 -19.997  0.00  0.00    +0.006 C 
ENDROOT
BRANCH   4   8
ATOM      7  O   UNL     1      36.907 -19.295 -21.969  0.00  0.00    -0.287 OA
ATOM      8  C   UNL     1      35.794 -19.052 -21.481  0.00  0.00    +0.196 C 
BRANCH   8   9
ATOM      9  C   UNL     1      35.227 -17.688 -21.711  0.00  0.00    +0.039 C 
ATOM     10  C   UNL     1      34.168 -15.144 -22.140  0.00  0.00    +0.001 C 
ATOM     11  C   UNL     1      35.129 -17.184 -23.007  0.00  0.00    +0.003 C 
ATOM     12  C   UNL     1      34.797 -16.920 -20.628  0.00  0.00    +0.003 C 
ATOM     13  C   UNL     1      34.599 -15.912 -23.221  0.00  0.00    +0.000 C 
ATOM     14  C   UNL     1      34.268 -15.648 -20.843  0.00  0.00    +0.000 C 
BRANCH  10  16
ATOM     15  S   UNL     1      33.320 -11.510 -23.414  0.00  0.00    -0.086 S 
ATOM     16  C   UNL     1      33.622 -13.835 -22.362  0.00  0.00    +0.007 C 
ATOM     17  C   UNL     1      32.547 -13.220 -21.659  0.00  0.00    +0.007 C 
ATOM     18  C   UNL     1      34.135 -13.014 -23.344  0.00  0.00    +0.035 C 
ATOM     19  C   UNL     1      32.278 -11.953 -22.130  0.00  0.00    +0.035 C 
ENDBRANCH  10  16
ENDBRANCH   8   9
ENDBRANCH   4   8
BRANCH   1  20
ATOM     20  O   UNL     1      33.074 -22.983 -18.533  0.00  0.00    -0.478 OA
BRANCH  20  21
ATOM     21  C   UNL     1      33.420 -23.111 -17.164  0.00  0.00    +0.184 C 
BRANCH  21  23
ATOM     22  N   UNL     1      30.984 -22.879 -16.756  0.00  0.00    +0.388 N 
ATOM     23  C   UNL     1      32.206 -23.613 -16.397  0.00  0.00    -0.017 C 
ATOM     24  C   UNL     1      32.317 -23.389 -14.897  0.00  0.00    -0.020 C 
ATOM     25  C   UNL     1      30.872 -23.371 -14.420  0.00  0.00    -0.025 C 
ATOM     26  C   UNL     1      30.037 -23.188 -15.679  0.00  0.00    -0.082 C 
ATOM     27  H   UNL     1      30.624 -23.200 -17.655  0.00  0.00    -0.084 HD
ATOM     28  H   UNL     1      31.149 -21.878 -16.850  0.00  0.00    -0.084 HD
ENDBRANCH  21  23
ENDBRANCH  20  21
ENDBRANCH   1  20
TORSDOF 6
ENDMDL
MODEL 3
REMARK VINA RESULT:     -10.9      4.464      9.125
REMARK  Name = 44129624
REMARK  6 active torsions:
REMARK  status: ('A' for Active; 'I' for Inactive)
REMARK    1  A    between atoms: C_1  and  O_20
REMARK    2  A    between atoms: C_4  and  C_8
REMARK    3  A    between atoms: C_8  and  C_9
REMARK    4  A    between atoms: C_10  and  C_16
REMARK    5  A    between atoms: O_20  and  C_21
REMARK    6  A    between atoms: C_21  and  C_23
REMARK                            x       y       z     vdW  Elec       q    Type
REMARK                         _______ _______ _______ _____ _____    ______ ____
ROOT
ATOM      1  C   UNL     1      34.591 -15.222 -22.115  0.00  0.00    +0.138 C 
ATOM      2  C   UNL     1      34.767 -15.884 -23.330  0.00  0.00    +0.037 C 
ATOM      3  C   UNL     1      34.593 -15.942 -20.921  0.00  0.00    +0.037 C 
ATOM      4  C   UNL     1      34.947 -17.988 -22.156  0.00  0.00    +0.039 C 
ATOM      5  C   UNL     1      34.945 -17.267 -23.350  0.00  0.00    +0.006 C 
ATOM      6  C   UNL     1      34.771 -17.325 -20.942  0.00  0.00    +0.006 C 
ENDROOT
BRANCH   4   8
ATOM      7  O   UNL     1      35.539 -19.991 -23.207  0.00  0.00    -0.287 OA
ATOM      8  C   UNL     1      35.136 -19.430 -22.178  0.00  0.00    +0.196 C 
BRANCH   8   9
ATOM      9  C   UNL     1      34.861 -20.292 -20.989  0.00  0.00    +0.039 C 
ATOM     10  C   UNL     1      34.349 -21.903 -18.770  0.00  0.00    +0.001 C 
ATOM     11  C   UNL     1      33.546 -20.540 -20.597  0.00  0.00    +0.003 C 
ATOM     12  C   UNL     1      35.920 -20.848 -20.270  0.00  0.00    +0.003 C 
ATOM     13  C   UNL     1      33.290 -21.346 -19.487  0.00  0.00    +0.000 C 
ATOM     14  C   UNL     1      35.664 -21.653 -19.161  0.00  0.00    +0.000 C 
BRANCH  10  16
ATOM     15  S   UNL     1      34.532 -24.087 -15.491  0.00  0.00    -0.086 S 
ATOM     16  C   UNL     1      34.083 -22.732 -17.628  0.00  0.00    +0.007 C 
ATOM     17  C   UNL     1      32.825 -23.268 -17.229  0.00  0.00    +0.007 C 
ATOM     18  C   UNL     1      35.098 -23.100 -16.772  0.00  0.00    +0.035 C 
ATOM     19  C   UNL     1      32.926 -24.025 -16.081  0.00  0.00    +0.035 C 
ENDBRANCH  10  16
ENDBRANCH   8   9
ENDBRANCH   4   8
BRANCH   1  20
ATOM     20  O   UNL     1      34.415 -13.861 -22.094  0.00  0.00    -0.478 OA
BRANCH  20  21
ATOM     21  C   UNL     1      33.385 -13.334 -22.915  0.00  0.00    +0.184 C 
BRANCH  21  23
ATOM     22  N   UNL     1      32.161 -11.399 -21.962  0.00  0.00    +0.388 N 
ATOM     23  C   UNL     1      32.242 -12.865 -22.027  0.00  0.00    -0.017 C 
ATOM     24  C   UNL     1      32.417 -13.267 -20.571  0.00  0.00    -0.020 C 
ATOM     25  C   UNL     1      31.583 -12.251 -19.806  0.00  0.00    -0.025 C 
ATOM     26  C   UNL     1      31.314 -11.126 -20.796  0.00  0.00    -0.082 C 
ATOM     27  H   UNL     1      31.736 -11.025 -22.811  0.00  0.00    -0.084 HD
ATOM     28  H   UNL     1      33.080 -10.964 -21.883  0.00  0.00    -0.084 HD
ENDBRANCH  21  23
ENDBRANCH  20  21
ENDBRANCH   1  20
TORSDOF 6
ENDMDL
MODEL 4
REMARK VINA RESULT:     -10.4      3.702      5.404
REMARK  Name = 44129624
REMARK  6 active torsions:
REMARK  status: ('A' for Active; 'I' for Inactive)
REMARK    1  A    between atoms: C_1  and  O_20
REMARK    2  A    between atoms: C_4  and  C_8
REMARK    3  A    between atoms: C_8  and  C_9
REMARK    4  A    between atoms: C_10  and  C_16
REMARK    5  A    between atoms: O_20  and  C_21
REMARK    6  A    between atoms: C_21  and  C_23
REMARK                            x       y       z     vdW  Elec       q    Type
REMARK                         _______ _______ _______ _____ _____    ______ ____
ROOT
ATOM      1  C   UNL     1      35.669 -23.210 -14.610  0.00  0.00    +0.138 C 
ATOM      2  C   UNL     1      34.360 -23.588 -14.908  0.00  0.00    +0.037 C 
ATOM      3  C   UNL     1      36.513 -22.758 -15.624  0.00  0.00    +0.037 C 
ATOM      4  C   UNL     1      34.739 -23.063 -17.235  0.00  0.00    +0.039 C 
ATOM      5  C   UNL     1      33.895 -23.514 -16.220  0.00  0.00    +0.006 C 
ATOM      6  C   UNL     1      36.047 -22.684 -16.937  0.00  0.00    +0.006 C 
ENDROOT
BRANCH   4   8
ATOM      7  O   UNL     1      33.689 -23.958 -19.123  0.00  0.00    -0.287 OA
ATOM      8  C   UNL     1      34.252 -22.983 -18.603  0.00  0.00    +0.196 C 
BRANCH   8   9
ATOM      9  C   UNL     1      34.400 -21.752 -19.437  0.00  0.00    +0.039 C 
ATOM     10  C   UNL     1      34.677 -19.453 -20.992  0.00  0.00    +0.001 C 
ATOM     11  C   UNL     1      33.269 -21.038 -19.832  0.00  0.00    +0.003 C 
ATOM     12  C   UNL     1      35.670 -21.317 -19.820  0.00  0.00    +0.003 C 
ATOM     13  C   UNL     1      33.408 -19.888 -20.610  0.00  0.00    +0.000 C 
ATOM     14  C   UNL     1      35.808 -20.168 -20.597  0.00  0.00    +0.000 C 
BRANCH  10  16
ATOM     15  S   UNL     1      35.125 -16.813 -23.887  0.00  0.00    -0.086 S 
ATOM     16  C   UNL     1      34.818 -18.269 -21.792  0.00  0.00    +0.007 C 
ATOM     17  C   UNL     1      34.815 -16.919 -21.338  0.00  0.00    +0.007 C 
ATOM     18  C   UNL     1      34.979 -18.356 -23.158  0.00  0.00    +0.035 C 
ATOM     19  C   UNL     1      34.973 -16.024 -22.374  0.00  0.00    +0.035 C 
ENDBRANCH  10  16
ENDBRANCH   8   9
ENDBRANCH   4   8
BRANCH   1  20
ATOM     20  O   UNL     1      36.128 -23.283 -13.318  0.00  0.00    -0.478 OA
BRANCH  20  21
ATOM     21  C   UNL     1      35.759 -24.429 -12.570  0.00  0.00    +0.184 C 
BRANCH  21  23
ATOM     22  N   UNL     1      38.203 -24.836 -12.687  0.00  0.00    +0.388 N 
ATOM     23  C   UNL     1      36.872 -25.461 -12.672  0.00  0.00    -0.017 C 
ATOM     24  C   UNL     1      36.841 -26.241 -13.977  0.00  0.00    -0.020 C 
ATOM     25  C   UNL     1      38.273 -26.723 -14.152  0.00  0.00    -0.025 C 
ATOM     26  C   UNL     1      39.098 -25.886 -13.185  0.00  0.00    -0.082 C 
ATOM     27  H   UNL     1      38.475 -24.548 -11.748  0.00  0.00    -0.084 HD
ATOM     28  H   UNL     1      38.230 -23.998 -13.267  0.00  0.00    -0.084 HD
ENDBRANCH  21  23
ENDBRANCH  20  21
ENDBRANCH   1  20
TORSDOF 6
ENDMDL
MODEL 5
REMARK VINA RESULT:     -10.4      3.676      5.142
REMARK  Name = 44129624
REMARK  6 active torsions:
REMARK  status: ('A' for Active; 'I' for Inactive)
REMARK    1  A    between atoms: C_1  and  O_20
REMARK    2  A    between atoms: C_4  and  C_8
REMARK    3  A    between atoms: C_8  and  C_9
REMARK    4  A    between atoms: C_10  and  C_16
REMARK    5  A    between atoms: O_20  and  C_21
REMARK    6  A    between atoms: C_21  and  C_23
REMARK                            x       y       z     vdW  Elec       q    Type
REMARK                         _______ _______ _______ _____ _____    ______ ____
ROOT
ATOM      1  C   UNL     1      36.778 -23.127 -14.993  0.00  0.00    +0.138 C 
ATOM      2  C   UNL     1      35.474 -23.622 -14.986  0.00  0.00    +0.037 C 
ATOM      3  C   UNL     1      37.288 -22.520 -16.141  0.00  0.00    +0.037 C 
ATOM      4  C   UNL     1      35.189 -22.902 -17.274  0.00  0.00    +0.039 C 
ATOM      5  C   UNL     1      34.680 -23.509 -16.126  0.00  0.00    +0.006 C 
ATOM      6  C   UNL     1      36.493 -22.407 -17.281  0.00  0.00    +0.006 C 
ENDROOT
BRANCH   4   8
ATOM      7  O   UNL     1      33.512 -23.650 -18.722  0.00  0.00    -0.287 OA
ATOM      8  C   UNL     1      34.359 -22.782 -18.462  0.00  0.00    +0.196 C 
BRANCH   8   9
ATOM      9  C   UNL     1      34.479 -21.635 -19.412  0.00  0.00    +0.039 C 
ATOM     10  C   UNL     1      34.704 -19.492 -21.184  0.00  0.00    +0.001 C 
ATOM     11  C   UNL     1      33.334 -20.972 -19.852  0.00  0.00    +0.003 C 
ATOM     12  C   UNL     1      35.737 -21.227 -19.859  0.00  0.00    +0.003 C 
ATOM     13  C   UNL     1      33.446 -19.900 -20.738  0.00  0.00    +0.000 C 
ATOM     14  C   UNL     1      35.848 -20.156 -20.745  0.00  0.00    +0.000 C 
BRANCH  10  16
ATOM     15  S   UNL     1      35.013 -15.958 -22.906  0.00  0.00    -0.086 S 
ATOM     16  C   UNL     1      34.817 -18.388 -22.096  0.00  0.00    +0.007 C 
ATOM     17  C   UNL     1      34.877 -18.450 -23.518  0.00  0.00    +0.007 C 
ATOM     18  C   UNL     1      34.881 -17.093 -21.630  0.00  0.00    +0.035 C 
ATOM     19  C   UNL     1      34.985 -17.199 -24.086  0.00  0.00    +0.035 C 
ENDBRANCH  10  16
ENDBRANCH   8   9
ENDBRANCH   4   8
BRANCH   1  20
ATOM     20  O   UNL     1      37.562 -23.238 -13.872  0.00  0.00    -0.478 OA
BRANCH  20  21
ATOM     21  C   UNL     1      37.967 -24.544 -13.499  0.00  0.00    +0.184 C 
BRANCH  21  23
ATOM     22  N   UNL     1      36.135 -25.510 -12.133  0.00  0.00    +0.388 N 
ATOM     23  C   UNL     1      37.444 -24.840 -12.102  0.00  0.00    -0.017 C 
ATOM     24  C   UNL     1      37.170 -23.583 -11.291  0.00  0.00    -0.020 C 
ATOM     25  C   UNL     1      36.144 -24.026 -10.260  0.00  0.00    -0.025 C 
ATOM     26  C   UNL     1      35.608 -25.355 -10.773  0.00  0.00    -0.082 C 
ATOM     27  H   UNL     1      36.242 -26.497 -12.367  0.00  0.00    -0.084 HD
ATOM     28  H   UNL     1      35.514 -25.111 -12.836  0.00  0.00    -0.084 HD
ENDBRANCH  21  23
ENDBRANCH  20  21
ENDBRANCH   1  20
TORSDOF 6
ENDMDL
MODEL 6
REMARK VINA RESULT:     -10.3      4.712     10.133
REMARK  Name = 44129624
REMARK  6 active torsions:
REMARK  status: ('A' for Active; 'I' for Inactive)
REMARK    1  A    between atoms: C_1  and  O_20
REMARK    2  A    between atoms: C_4  and  C_8
REMARK    3  A    between atoms: C_8  and  C_9
REMARK    4  A    between atoms: C_10  and  C_16
REMARK    5  A    between atoms: O_20  and  C_21
REMARK    6  A    between atoms: C_21  and  C_23
REMARK                            x       y       z     vdW  Elec       q    Type
REMARK                         _______ _______ _______ _____ _____    ______ ____
ROOT
ATOM      1  C   UNL     1      35.736 -19.572 -20.936  0.00  0.00    +0.138 C 
ATOM      2  C   UNL     1      36.621 -20.411 -20.260  0.00  0.00    +0.037 C 
ATOM      3  C   UNL     1      34.361 -19.791 -20.847  0.00  0.00    +0.037 C 
ATOM      4  C   UNL     1      34.758 -21.688 -19.405  0.00  0.00    +0.039 C 
ATOM      5  C   UNL     1      36.133 -21.469 -19.495  0.00  0.00    +0.006 C 
ATOM      6  C   UNL     1      33.873 -20.849 -20.081  0.00  0.00    +0.006 C 
ENDROOT
BRANCH   4   8
ATOM      7  O   UNL     1      33.418 -23.578 -19.082  0.00  0.00    -0.287 OA
ATOM      8  C   UNL     1      34.248 -22.790 -18.604  0.00  0.00    +0.196 C 
BRANCH   8   9
ATOM      9  C   UNL     1      34.687 -23.028 -17.195  0.00  0.00    +0.039 C 
ATOM     10  C   UNL     1      35.505 -23.470 -14.566  0.00  0.00    +0.001 C 
ATOM     11  C   UNL     1      35.987 -22.705 -16.807  0.00  0.00    +0.003 C 
ATOM     12  C   UNL     1      33.796 -23.572 -16.270  0.00  0.00    +0.003 C 
ATOM     13  C   UNL     1      36.396 -22.927 -15.492  0.00  0.00    +0.000 C 
ATOM     14  C   UNL     1      34.206 -23.793 -14.955  0.00  0.00    +0.000 C 
BRANCH  10  16
ATOM     15  S   UNL     1      35.861 -24.551 -10.790  0.00  0.00    -0.086 S 
ATOM     16  C   UNL     1      35.928 -23.696 -13.212  0.00  0.00    +0.007 C 
ATOM     17  C   UNL     1      37.133 -23.244 -12.600  0.00  0.00    +0.007 C 
ATOM     18  C   UNL     1      35.144 -24.419 -12.340  0.00  0.00    +0.035 C 
ATOM     19  C   UNL     1      37.224 -23.639 -11.283  0.00  0.00    +0.035 C 
ENDBRANCH  10  16
ENDBRANCH   8   9
ENDBRANCH   4   8
BRANCH   1  20
ATOM     20  O   UNL     1      36.216 -18.531 -21.690  0.00  0.00    -0.478 OA
BRANCH  20  21
ATOM     21  C   UNL     1      35.337 -17.979 -22.655  0.00  0.00    +0.184 C 
BRANCH  21  23
ATOM     22  N   UNL     1      34.570 -16.102 -21.227  0.00  0.00    +0.388 N 
ATOM     23  C   UNL     1      35.279 -16.472 -22.461  0.00  0.00    -0.017 C 
ATOM     24  C   UNL     1      34.480 -15.763 -23.544  0.00  0.00    -0.020 C 
ATOM     25  C   UNL     1      34.036 -14.466 -22.886  0.00  0.00    -0.025 C 
ATOM     26  C   UNL     1      34.254 -14.679 -21.394  0.00  0.00    -0.082 C 
ATOM     27  H   UNL     1      35.168 -16.244 -20.413  0.00  0.00    -0.084 HD
ATOM     28  H   UNL     1      33.736 -16.668 -21.076  0.00  0.00    -0.084 HD
ENDBRANCH  21  23
ENDBRANCH  20  21
ENDBRANCH   1  20
TORSDOF 6
ENDMDL
MODEL 7
REMARK VINA RESULT:     -10.3      3.987      6.758
REMARK  Name = 44129624
REMARK  6 active torsions:
REMARK  status: ('A' for Active; 'I' for Inactive)
REMARK    1  A    between atoms: C_1  and  O_20
REMARK    2  A    between atoms: C_4  and  C_8
REMARK    3  A    between atoms: C_8  and  C_9
REMARK    4  A    between atoms: C_10  and  C_16
REMARK    5  A    between atoms: O_20  and  C_21
REMARK    6  A    between atoms: C_21  and  C_23
REMARK                            x       y       z     vdW  Elec       q    Type
REMARK                         _______ _______ _______ _____ _____    ______ ____
ROOT
ATOM      1  C   UNL     1      35.047 -17.099 -21.405  0.00  0.00    +0.138 C 
ATOM      2  C   UNL     1      34.519 -15.939 -20.839  0.00  0.00    +0.037 C 
ATOM      3  C   UNL     1      35.128 -17.223 -22.792  0.00  0.00    +0.037 C 
ATOM      4  C   UNL     1      34.154 -15.027 -23.045  0.00  0.00    +0.039 C 
ATOM      5  C   UNL     1      34.073 -14.903 -21.658  0.00  0.00    +0.006 C 
ATOM      6  C   UNL     1      34.682 -16.186 -23.612  0.00  0.00    +0.006 C 
ENDROOT
BRANCH   4   8
ATOM      7  O   UNL     1      33.587 -14.116 -25.123  0.00  0.00    -0.287 OA
ATOM      8  C   UNL     1      33.691 -13.945 -23.899  0.00  0.00    +0.196 C 
BRANCH   8   9
ATOM      9  C   UNL     1      33.324 -12.600 -23.361  0.00  0.00    +0.039 C 
ATOM     10  C   UNL     1      32.640 -10.089 -22.357  0.00  0.00    +0.001 C 
ATOM     11  C   UNL     1      32.363 -12.490 -22.357  0.00  0.00    +0.003 C 
ATOM     12  C   UNL     1      33.942 -11.455 -23.865  0.00  0.00    +0.003 C 
ATOM     13  C   UNL     1      32.021 -11.234 -21.854  0.00  0.00    +0.000 C 
ATOM     14  C   UNL     1      33.600 -10.200 -23.362  0.00  0.00    +0.000 C 
BRANCH  10  16
ATOM     15  S   UNL     1      31.191  -6.476 -21.725  0.00  0.00    -0.086 S 
ATOM     16  C   UNL     1      32.287  -8.797 -21.838  0.00  0.00    +0.007 C 
ATOM     17  C   UNL     1      32.700  -8.226 -20.600  0.00  0.00    +0.007 C 
ATOM     18  C   UNL     1      31.463  -7.952 -22.550  0.00  0.00    +0.035 C 
ATOM     19  C   UNL     1      32.176  -6.965 -20.412  0.00  0.00    +0.035 C 
ENDBRANCH  10  16
ENDBRANCH   8   9
ENDBRANCH   4   8
BRANCH   1  20
ATOM     20  O   UNL     1      35.486 -18.120 -20.600  0.00  0.00    -0.478 OA
BRANCH  20  21
ATOM     21  C   UNL     1      36.045 -19.251 -21.245  0.00  0.00    +0.184 C 
BRANCH  21  23
ATOM     22  N   UNL     1      33.874 -20.127 -20.425  0.00  0.00    +0.388 N 
ATOM     23  C   UNL     1      35.228 -20.480 -20.876  0.00  0.00    -0.017 C 
ATOM     24  C   UNL     1      35.801 -21.239 -19.690  0.00  0.00    -0.020 C 
ATOM     25  C   UNL     1      34.607 -21.992 -19.122  0.00  0.00    -0.025 C 
ATOM     26  C   UNL     1      33.385 -21.331 -19.744  0.00  0.00    -0.082 C 
ATOM     27  H   UNL     1      33.279 -19.896 -21.220  0.00  0.00    -0.084 HD
ATOM     28  H   UNL     1      33.872 -19.310 -19.814  0.00  0.00    -0.084 HD
ENDBRANCH  21  23
ENDBRANCH  20  21
ENDBRANCH   1  20
TORSDOF 6
ENDMDL
MODEL 8
REMARK VINA RESULT:     -10.2      1.483      2.309
REMARK  Name = 44129624
REMARK  6 active torsions:
REMARK  status: ('A' for Active; 'I' for Inactive)
REMARK    1  A    between atoms: C_1  and  O_20
REMARK    2  A    between atoms: C_4  and  C_8
REMARK    3  A    between atoms: C_8  and  C_9
REMARK    4  A    between atoms: C_10  and  C_16
REMARK    5  A    between atoms: O_20  and  C_21
REMARK    6  A    between atoms: C_21  and  C_23
REMARK                            x       y       z     vdW  Elec       q    Type
REMARK                         _______ _______ _______ _____ _____    ______ ____
ROOT
ATOM      1  C   UNL     1      33.848 -22.363 -18.957  0.00  0.00    +0.138 C 
ATOM      2  C   UNL     1      35.236 -22.494 -18.927  0.00  0.00    +0.037 C 
ATOM      3  C   UNL     1      33.262 -21.300 -19.643  0.00  0.00    +0.037 C 
ATOM      4  C   UNL     1      35.453 -20.497 -20.270  0.00  0.00    +0.039 C 
ATOM      5  C   UNL     1      36.038 -21.561 -19.583  0.00  0.00    +0.006 C 
ATOM      6  C   UNL     1      34.065 -20.367 -20.300  0.00  0.00    +0.006 C 
ENDROOT
BRANCH   4   8
ATOM      7  O   UNL     1      37.525 -19.605 -20.883  0.00  0.00    -0.287 OA
ATOM      8  C   UNL     1      36.290 -19.526 -20.956  0.00  0.00    +0.196 C 
BRANCH   8   9
ATOM      9  C   UNL     1      35.720 -18.408 -21.768  0.00  0.00    +0.039 C 
ATOM     10  C   UNL     1      34.656 -16.321 -23.283  0.00  0.00    +0.001 C 
ATOM     11  C   UNL     1      35.548 -18.563 -23.143  0.00  0.00    +0.003 C 
ATOM     12  C   UNL     1      35.361 -17.210 -21.150  0.00  0.00    +0.003 C 
ATOM     13  C   UNL     1      35.016 -17.519 -23.900  0.00  0.00    +0.000 C 
ATOM     14  C   UNL     1      34.829 -16.167 -21.907  0.00  0.00    +0.000 C 
BRANCH  10  16
ATOM     15  S   UNL     1      33.018 -14.047 -26.056  0.00  0.00    -0.086 S 
ATOM     16  C   UNL     1      34.107 -15.249 -24.063  0.00  0.00    +0.007 C 
ATOM     17  C   UNL     1      33.993 -13.880 -23.685  0.00  0.00    +0.007 C 
ATOM     18  C   UNL     1      33.616 -15.478 -25.330  0.00  0.00    +0.035 C 
ATOM     19  C   UNL     1      33.417 -13.115 -24.676  0.00  0.00    +0.035 C 
ENDBRANCH  10  16
ENDBRANCH   8   9
ENDBRANCH   4   8
BRANCH   1  20
ATOM     20  O   UNL     1      33.057 -23.281 -18.311  0.00  0.00    -0.478 OA
BRANCH  20  21
ATOM     21  C   UNL     1      33.027 -23.216 -16.895  0.00  0.00    +0.184 C 
BRANCH  21  23
ATOM     22  N   UNL     1      34.214 -24.992 -15.635  0.00  0.00    +0.388 N 
ATOM     23  C   UNL     1      34.356 -23.716 -16.352  0.00  0.00    -0.017 C 
ATOM     24  C   UNL     1      34.954 -22.794 -15.301  0.00  0.00    -0.020 C 
ATOM     25  C   UNL     1      35.869 -23.701 -14.492  0.00  0.00    -0.025 C 
ATOM     26  C   UNL     1      35.451 -25.119 -14.856  0.00  0.00    -0.082 C 
ATOM     27  H   UNL     1      34.124 -25.766 -16.294  0.00  0.00    -0.084 HD
ATOM     28  H   UNL     1      33.382 -25.014 -15.046  0.00  0.00    -0.084 HD
ENDBRANCH  21  23
ENDBRANCH  20  21
ENDBRANCH   1  20
TORSDOF 6
ENDMDL
MODEL 9
REMARK VINA RESULT:     -10.0      7.083     10.522
REMARK  Name = 44129624
REMARK  6 active torsions:
REMARK  status: ('A' for Active; 'I' for Inactive)
REMARK    1  A    between atoms: C_1  and  O_20
REMARK    2  A    between atoms: C_4  and  C_8
REMARK    3  A    between atoms: C_8  and  C_9
REMARK    4  A    between atoms: C_10  and  C_16
REMARK    5  A    between atoms: O_20  and  C_21
REMARK    6  A    between atoms: C_21  and  C_23
REMARK                            x       y       z     vdW  Elec       q    Type
REMARK                         _______ _______ _______ _____ _____    ______ ____
ROOT
ATOM      1  C   UNL     1      31.930 -12.961 -20.808  0.00  0.00    +0.138 C 
ATOM      2  C   UNL     1      32.062 -12.116 -21.910  0.00  0.00    +0.037 C 
ATOM      3  C   UNL     1      31.817 -12.422 -19.526  0.00  0.00    +0.037 C 
ATOM      4  C   UNL     1      31.967 -10.195 -20.449  0.00  0.00    +0.039 C 
ATOM      5  C   UNL     1      32.080 -10.734 -21.731  0.00  0.00    +0.006 C 
ATOM      6  C   UNL     1      31.835 -11.039 -19.347  0.00  0.00    +0.006 C 
ENDROOT
BRANCH   4   8
ATOM      7  O   UNL     1      31.783  -8.266 -19.141  0.00  0.00    -0.287 OA
ATOM      8  C   UNL     1      31.984  -8.753 -20.263  0.00  0.00    +0.196 C 
BRANCH   8   9
ATOM      9  C   UNL     1      32.238  -7.802 -21.388  0.00  0.00    +0.039 C 
ATOM     10  C   UNL     1      32.713  -6.028 -23.488  0.00  0.00    +0.001 C 
ATOM     11  C   UNL     1      33.536  -7.617 -21.863  0.00  0.00    +0.003 C 
ATOM     12  C   UNL     1      31.178  -7.100 -21.962  0.00  0.00    +0.003 C 
ATOM     13  C   UNL     1      33.773  -6.730 -22.913  0.00  0.00    +0.000 C 
ATOM     14  C   UNL     1      31.415  -6.214 -23.011  0.00  0.00    +0.000 C 
BRANCH  10  16
ATOM     15  S   UNL     1      32.674  -3.062 -26.086  0.00  0.00    -0.086 S 
ATOM     16  C   UNL     1      32.959  -5.117 -24.569  0.00  0.00    +0.007 C 
ATOM     17  C   UNL     1      33.963  -5.225 -25.574  0.00  0.00    +0.007 C 
ATOM     18  C   UNL     1      32.187  -3.987 -24.729  0.00  0.00    +0.035 C 
ATOM     19  C   UNL     1      33.921  -4.173 -26.463  0.00  0.00    +0.035 C 
ENDBRANCH  10  16
ENDBRANCH   8   9
ENDBRANCH   4   8
BRANCH   1  20
ATOM     20  O   UNL     1      31.912 -14.322 -20.983  0.00  0.00    -0.478 OA
BRANCH  20  21
ATOM     21  C   UNL     1      32.871 -15.074 -20.259  0.00  0.00    +0.184 C 
BRANCH  21  23
ATOM     22  N   UNL     1      33.744 -15.234 -22.575  0.00  0.00    +0.388 N 
ATOM     23  C   UNL     1      34.083 -15.308 -21.146  0.00  0.00    -0.017 C 
ATOM     24  C   UNL     1      34.665 -16.706 -21.002  0.00  0.00    -0.020 C 
ATOM     25  C   UNL     1      35.399 -16.937 -22.314  0.00  0.00    -0.025 C 
ATOM     26  C   UNL     1      34.878 -15.864 -23.259  0.00  0.00    -0.082 C 
ATOM     27  H   UNL     1      33.640 -14.263 -22.869  0.00  0.00    -0.084 HD
ATOM     28  H   UNL     1      32.860 -15.696 -22.786  0.00  0.00    -0.084 HD
ENDBRANCH  21  23
ENDBRANCH  20  21
ENDBRANCH   1  20
TORSDOF 6
ENDMDL
