MODEL 1
REMARK VINA RESULT:     -13.0      0.000      0.000
REMARK  Name = 16741238
REMARK  6 active torsions:
REMARK  status: ('A' for Active; 'I' for Inactive)
REMARK    1  A    between atoms: N_1  and  C_22
REMARK    2  A    between atoms: C_10  and  C_15
REMARK    3  A    between atoms: C_15  and  C_16
REMARK    4  A    between atoms: C_22  and  C_23
REMARK    5  A    between atoms: C_23  and  C_26
REMARK    6  A    between atoms: N_25  and  C_28
REMARK                            x       y       z     vdW  Elec       q    Type
REMARK                         _______ _______ _______ _____ _____    ______ ____
ROOT
ATOM      1  N   UNL     1      33.950 -14.273 -24.685  0.00  0.00    -0.249 N 
ATOM      2  N   UNL     1      33.631 -16.397 -25.768  0.00  0.00    -0.373 NA
ATOM      3  N   UNL     1      32.955 -14.448 -26.814  0.00  0.00    -0.321 N 
ATOM      4  C   UNL     1      34.574 -14.843 -23.490  0.00  0.00    +0.071 C 
ATOM      5  C   UNL     1      34.679 -16.342 -23.548  0.00  0.00    +0.045 C 
ATOM      6  C   UNL     1      33.525 -15.090 -25.737  0.00  0.00    +0.239 C 
ATOM      7  C   UNL     1      34.211 -17.046 -24.666  0.00  0.00    +0.136 C 
ATOM      8  C   UNL     1      35.250 -17.040 -22.474  0.00  0.00    +0.007 C 
ATOM      9  C   UNL     1      34.323 -18.441 -24.693  0.00  0.00    +0.032 C 
ATOM     10  C   UNL     1      35.356 -18.430 -22.512  0.00  0.00    +0.039 C 
ATOM     11  C   UNL     1      34.892 -19.131 -23.622  0.00  0.00    +0.006 C 
ATOM     12  H   UNL     1      32.866 -13.467 -26.812  0.00  0.00    +0.146 HD
ATOM     13  H   UNL     1      32.636 -14.970 -27.586  0.00  0.00    +0.146 HD
ENDROOT
BRANCH  10  15
ATOM     14  O   UNL     1      37.128 -18.935 -21.071  0.00  0.00    -0.287 OA
ATOM     15  C   UNL     1      35.949 -19.145 -21.394  0.00  0.00    +0.196 C 
BRANCH  15  16
ATOM     16  C   UNL     1      35.187 -20.149 -20.591  0.00  0.00    +0.039 C 
ATOM     17  C   UNL     1      33.793 -20.130 -20.592  0.00  0.00    +0.003 C 
ATOM     18  C   UNL     1      35.871 -21.106 -19.841  0.00  0.00    +0.003 C 
ATOM     19  C   UNL     1      33.082 -21.067 -19.843  0.00  0.00    +0.000 C 
ATOM     20  C   UNL     1      35.160 -22.044 -19.092  0.00  0.00    +0.000 C 
ATOM     21  C   UNL     1      33.765 -22.024 -19.093  0.00  0.00    +0.000 C 
ENDBRANCH  15  16
ENDBRANCH  10  15
BRANCH   1  22
ATOM     22  C   UNL     1      33.818 -12.819 -24.681  0.00  0.00    +0.109 C 
BRANCH  22  23
ATOM     23  C   UNL     1      33.516 -12.315 -23.273  0.00  0.00    +0.107 C 
BRANCH  23  26
ATOM     24  O   UNL     1      34.478 -10.154 -23.688  0.00  0.00    -0.275 OA
ATOM     25  N   UNL     1      32.569 -10.203 -22.374  0.00  0.00    -0.279 N 
ATOM     26  C   UNL     1      33.578 -10.796 -23.140  0.00  0.00    +0.227 C 
ATOM     27  C   UNL     1      31.512 -10.982 -21.733  0.00  0.00    +0.115 C 
BRANCH  25  28
ATOM     28  C   UNL     1      32.495  -8.777 -22.161  0.00  0.00    +0.075 C 
ATOM     29  C   UNL     1      32.505  -8.459 -20.664  0.00  0.00    +0.020 C 
ATOM     30  C   UNL     1      31.260  -8.189 -22.848  0.00  0.00    +0.020 C 
ATOM     31  C   UNL     1      32.375  -6.959 -20.406  0.00  0.00    +0.002 C 
ATOM     32  C   UNL     1      31.133  -6.690 -22.588  0.00  0.00    +0.002 C 
ATOM     33  C   UNL     1      31.145  -6.375 -21.096  0.00  0.00    +0.000 C 
ENDBRANCH  25  28
ENDBRANCH  23  26
ENDBRANCH  22  23
ENDBRANCH   1  22
TORSDOF 6
ENDMDL
MODEL 2
REMARK VINA RESULT:     -11.5      6.214     11.040
REMARK  Name = 16741238
REMARK  6 active torsions:
REMARK  status: ('A' for Active; 'I' for Inactive)
REMARK    1  A    between atoms: N_1  and  C_22
REMARK    2  A    between atoms: C_10  and  C_15
REMARK    3  A    between atoms: C_15  and  C_16
REMARK    4  A    between atoms: C_22  and  C_23
REMARK    5  A    between atoms: C_23  and  C_26
REMARK    6  A    between atoms: N_25  and  C_28
REMARK                            x       y       z     vdW  Elec       q    Type
REMARK                         _______ _______ _______ _____ _____    ______ ____
ROOT
ATOM      1  N   UNL     1      36.160 -22.741 -16.736  0.00  0.00    -0.249 N 
ATOM      2  N   UNL     1      36.629 -23.865 -14.662  0.00  0.00    -0.373 NA
ATOM      3  N   UNL     1      38.366 -23.140 -16.007  0.00  0.00    -0.321 N 
ATOM      4  C   UNL     1      34.706 -22.816 -16.584  0.00  0.00    +0.071 C 
ATOM      5  C   UNL     1      34.290 -23.508 -15.316  0.00  0.00    +0.045 C 
ATOM      6  C   UNL     1      37.016 -23.269 -15.764  0.00  0.00    +0.239 C 
ATOM      7  C   UNL     1      35.252 -23.995 -14.422  0.00  0.00    +0.136 C 
ATOM      8  C   UNL     1      32.927 -23.664 -15.027  0.00  0.00    +0.007 C 
ATOM      9  C   UNL     1      34.834 -24.634 -13.247  0.00  0.00    +0.032 C 
ATOM     10  C   UNL     1      32.522 -24.302 -13.855  0.00  0.00    +0.039 C 
ATOM     11  C   UNL     1      33.476 -24.787 -12.964  0.00  0.00    +0.006 C 
ATOM     12  H   UNL     1      38.678 -22.695 -16.828  0.00  0.00    +0.146 HD
ATOM     13  H   UNL     1      39.018 -23.492 -15.359  0.00  0.00    +0.146 HD
ENDROOT
BRANCH  10  15
ATOM     14  O   UNL     1      30.738 -24.839 -12.441  0.00  0.00    -0.287 OA
ATOM     15  C   UNL     1      31.107 -24.462 -13.563  0.00  0.00    +0.196 C 
BRANCH  15  16
ATOM     16  C   UNL     1      30.044 -24.183 -14.576  0.00  0.00    +0.039 C 
ATOM     17  C   UNL     1      29.593 -25.203 -15.412  0.00  0.00    +0.003 C 
ATOM     18  C   UNL     1      29.502 -22.902 -14.684  0.00  0.00    +0.003 C 
ATOM     19  C   UNL     1      28.600 -24.943 -16.357  0.00  0.00    +0.000 C 
ATOM     20  C   UNL     1      28.509 -22.642 -15.628  0.00  0.00    +0.000 C 
ATOM     21  C   UNL     1      28.059 -23.663 -16.465  0.00  0.00    +0.000 C 
ENDBRANCH  15  16
ENDBRANCH  10  15
BRANCH   1  22
ATOM     22  C   UNL     1      36.623 -22.082 -17.954  0.00  0.00    +0.109 C 
BRANCH  22  23
ATOM     23  C   UNL     1      35.518 -22.071 -19.007  0.00  0.00    +0.107 C 
BRANCH  23  26
ATOM     24  O   UNL     1      36.692 -20.395 -20.264  0.00  0.00    -0.275 OA
ATOM     25  N   UNL     1      34.383 -20.423 -20.477  0.00  0.00    -0.279 N 
ATOM     26  C   UNL     1      35.601 -20.889 -19.969  0.00  0.00    +0.227 C 
ATOM     27  C   UNL     1      33.101 -21.023 -20.113  0.00  0.00    +0.115 C 
BRANCH  25  28
ATOM     28  C   UNL     1      34.303 -19.315 -21.398  0.00  0.00    +0.075 C 
ATOM     29  C   UNL     1      34.809 -19.730 -22.781  0.00  0.00    +0.020 C 
ATOM     30  C   UNL     1      35.075 -18.107 -20.861  0.00  0.00    +0.020 C 
ATOM     31  C   UNL     1      34.785 -18.562 -23.764  0.00  0.00    +0.002 C 
ATOM     32  C   UNL     1      35.049 -16.940 -21.846  0.00  0.00    +0.002 C 
ATOM     33  C   UNL     1      35.552 -17.358 -23.225  0.00  0.00    +0.000 C 
ENDBRANCH  25  28
ENDBRANCH  23  26
ENDBRANCH  22  23
ENDBRANCH   1  22
TORSDOF 6
ENDMDL
MODEL 3
REMARK VINA RESULT:     -11.1      4.564      8.011
REMARK  Name = 16741238
REMARK  6 active torsions:
REMARK  status: ('A' for Active; 'I' for Inactive)
REMARK    1  A    between atoms: N_1  and  C_22
REMARK    2  A    between atoms: C_10  and  C_15
REMARK    3  A    between atoms: C_15  and  C_16
REMARK    4  A    between atoms: C_22  and  C_23
REMARK    5  A    between atoms: C_23  and  C_26
REMARK    6  A    between atoms: N_25  and  C_28
REMARK                            x       y       z     vdW  Elec       q    Type
REMARK                         _______ _______ _______ _____ _____    ______ ____
ROOT
ATOM      1  N   UNL     1      34.721 -20.905 -20.221  0.00  0.00    -0.249 N 
ATOM      2  N   UNL     1      33.234 -22.040 -18.710  0.00  0.00    -0.373 NA
ATOM      3  N   UNL     1      32.394 -20.983 -20.588  0.00  0.00    -0.321 N 
ATOM      4  C   UNL     1      35.930 -21.224 -19.459  0.00  0.00    +0.071 C 
ATOM      5  C   UNL     1      35.640 -22.027 -18.221  0.00  0.00    +0.045 C 
ATOM      6  C   UNL     1      33.462 -21.337 -19.792  0.00  0.00    +0.239 C 
ATOM      7  C   UNL     1      34.326 -22.396 -17.902  0.00  0.00    +0.136 C 
ATOM      8  C   UNL     1      36.695 -22.409 -17.379  0.00  0.00    +0.007 C 
ATOM      9  C   UNL     1      34.087 -23.145 -16.743  0.00  0.00    +0.032 C 
ATOM     10  C   UNL     1      36.445 -23.154 -16.227  0.00  0.00    +0.039 C 
ATOM     11  C   UNL     1      35.140 -23.523 -15.909  0.00  0.00    +0.006 C 
ATOM     12  H   UNL     1      32.543 -20.455 -21.406  0.00  0.00    +0.146 HD
ATOM     13  H   UNL     1      31.483 -21.258 -20.338  0.00  0.00    +0.146 HD
ENDROOT
BRANCH  10  15
ATOM     14  O   UNL     1      38.715 -23.292 -15.681  0.00  0.00    -0.287 OA
ATOM     15  C   UNL     1      37.544 -23.546 -15.360  0.00  0.00    +0.196 C 
BRANCH  15  16
ATOM     16  C   UNL     1      37.327 -24.256 -14.064  0.00  0.00    +0.039 C 
ATOM     17  C   UNL     1      37.000 -23.532 -12.917  0.00  0.00    +0.003 C 
ATOM     18  C   UNL     1      37.450 -25.644 -14.000  0.00  0.00    +0.003 C 
ATOM     19  C   UNL     1      36.796 -24.196 -11.708  0.00  0.00    +0.000 C 
ATOM     20  C   UNL     1      37.247 -26.308 -12.790  0.00  0.00    +0.000 C 
ATOM     21  C   UNL     1      36.920 -25.583 -11.644  0.00  0.00    +0.000 C 
ENDBRANCH  15  16
ENDBRANCH  10  15
BRANCH   1  22
ATOM     22  C   UNL     1      34.942 -20.122 -21.433  0.00  0.00    +0.109 C 
BRANCH  22  23
ATOM     23  C   UNL     1      35.251 -18.669 -21.081  0.00  0.00    +0.107 C 
BRANCH  23  26
ATOM     24  O   UNL     1      35.673 -18.130 -23.382  0.00  0.00    -0.275 OA
ATOM     25  N   UNL     1      34.788 -16.439 -22.067  0.00  0.00    -0.279 N 
ATOM     26  C   UNL     1      35.263 -17.736 -22.287  0.00  0.00    +0.227 C 
ATOM     27  C   UNL     1      34.307 -15.991 -20.762  0.00  0.00    +0.115 C 
BRANCH  25  28
ATOM     28  C   UNL     1      34.737 -15.445 -23.113  0.00  0.00    +0.075 C 
ATOM     29  C   UNL     1      34.245 -14.107 -22.557  0.00  0.00    +0.020 C 
ATOM     30  C   UNL     1      33.860 -15.924 -24.273  0.00  0.00    +0.020 C 
ATOM     31  C   UNL     1      34.130 -13.050 -23.653  0.00  0.00    +0.002 C 
ATOM     32  C   UNL     1      33.747 -14.864 -25.367  0.00  0.00    +0.002 C 
ATOM     33  C   UNL     1      33.259 -13.531 -24.810  0.00  0.00    +0.000 C 
ENDBRANCH  25  28
ENDBRANCH  23  26
ENDBRANCH  22  23
ENDBRANCH   1  22
TORSDOF 6
ENDMDL
MODEL 4
REMARK VINA RESULT:     -11.0      3.088     11.690
REMARK  Name = 16741238
REMARK  6 active torsions:
REMARK  status: ('A' for Active; 'I' for Inactive)
REMARK    1  A    between atoms: N_1  and  C_22
REMARK    2  A    between atoms: C_10  and  C_15
REMARK    3  A    between atoms: C_15  and  C_16
REMARK    4  A    between atoms: C_22  and  C_23
REMARK    5  A    between atoms: C_23  and  C_26
REMARK    6  A    between atoms: N_25  and  C_28
REMARK                            x       y       z     vdW  Elec       q    Type
REMARK                         _______ _______ _______ _____ _____    ______ ____
ROOT
ATOM      1  N   UNL     1      31.602 -10.429 -20.706  0.00  0.00    -0.249 N 
ATOM      2  N   UNL     1      32.146  -8.527 -19.338  0.00  0.00    -0.373 NA
ATOM      3  N   UNL     1      32.018 -10.636 -18.395  0.00  0.00    -0.321 N 
ATOM      4  C   UNL     1      31.481  -9.653 -21.941  0.00  0.00    +0.071 C 
ATOM      5  C   UNL     1      31.732  -8.186 -21.734  0.00  0.00    +0.045 C 
ATOM      6  C   UNL     1      31.926  -9.810 -19.494  0.00  0.00    +0.239 C 
ATOM      7  C   UNL     1      32.050  -7.691 -20.461  0.00  0.00    +0.136 C 
ATOM      8  C   UNL     1      31.649  -7.307 -22.822  0.00  0.00    +0.007 C 
ATOM      9  C   UNL     1      32.280  -6.319 -20.298  0.00  0.00    +0.032 C 
ATOM     10  C   UNL     1      31.880  -5.942 -22.648  0.00  0.00    +0.039 C 
ATOM     11  C   UNL     1      32.196  -5.449 -21.385  0.00  0.00    +0.006 C 
ATOM     12  H   UNL     1      31.858 -11.603 -18.491  0.00  0.00    +0.146 HD
ATOM     13  H   UNL     1      32.243 -10.258 -17.514  0.00  0.00    +0.146 HD
ENDROOT
BRANCH  10  15
ATOM     14  O   UNL     1      30.777  -4.344 -23.951  0.00  0.00    -0.287 OA
ATOM     15  C   UNL     1      31.791  -5.038 -23.782  0.00  0.00    +0.196 C 
BRANCH  15  16
ATOM     16  C   UNL     1      32.892  -4.896 -24.782  0.00  0.00    +0.039 C 
ATOM     17  C   UNL     1      33.986  -5.759 -24.742  0.00  0.00    +0.003 C 
ATOM     18  C   UNL     1      32.826  -3.899 -25.756  0.00  0.00    +0.003 C 
ATOM     19  C   UNL     1      35.014  -5.627 -25.675  0.00  0.00    +0.000 C 
ATOM     20  C   UNL     1      33.853  -3.768 -26.690  0.00  0.00    +0.000 C 
ATOM     21  C   UNL     1      34.948  -4.631 -26.649  0.00  0.00    +0.000 C 
ENDBRANCH  15  16
ENDBRANCH  10  15
BRANCH   1  22
ATOM     22  C   UNL     1      31.364 -11.862 -20.848  0.00  0.00    +0.109 C 
BRANCH  22  23
ATOM     23  C   UNL     1      32.322 -12.463 -21.871  0.00  0.00    +0.107 C 
BRANCH  23  26
ATOM     24  O   UNL     1      31.967 -14.585 -20.805  0.00  0.00    -0.275 OA
ATOM     25  N   UNL     1      33.554 -14.527 -22.494  0.00  0.00    -0.279 N 
ATOM     26  C   UNL     1      32.587 -13.951 -21.663  0.00  0.00    +0.227 C 
ATOM     27  C   UNL     1      34.278 -13.758 -23.505  0.00  0.00    +0.115 C 
BRANCH  25  28
ATOM     28  C   UNL     1      33.911 -15.923 -22.415  0.00  0.00    +0.075 C 
ATOM     29  C   UNL     1      34.691 -16.206 -21.130  0.00  0.00    +0.020 C 
ATOM     30  C   UNL     1      34.702 -16.351 -23.654  0.00  0.00    +0.020 C 
ATOM     31  C   UNL     1      35.128 -17.666 -21.045  0.00  0.00    +0.002 C 
ATOM     32  C   UNL     1      35.137 -17.812 -23.566  0.00  0.00    +0.002 C 
ATOM     33  C   UNL     1      35.913 -18.091 -22.283  0.00  0.00    +0.000 C 
ENDBRANCH  25  28
ENDBRANCH  23  26
ENDBRANCH  22  23
ENDBRANCH   1  22
TORSDOF 6
ENDMDL
MODEL 5
REMARK VINA RESULT:     -10.9      2.400     10.197
REMARK  Name = 16741238
REMARK  6 active torsions:
REMARK  status: ('A' for Active; 'I' for Inactive)
REMARK    1  A    between atoms: N_1  and  C_22
REMARK    2  A    between atoms: C_10  and  C_15
REMARK    3  A    between atoms: C_15  and  C_16
REMARK    4  A    between atoms: C_22  and  C_23
REMARK    5  A    between atoms: C_23  and  C_26
REMARK    6  A    between atoms: N_25  and  C_28
REMARK                            x       y       z     vdW  Elec       q    Type
REMARK                         _______ _______ _______ _____ _____    ______ ____
ROOT
ATOM      1  N   UNL     1      35.318 -18.314 -22.805  0.00  0.00    -0.249 N 
ATOM      2  N   UNL     1      34.198 -17.904 -24.893  0.00  0.00    -0.373 NA
ATOM      3  N   UNL     1      34.880 -20.045 -24.344  0.00  0.00    -0.321 N 
ATOM      4  C   UNL     1      35.265 -16.918 -22.368  0.00  0.00    +0.071 C 
ATOM      5  C   UNL     1      34.599 -16.019 -23.372  0.00  0.00    +0.045 C 
ATOM      6  C   UNL     1      34.780 -18.706 -24.035  0.00  0.00    +0.239 C 
ATOM      7  C   UNL     1      34.100 -16.541 -24.574  0.00  0.00    +0.136 C 
ATOM      8  C   UNL     1      34.474 -14.649 -23.102  0.00  0.00    +0.007 C 
ATOM      9  C   UNL     1      33.482 -15.680 -25.490  0.00  0.00    +0.032 C 
ATOM     10  C   UNL     1      33.858 -13.801 -24.022  0.00  0.00    +0.039 C 
ATOM     11  C   UNL     1      33.361 -14.317 -25.216  0.00  0.00    +0.006 C 
ATOM     12  H   UNL     1      35.312 -20.665 -23.713  0.00  0.00    +0.146 HD
ATOM     13  H   UNL     1      34.520 -20.381 -25.196  0.00  0.00    +0.146 HD
ENDROOT
BRANCH  10  15
ATOM     14  O   UNL     1      34.372 -11.550 -24.398  0.00  0.00    -0.287 OA
ATOM     15  C   UNL     1      33.734 -12.381 -23.735  0.00  0.00    +0.196 C 
BRANCH  15  16
ATOM     16  C   UNL     1      32.849 -11.858 -22.650  0.00  0.00    +0.039 C 
ATOM     17  C   UNL     1      32.589 -10.491 -22.560  0.00  0.00    +0.003 C 
ATOM     18  C   UNL     1      32.281 -12.738 -21.727  0.00  0.00    +0.003 C 
ATOM     19  C   UNL     1      31.762 -10.003 -21.549  0.00  0.00    +0.000 C 
ATOM     20  C   UNL     1      31.455 -12.250 -20.716  0.00  0.00    +0.000 C 
ATOM     21  C   UNL     1      31.196 -10.882 -20.626  0.00  0.00    +0.000 C 
ENDBRANCH  15  16
ENDBRANCH  10  15
BRANCH   1  22
ATOM     22  C   UNL     1      35.959 -19.232 -21.870  0.00  0.00    +0.109 C 
BRANCH  22  23
ATOM     23  C   UNL     1      34.914 -19.925 -21.000  0.00  0.00    +0.107 C 
BRANCH  23  26
ATOM     24  O   UNL     1      36.730 -20.919 -19.784  0.00  0.00    -0.275 OA
ATOM     25  N   UNL     1      34.597 -21.646 -19.239  0.00  0.00    -0.279 N 
ATOM     26  C   UNL     1      35.510 -20.868 -19.959  0.00  0.00    +0.227 C 
ATOM     27  C   UNL     1      33.155 -21.571 -19.463  0.00  0.00    +0.115 C 
BRANCH  25  28
ATOM     28  C   UNL     1      35.011 -22.581 -18.221  0.00  0.00    +0.075 C 
ATOM     29  C   UNL     1      33.810 -23.032 -17.387  0.00  0.00    +0.020 C 
ATOM     30  C   UNL     1      36.105 -21.973 -17.339  0.00  0.00    +0.020 C 
ATOM     31  C   UNL     1      34.227 -23.982 -16.267  0.00  0.00    +0.002 C 
ATOM     32  C   UNL     1      36.520 -22.925 -16.220  0.00  0.00    +0.002 C 
ATOM     33  C   UNL     1      35.320 -23.375 -15.392  0.00  0.00    +0.000 C 
ENDBRANCH  25  28
ENDBRANCH  23  26
ENDBRANCH  22  23
ENDBRANCH   1  22
TORSDOF 6
ENDMDL
MODEL 6
REMARK VINA RESULT:     -10.7      5.077      9.362
REMARK  Name = 16741238
REMARK  6 active torsions:
REMARK  status: ('A' for Active; 'I' for Inactive)
REMARK    1  A    between atoms: N_1  and  C_22
REMARK    2  A    between atoms: C_10  and  C_15
REMARK    3  A    between atoms: C_15  and  C_16
REMARK    4  A    between atoms: C_22  and  C_23
REMARK    5  A    between atoms: C_23  and  C_26
REMARK    6  A    between atoms: N_25  and  C_28
REMARK                            x       y       z     vdW  Elec       q    Type
REMARK                         _______ _______ _______ _____ _____    ______ ____
ROOT
ATOM      1  N   UNL     1      34.783 -21.936 -19.240  0.00  0.00    -0.249 N 
ATOM      2  N   UNL     1      32.614 -22.375 -18.300  0.00  0.00    -0.373 NA
ATOM      3  N   UNL     1      32.797 -21.386 -20.383  0.00  0.00    -0.321 N 
ATOM      4  C   UNL     1      35.518 -22.484 -18.099  0.00  0.00    +0.071 C 
ATOM      5  C   UNL     1      34.612 -22.992 -17.013  0.00  0.00    +0.045 C 
ATOM      6  C   UNL     1      33.385 -21.922 -19.259  0.00  0.00    +0.239 C 
ATOM      7  C   UNL     1      33.219 -22.918 -17.156  0.00  0.00    +0.136 C 
ATOM      8  C   UNL     1      35.164 -23.544 -15.849  0.00  0.00    +0.007 C 
ATOM      9  C   UNL     1      32.399 -23.400 -16.128  0.00  0.00    +0.032 C 
ATOM     10  C   UNL     1      34.338 -24.021 -14.832  0.00  0.00    +0.039 C 
ATOM     11  C   UNL     1      32.954 -23.949 -14.972  0.00  0.00    +0.006 C 
ATOM     12  H   UNL     1      33.358 -21.041 -21.116  0.00  0.00    +0.146 HD
ATOM     13  H   UNL     1      31.816 -21.349 -20.455  0.00  0.00    +0.146 HD
ENDROOT
BRANCH  10  15
ATOM     14  O   UNL     1      34.282 -24.588 -12.563  0.00  0.00    -0.287 OA
ATOM     15  C   UNL     1      34.919 -24.591 -13.628  0.00  0.00    +0.196 C 
BRANCH  15  16
ATOM     16  C   UNL     1      36.284 -25.199 -13.608  0.00  0.00    +0.039 C 
ATOM     17  C   UNL     1      36.539 -26.363 -14.332  0.00  0.00    +0.003 C 
ATOM     18  C   UNL     1      37.303 -24.602 -12.866  0.00  0.00    +0.003 C 
ATOM     19  C   UNL     1      37.813 -26.930 -14.314  0.00  0.00    +0.000 C 
ATOM     20  C   UNL     1      38.577 -25.169 -12.848  0.00  0.00    +0.000 C 
ATOM     21  C   UNL     1      38.832 -26.334 -13.572  0.00  0.00    +0.000 C 
ENDBRANCH  15  16
ENDBRANCH  10  15
BRANCH   1  22
ATOM     22  C   UNL     1      35.615 -21.423 -20.325  0.00  0.00    +0.109 C 
BRANCH  22  23
ATOM     23  C   UNL     1      36.315 -20.136 -19.898  0.00  0.00    +0.107 C 
BRANCH  23  26
ATOM     24  O   UNL     1      37.619 -19.044 -21.592  0.00  0.00    -0.275 OA
ATOM     25  N   UNL     1      35.407 -18.379 -21.398  0.00  0.00    -0.279 N 
ATOM     26  C   UNL     1      36.521 -19.144 -21.038  0.00  0.00    +0.227 C 
ATOM     27  C   UNL     1      34.115 -18.513 -20.727  0.00  0.00    +0.115 C 
BRANCH  25  28
ATOM     28  C   UNL     1      35.448 -17.401 -22.459  0.00  0.00    +0.075 C 
ATOM     29  C   UNL     1      34.747 -16.112 -22.026  0.00  0.00    +0.020 C 
ATOM     30  C   UNL     1      34.834 -17.967 -23.742  0.00  0.00    +0.020 C 
ATOM     31  C   UNL     1      34.729 -15.076 -23.149  0.00  0.00    +0.002 C 
ATOM     32  C   UNL     1      34.818 -16.930 -24.862  0.00  0.00    +0.002 C 
ATOM     33  C   UNL     1      34.120 -15.644 -24.428  0.00  0.00    +0.000 C 
ENDBRANCH  25  28
ENDBRANCH  23  26
ENDBRANCH  22  23
ENDBRANCH   1  22
TORSDOF 6
ENDMDL
MODEL 7
REMARK VINA RESULT:     -10.7      2.626     10.633
REMARK  Name = 16741238
REMARK  6 active torsions:
REMARK  status: ('A' for Active; 'I' for Inactive)
REMARK    1  A    between atoms: N_1  and  C_22
REMARK    2  A    between atoms: C_10  and  C_15
REMARK    3  A    between atoms: C_15  and  C_16
REMARK    4  A    between atoms: C_22  and  C_23
REMARK    5  A    between atoms: C_23  and  C_26
REMARK    6  A    between atoms: N_25  and  C_28
REMARK                            x       y       z     vdW  Elec       q    Type
REMARK                         _______ _______ _______ _____ _____    ______ ____
ROOT
ATOM      1  N   UNL     1      35.035 -17.056 -21.628  0.00  0.00    -0.249 N 
ATOM      2  N   UNL     1      34.243 -15.817 -23.531  0.00  0.00    -0.373 NA
ATOM      3  N   UNL     1      35.464 -17.757 -23.837  0.00  0.00    -0.321 N 
ATOM      4  C   UNL     1      34.459 -16.139 -20.643  0.00  0.00    +0.071 C 
ATOM      5  C   UNL     1      33.733 -14.986 -21.277  0.00  0.00    +0.045 C 
ATOM      6  C   UNL     1      34.885 -16.829 -22.999  0.00  0.00    +0.239 C 
ATOM      7  C   UNL     1      33.656 -14.874 -22.672  0.00  0.00    +0.136 C 
ATOM      8  C   UNL     1      33.129 -14.015 -20.466  0.00  0.00    +0.007 C 
ATOM      9  C   UNL     1      32.972 -13.789 -23.235  0.00  0.00    +0.032 C 
ATOM     10  C   UNL     1      32.451 -12.939 -21.037  0.00  0.00    +0.039 C 
ATOM     11  C   UNL     1      32.373 -12.826 -22.423  0.00  0.00    +0.006 C 
ATOM     12  H   UNL     1      35.950 -18.526 -23.459  0.00  0.00    +0.146 HD
ATOM     13  H   UNL     1      35.392 -17.652 -24.813  0.00  0.00    +0.146 HD
ENDROOT
BRANCH  10  15
ATOM     14  O   UNL     1      31.268 -12.271 -19.134  0.00  0.00    -0.287 OA
ATOM     15  C   UNL     1      31.828 -11.937 -20.189  0.00  0.00    +0.196 C 
BRANCH  15  16
ATOM     16  C   UNL     1      31.831 -10.482 -20.532  0.00  0.00    +0.039 C 
ATOM     17  C   UNL     1      32.106  -9.533 -19.548  0.00  0.00    +0.003 C 
ATOM     18  C   UNL     1      31.560 -10.074 -21.839  0.00  0.00    +0.003 C 
ATOM     19  C   UNL     1      32.109  -8.176 -19.870  0.00  0.00    +0.000 C 
ATOM     20  C   UNL     1      31.563  -8.717 -22.160  0.00  0.00    +0.000 C 
ATOM     21  C   UNL     1      31.838  -7.768 -21.175  0.00  0.00    +0.000 C 
ENDBRANCH  15  16
ENDBRANCH  10  15
BRANCH   1  22
ATOM     22  C   UNL     1      35.756 -18.195 -21.067  0.00  0.00    +0.109 C 
BRANCH  22  23
ATOM     23  C   UNL     1      34.919 -19.465 -21.182  0.00  0.00    +0.107 C 
BRANCH  23  26
ATOM     24  O   UNL     1      36.545 -20.794 -20.017  0.00  0.00    -0.275 OA
ATOM     25  N   UNL     1      34.317 -21.291 -19.611  0.00  0.00    -0.279 N 
ATOM     26  C   UNL     1      35.349 -20.571 -20.223  0.00  0.00    +0.227 C 
ATOM     27  C   UNL     1      32.906 -21.012 -19.869  0.00  0.00    +0.115 C 
BRANCH  25  28
ATOM     28  C   UNL     1      34.569 -22.364 -18.679  0.00  0.00    +0.075 C 
ATOM     29  C   UNL     1      33.272 -22.790 -17.988  0.00  0.00    +0.020 C 
ATOM     30  C   UNL     1      35.636 -21.957 -17.659  0.00  0.00    +0.020 C 
ATOM     31  C   UNL     1      33.517 -23.889 -16.957  0.00  0.00    +0.002 C 
ATOM     32  C   UNL     1      35.879 -23.058 -16.629  0.00  0.00    +0.002 C 
ATOM     33  C   UNL     1      34.583 -23.482 -15.944  0.00  0.00    +0.000 C 
ENDBRANCH  25  28
ENDBRANCH  23  26
ENDBRANCH  22  23
ENDBRANCH   1  22
TORSDOF 6
ENDMDL
MODEL 8
REMARK VINA RESULT:     -10.6      2.410     10.975
REMARK  Name = 16741238
REMARK  6 active torsions:
REMARK  status: ('A' for Active; 'I' for Inactive)
REMARK    1  A    between atoms: N_1  and  C_22
REMARK    2  A    between atoms: C_10  and  C_15
REMARK    3  A    between atoms: C_15  and  C_16
REMARK    4  A    between atoms: C_22  and  C_23
REMARK    5  A    between atoms: C_23  and  C_26
REMARK    6  A    between atoms: N_25  and  C_28
REMARK                            x       y       z     vdW  Elec       q    Type
REMARK                         _______ _______ _______ _____ _____    ______ ____
ROOT
ATOM      1  N   UNL     1      32.303 -12.691 -22.004  0.00  0.00    -0.249 N 
ATOM      2  N   UNL     1      31.956 -11.913 -19.755  0.00  0.00    -0.373 NA
ATOM      3  N   UNL     1      32.146 -14.178 -20.183  0.00  0.00    -0.321 N 
ATOM      4  C   UNL     1      32.307 -11.350 -22.593  0.00  0.00    +0.071 C 
ATOM      5  C   UNL     1      32.102 -10.267 -21.571  0.00  0.00    +0.045 C 
ATOM      6  C   UNL     1      32.129 -12.875 -20.629  0.00  0.00    +0.239 C 
ATOM      7  C   UNL     1      31.938 -10.587 -20.217  0.00  0.00    +0.136 C 
ATOM      8  C   UNL     1      32.076  -8.925 -21.978  0.00  0.00    +0.007 C 
ATOM      9  C   UNL     1      31.749  -9.556 -19.287  0.00  0.00    +0.032 C 
ATOM     10  C   UNL     1      31.888  -7.907 -21.044  0.00  0.00    +0.039 C 
ATOM     11  C   UNL     1      31.724  -8.223 -19.698  0.00  0.00    +0.006 C 
ATOM     12  H   UNL     1      32.275 -14.916 -20.822  0.00  0.00    +0.146 HD
ATOM     13  H   UNL     1      32.028 -14.371 -19.224  0.00  0.00    +0.146 HD
ENDROOT
BRANCH  10  15
ATOM     14  O   UNL     1      31.345  -5.650 -20.756  0.00  0.00    -0.287 OA
ATOM     15  C   UNL     1      31.861  -6.519 -21.475  0.00  0.00    +0.196 C 
BRANCH  15  16
ATOM     16  C   UNL     1      32.443  -6.073 -22.777  0.00  0.00    +0.039 C 
ATOM     17  C   UNL     1      31.803  -5.087 -23.526  0.00  0.00    +0.003 C 
ATOM     18  C   UNL     1      33.629  -6.643 -23.243  0.00  0.00    +0.003 C 
ATOM     19  C   UNL     1      32.347  -4.670 -24.741  0.00  0.00    +0.000 C 
ATOM     20  C   UNL     1      34.173  -6.227 -24.457  0.00  0.00    +0.000 C 
ATOM     21  C   UNL     1      33.532  -5.240 -25.207  0.00  0.00    +0.000 C 
ENDBRANCH  15  16
ENDBRANCH  10  15
BRANCH   1  22
ATOM     22  C   UNL     1      32.494 -13.784 -22.952  0.00  0.00    +0.109 C 
BRANCH  22  23
ATOM     23  C   UNL     1      33.980 -13.994 -23.232  0.00  0.00    +0.107 C 
BRANCH  23  26
ATOM     24  O   UNL     1      34.772 -15.311 -21.387  0.00  0.00    -0.275 OA
ATOM     25  N   UNL     1      34.792 -16.328 -23.470  0.00  0.00    -0.279 N 
ATOM     26  C   UNL     1      34.550 -15.260 -22.599  0.00  0.00    +0.227 C 
ATOM     27  C   UNL     1      34.522 -16.247 -24.904  0.00  0.00    +0.115 C 
BRANCH  25  28
ATOM     28  C   UNL     1      35.328 -17.590 -23.018  0.00  0.00    +0.075 C 
ATOM     29  C   UNL     1      34.616 -18.753 -23.711  0.00  0.00    +0.020 C 
ATOM     30  C   UNL     1      35.230 -17.705 -21.494  0.00  0.00    +0.020 C 
ATOM     31  C   UNL     1      35.125 -20.103 -23.212  0.00  0.00    +0.002 C 
ATOM     32  C   UNL     1      35.740 -19.055 -20.998  0.00  0.00    +0.002 C 
ATOM     33  C   UNL     1      35.031 -20.214 -21.693  0.00  0.00    +0.000 C 
ENDBRANCH  25  28
ENDBRANCH  23  26
ENDBRANCH  22  23
ENDBRANCH   1  22
TORSDOF 6
ENDMDL
MODEL 9
REMARK VINA RESULT:     -10.5      3.642      6.277
REMARK  Name = 16741238
REMARK  6 active torsions:
REMARK  status: ('A' for Active; 'I' for Inactive)
REMARK    1  A    between atoms: N_1  and  C_22
REMARK    2  A    between atoms: C_10  and  C_15
REMARK    3  A    between atoms: C_15  and  C_16
REMARK    4  A    between atoms: C_22  and  C_23
REMARK    5  A    between atoms: C_23  and  C_26
REMARK    6  A    between atoms: N_25  and  C_28
REMARK                            x       y       z     vdW  Elec       q    Type
REMARK                         _______ _______ _______ _____ _____    ______ ____
ROOT
ATOM      1  N   UNL     1      35.404 -19.391 -21.720  0.00  0.00    -0.249 N 
ATOM      2  N   UNL     1      37.095 -20.229 -20.229  0.00  0.00    -0.373 NA
ATOM      3  N   UNL     1      37.670 -18.780 -21.938  0.00  0.00    -0.321 N 
ATOM      4  C   UNL     1      34.308 -20.110 -21.069  0.00  0.00    +0.071 C 
ATOM      5  C   UNL     1      34.768 -20.939 -19.903  0.00  0.00    +0.045 C 
ATOM      6  C   UNL     1      36.718 -19.502 -21.253  0.00  0.00    +0.239 C 
ATOM      7  C   UNL     1      36.120 -20.964 -19.536  0.00  0.00    +0.136 C 
ATOM      8  C   UNL     1      33.835 -21.692 -19.176  0.00  0.00    +0.007 C 
ATOM      9  C   UNL     1      36.520 -21.745 -18.445  0.00  0.00    +0.032 C 
ATOM     10  C   UNL     1      34.244 -22.467 -18.090  0.00  0.00    +0.039 C 
ATOM     11  C   UNL     1      35.587 -22.493 -17.725  0.00  0.00    +0.006 C 
ATOM     12  H   UNL     1      37.408 -18.227 -22.709  0.00  0.00    +0.146 HD
ATOM     13  H   UNL     1      38.613 -18.818 -21.656  0.00  0.00    +0.146 HD
ENDROOT
BRANCH  10  15
ATOM     14  O   UNL     1      32.178 -23.538 -17.853  0.00  0.00    -0.287 OA
ATOM     15  C   UNL     1      33.271 -23.245 -17.343  0.00  0.00    +0.196 C 
BRANCH  15  16
ATOM     16  C   UNL     1      33.528 -23.726 -15.951  0.00  0.00    +0.039 C 
ATOM     17  C   UNL     1      34.718 -24.386 -15.650  0.00  0.00    +0.003 C 
ATOM     18  C   UNL     1      32.577 -23.512 -14.953  0.00  0.00    +0.003 C 
ATOM     19  C   UNL     1      34.959 -24.833 -14.351  0.00  0.00    +0.000 C 
ATOM     20  C   UNL     1      32.817 -23.959 -13.654  0.00  0.00    +0.000 C 
ATOM     21  C   UNL     1      34.008 -24.621 -13.353  0.00  0.00    +0.000 C 
ENDBRANCH  15  16
ENDBRANCH  10  15
BRANCH   1  22
ATOM     22  C   UNL     1      35.016 -18.572 -22.864  0.00  0.00    +0.109 C 
BRANCH  22  23
ATOM     23  C   UNL     1      35.578 -17.160 -22.724  0.00  0.00    +0.107 C 
BRANCH  23  26
ATOM     24  O   UNL     1      34.233 -15.853 -24.224  0.00  0.00    -0.275 OA
ATOM     25  N   UNL     1      34.070 -15.338 -21.969  0.00  0.00    -0.279 N 
ATOM     26  C   UNL     1      34.570 -16.064 -23.055  0.00  0.00    +0.227 C 
ATOM     27  C   UNL     1      34.482 -15.604 -20.592  0.00  0.00    +0.115 C 
BRANCH  25  28
ATOM     28  C   UNL     1      33.109 -14.273 -22.126  0.00  0.00    +0.075 C 
ATOM     29  C   UNL     1      33.756 -13.063 -22.805  0.00  0.00    +0.020 C 
ATOM     30  C   UNL     1      32.496 -13.892 -20.776  0.00  0.00    +0.020 C 
ATOM     31  C   UNL     1      32.776 -11.900 -22.937  0.00  0.00    +0.002 C 
ATOM     32  C   UNL     1      31.516 -12.729 -20.911  0.00  0.00    +0.002 C 
ATOM     33  C   UNL     1      32.163 -11.526 -21.590  0.00  0.00    +0.000 C 
ENDBRANCH  25  28
ENDBRANCH  23  26
ENDBRANCH  22  23
ENDBRANCH   1  22
TORSDOF 6
ENDMDL
