MODEL 1
REMARK VINA RESULT:     -11.7      0.000      0.000
REMARK  Name = 54766013
REMARK  5 active torsions:
REMARK  status: ('A' for Active; 'I' for Inactive)
REMARK    1  A    between atoms: C_3  and  C_11
REMARK    2  A    between atoms: C_4  and  C_18
REMARK    3  A    between atoms: C_5  and  C_24
REMARK    4  A    between atoms: C_24  and  N_25
REMARK    5  A    between atoms: N_25  and  C_28
REMARK                            x       y       z     vdW  Elec       q    Type
REMARK                         _______ _______ _______ _____ _____    ______ ____
ROOT
ATOM      1  N   UNL     1      36.825 -23.097 -16.453  0.00  0.00    -0.315 N 
ATOM      2  N   UNL     1      34.732 -22.859 -17.158  0.00  0.00    -0.317 N 
ATOM      3  C   UNL     1      34.756 -23.553 -15.974  0.00  0.00    +0.063 C 
ATOM      4  C   UNL     1      36.043 -23.712 -15.517  0.00  0.00    +0.085 C 
ATOM      5  C   UNL     1      35.995 -22.600 -17.419  0.00  0.00    +0.164 C 
ATOM      6  H   UNL     1      37.807 -23.024 -16.435  0.00  0.00    +0.148 HD
ATOM      7  H   UNL     1      33.945 -22.611 -17.694  0.00  0.00    +0.148 HD
ENDROOT
BRANCH   3  11
ATOM      8  N   UNL     1      31.134 -24.222 -15.374  0.00  0.00    -0.170 N 
ATOM      9  N   UNL     1      29.866 -24.075 -15.834  0.00  0.00    -0.150 NA
ATOM     10  N   UNL     1      29.851 -25.197 -13.843  0.00  0.00    -0.206 NA
ATOM     11  C   UNL     1      33.507 -24.028 -15.346  0.00  0.00    +0.031 C 
ATOM     12  C   UNL     1      32.328 -23.788 -15.956  0.00  0.00    +0.092 C 
ATOM     13  C   UNL     1      33.479 -24.745 -14.068  0.00  0.00    +0.006 C 
ATOM     14  C   UNL     1      31.094 -24.908 -14.158  0.00  0.00    +0.157 C 
ATOM     15  C   UNL     1      32.330 -25.163 -13.506  0.00  0.00    +0.036 C 
ATOM     16  C   UNL     1      29.149 -24.673 -14.884  0.00  0.00    +0.219 C 
ENDBRANCH   3  11
BRANCH   4  18
ATOM     17  N   UNL     1      36.629 -23.574 -13.244  0.00  0.00    -0.409 NA
ATOM     18  C   UNL     1      36.585 -24.355 -14.346  0.00  0.00    +0.127 C 
ATOM     19  C   UNL     1      37.014 -25.672 -14.381  0.00  0.00    +0.086 C 
ATOM     20  C   UNL     1      37.129 -24.143 -12.124  0.00  0.00    +0.109 C 
ATOM     21  C   UNL     1      37.522 -26.222 -13.209  0.00  0.00    -0.016 C 
ATOM     22  C   UNL     1      37.583 -25.451 -12.055  0.00  0.00    +0.023 C 
ATOM     23  C   UNL     1      37.181 -23.285 -10.904  0.00  0.00    +0.066 C 
ENDBRANCH   4  18
BRANCH   5  24
ATOM     24  C   UNL     1      36.524 -21.869 -18.585  0.00  0.00    +0.128 C 
BRANCH  24  25
ATOM     25  N   UNL     1      35.455 -21.303 -19.391  0.00  0.00    -0.328 N 
ATOM     26  H   UNL     1      34.530 -21.578 -19.199  0.00  0.00    +0.147 HD
BRANCH  25  28
ATOM     27  F   UNL     1      33.402 -20.556 -21.089  0.00  0.00    -0.203 F 
ATOM     28  C   UNL     1      35.672 -20.399 -20.411  0.00  0.00    +0.073 C 
ATOM     29  C   UNL     1      34.625 -20.034 -21.258  0.00  0.00    +0.153 C 
ATOM     30  C   UNL     1      36.942 -19.850 -20.597  0.00  0.00    +0.017 C 
ATOM     31  C   UNL     1      34.846 -19.121 -22.288  0.00  0.00    +0.031 C 
ATOM     32  C   UNL     1      37.162 -18.936 -21.628  0.00  0.00    +0.001 C 
ATOM     33  C   UNL     1      36.115 -18.572 -22.473  0.00  0.00    +0.002 C 
ENDBRANCH  25  28
ENDBRANCH  24  25
ENDBRANCH   5  24
TORSDOF 5
ENDMDL
MODEL 2
REMARK VINA RESULT:     -11.7      2.863      7.584
REMARK  Name = 54766013
REMARK  5 active torsions:
REMARK  status: ('A' for Active; 'I' for Inactive)
REMARK    1  A    between atoms: C_3  and  C_11
REMARK    2  A    between atoms: C_4  and  C_18
REMARK    3  A    between atoms: C_5  and  C_24
REMARK    4  A    between atoms: C_24  and  N_25
REMARK    5  A    between atoms: N_25  and  C_28
REMARK                            x       y       z     vdW  Elec       q    Type
REMARK                         _______ _______ _______ _____ _____    ______ ____
ROOT
ATOM      1  N   UNL     1      33.101 -23.208 -14.695  0.00  0.00    -0.315 N 
ATOM      2  N   UNL     1      33.861 -24.737 -13.275  0.00  0.00    -0.317 N 
ATOM      3  C   UNL     1      34.769 -24.537 -14.285  0.00  0.00    +0.063 C 
ATOM      4  C   UNL     1      34.319 -23.592 -15.177  0.00  0.00    +0.085 C 
ATOM      5  C   UNL     1      32.868 -23.921 -13.552  0.00  0.00    +0.164 C 
ATOM      6  H   UNL     1      32.500 -22.538 -15.095  0.00  0.00    +0.148 HD
ATOM      7  H   UNL     1      33.937 -25.355 -12.513  0.00  0.00    +0.148 HD
ENDROOT
BRANCH   3  11
ATOM      8  N   UNL     1      38.370 -25.413 -13.845  0.00  0.00    -0.170 N 
ATOM      9  N   UNL     1      39.582 -25.014 -13.382  0.00  0.00    -0.150 NA
ATOM     10  N   UNL     1      39.742 -27.100 -14.303  0.00  0.00    -0.206 NA
ATOM     11  C   UNL     1      36.040 -25.286 -14.325  0.00  0.00    +0.031 C 
ATOM     12  C   UNL     1      37.155 -24.724 -13.810  0.00  0.00    +0.092 C 
ATOM     13  C   UNL     1      36.162 -26.622 -14.914  0.00  0.00    +0.006 C 
ATOM     14  C   UNL     1      38.498 -26.687 -14.402  0.00  0.00    +0.157 C 
ATOM     15  C   UNL     1      37.332 -27.286 -14.949  0.00  0.00    +0.036 C 
ATOM     16  C   UNL     1      40.355 -26.057 -13.682  0.00  0.00    +0.219 C 
ENDBRANCH   3  11
BRANCH   4  18
ATOM     17  N   UNL     1      34.014 -22.859 -17.391  0.00  0.00    -0.409 NA
ATOM     18  C   UNL     1      34.892 -23.042 -16.380  0.00  0.00    +0.127 C 
ATOM     19  C   UNL     1      36.241 -22.732 -16.458  0.00  0.00    +0.086 C 
ATOM     20  C   UNL     1      34.515 -22.341 -18.535  0.00  0.00    +0.109 C 
ATOM     21  C   UNL     1      36.718 -22.201 -17.652  0.00  0.00    -0.016 C 
ATOM     22  C   UNL     1      35.845 -21.998 -18.714  0.00  0.00    +0.023 C 
ATOM     23  C   UNL     1      33.549 -22.139 -19.655  0.00  0.00    +0.066 C 
ENDBRANCH   4  18
BRANCH   5  24
ATOM     24  C   UNL     1      31.628 -23.744 -12.775  0.00  0.00    +0.128 C 
BRANCH  24  25
ATOM     25  N   UNL     1      30.557 -24.588 -13.277  0.00  0.00    -0.328 N 
ATOM     26  H   UNL     1      30.357 -25.424 -12.797  0.00  0.00    +0.147 HD
BRANCH  25  28
ATOM     27  F   UNL     1      29.827 -26.550 -15.088  0.00  0.00    -0.203 F 
ATOM     28  C   UNL     1      29.806 -24.280 -14.394  0.00  0.00    +0.073 C 
ATOM     29  C   UNL     1      29.448 -25.281 -15.296  0.00  0.00    +0.153 C 
ATOM     30  C   UNL     1      29.407 -22.961 -14.621  0.00  0.00    +0.017 C 
ATOM     31  C   UNL     1      28.690 -24.967 -16.423  0.00  0.00    +0.031 C 
ATOM     32  C   UNL     1      28.649 -22.647 -15.749  0.00  0.00    +0.001 C 
ATOM     33  C   UNL     1      28.290 -23.650 -16.650  0.00  0.00    +0.002 C 
ENDBRANCH  25  28
ENDBRANCH  24  25
ENDBRANCH   5  24
TORSDOF 5
ENDMDL
MODEL 3
REMARK VINA RESULT:     -11.6      1.393      5.060
REMARK  Name = 54766013
REMARK  5 active torsions:
REMARK  status: ('A' for Active; 'I' for Inactive)
REMARK    1  A    between atoms: C_3  and  C_11
REMARK    2  A    between atoms: C_4  and  C_18
REMARK    3  A    between atoms: C_5  and  C_24
REMARK    4  A    between atoms: C_24  and  N_25
REMARK    5  A    between atoms: N_25  and  C_28
REMARK                            x       y       z     vdW  Elec       q    Type
REMARK                         _______ _______ _______ _____ _____    ______ ____
ROOT
ATOM      1  N   UNL     1      32.988 -22.938 -17.436  0.00  0.00    -0.315 N 
ATOM      2  N   UNL     1      35.201 -23.086 -17.339  0.00  0.00    -0.317 N 
ATOM      3  C   UNL     1      34.643 -23.611 -16.201  0.00  0.00    +0.063 C 
ATOM      4  C   UNL     1      33.271 -23.531 -16.238  0.00  0.00    +0.085 C 
ATOM      5  C   UNL     1      34.177 -22.689 -18.062  0.00  0.00    +0.164 C 
ATOM      6  H   UNL     1      32.091 -22.729 -17.786  0.00  0.00    +0.148 HD
ATOM      7  H   UNL     1      36.158 -23.019 -17.564  0.00  0.00    +0.148 HD
ENDROOT
BRANCH   3  11
ATOM      8  N   UNL     1      36.920 -23.837 -13.253  0.00  0.00    -0.170 N 
ATOM      9  N   UNL     1      37.617 -23.156 -12.308  0.00  0.00    -0.150 NA
ATOM     10  N   UNL     1      37.928 -25.405 -12.043  0.00  0.00    -0.206 NA
ATOM     11  C   UNL     1      35.488 -24.169 -15.127  0.00  0.00    +0.031 C 
ATOM     12  C   UNL     1      36.109 -23.330 -14.271  0.00  0.00    +0.092 C 
ATOM     13  C   UNL     1      35.701 -25.608 -14.944  0.00  0.00    +0.006 C 
ATOM     14  C   UNL     1      37.129 -25.206 -13.068  0.00  0.00    +0.157 C 
ATOM     15  C   UNL     1      36.482 -26.097 -13.964  0.00  0.00    +0.036 C 
ATOM     16  C   UNL     1      38.195 -24.140 -11.620  0.00  0.00    +0.219 C 
ENDBRANCH   3  11
BRANCH   4  18
ATOM     17  N   UNL     1      31.035 -24.154 -15.859  0.00  0.00    -0.409 NA
ATOM     18  C   UNL     1      32.249 -23.936 -15.306  0.00  0.00    +0.127 C 
ATOM     19  C   UNL     1      32.524 -24.086 -13.956  0.00  0.00    +0.086 C 
ATOM     20  C   UNL     1      30.051 -24.538 -15.016  0.00  0.00    +0.109 C 
ATOM     21  C   UNL     1      31.485 -24.483 -13.121  0.00  0.00    -0.016 C 
ATOM     22  C   UNL     1      30.223 -24.716 -13.652  0.00  0.00    +0.023 C 
ATOM     23  C   UNL     1      28.708 -24.779 -15.621  0.00  0.00    +0.066 C 
ENDBRANCH   4  18
BRANCH   5  24
ATOM     24  C   UNL     1      34.227 -22.049 -19.389  0.00  0.00    +0.128 C 
BRANCH  24  25
ATOM     25  N   UNL     1      35.334 -21.112 -19.489  0.00  0.00    -0.328 N 
ATOM     26  H   UNL     1      35.974 -21.064 -18.743  0.00  0.00    +0.147 HD
BRANCH  25  28
ATOM     27  F   UNL     1      37.683 -19.678 -19.776  0.00  0.00    -0.203 F 
ATOM     28  C   UNL     1      35.531 -20.284 -20.576  0.00  0.00    +0.073 C 
ATOM     29  C   UNL     1      36.722 -19.569 -20.704  0.00  0.00    +0.153 C 
ATOM     30  C   UNL     1      34.537 -20.162 -21.548  0.00  0.00    +0.017 C 
ATOM     31  C   UNL     1      36.920 -18.733 -21.802  0.00  0.00    +0.031 C 
ATOM     32  C   UNL     1      34.735 -19.326 -22.647  0.00  0.00    +0.001 C 
ATOM     33  C   UNL     1      35.926 -18.611 -22.774  0.00  0.00    +0.002 C 
ENDBRANCH  25  28
ENDBRANCH  24  25
ENDBRANCH   5  24
TORSDOF 5
ENDMDL
MODEL 4
REMARK VINA RESULT:     -11.4      1.464      4.936
REMARK  Name = 54766013
REMARK  5 active torsions:
REMARK  status: ('A' for Active; 'I' for Inactive)
REMARK    1  A    between atoms: C_3  and  C_11
REMARK    2  A    between atoms: C_4  and  C_18
REMARK    3  A    between atoms: C_5  and  C_24
REMARK    4  A    between atoms: C_24  and  N_25
REMARK    5  A    between atoms: N_25  and  C_28
REMARK                            x       y       z     vdW  Elec       q    Type
REMARK                         _______ _______ _______ _____ _____    ______ ____
ROOT
ATOM      1  N   UNL     1      32.591 -23.164 -17.593  0.00  0.00    -0.315 N 
ATOM      2  N   UNL     1      34.743 -23.263 -17.055  0.00  0.00    -0.317 N 
ATOM      3  C   UNL     1      33.977 -23.760 -16.031  0.00  0.00    +0.063 C 
ATOM      4  C   UNL     1      32.639 -23.709 -16.341  0.00  0.00    +0.085 C 
ATOM      5  C   UNL     1      33.878 -22.912 -17.981  0.00  0.00    +0.164 C 
ATOM      6  H   UNL     1      31.778 -22.985 -18.120  0.00  0.00    +0.148 HD
ATOM      7  H   UNL     1      35.724 -23.185 -17.089  0.00  0.00    +0.148 HD
ENDROOT
BRANCH   3  11
ATOM      8  N   UNL     1      36.167 -25.693 -13.708  0.00  0.00    -0.170 N 
ATOM      9  N   UNL     1      37.149 -26.623 -13.591  0.00  0.00    -0.150 NA
ATOM     10  N   UNL     1      36.515 -25.888 -11.522  0.00  0.00    -0.206 NA
ATOM     11  C   UNL     1      34.599 -24.263 -14.791  0.00  0.00    +0.031 C 
ATOM     12  C   UNL     1      35.571 -25.196 -14.870  0.00  0.00    +0.092 C 
ATOM     13  C   UNL     1      34.203 -23.807 -13.455  0.00  0.00    +0.006 C 
ATOM     14  C   UNL     1      35.799 -25.264 -12.431  0.00  0.00    +0.157 C 
ATOM     15  C   UNL     1      34.776 -24.283 -12.336  0.00  0.00    +0.036 C 
ATOM     16  C   UNL     1      37.313 -26.696 -12.271  0.00  0.00    +0.219 C 
ENDBRANCH   3  11
BRANCH   4  18
ATOM     17  N   UNL     1      30.351 -23.383 -15.904  0.00  0.00    -0.409 NA
ATOM     18  C   UNL     1      31.458 -24.103 -15.615  0.00  0.00    +0.127 C 
ATOM     19  C   UNL     1      31.488 -25.145 -14.702  0.00  0.00    +0.086 C 
ATOM     20  C   UNL     1      29.222 -23.725 -15.244  0.00  0.00    +0.109 C 
ATOM     21  C   UNL     1      30.306 -25.467 -14.043  0.00  0.00    -0.016 C 
ATOM     22  C   UNL     1      29.147 -24.749 -14.314  0.00  0.00    +0.023 C 
ATOM     23  C   UNL     1      27.997 -22.931 -15.559  0.00  0.00    +0.066 C 
ENDBRANCH   4  18
BRANCH   5  24
ATOM     24  C   UNL     1      34.181 -22.317 -19.295  0.00  0.00    +0.128 C 
BRANCH  24  25
ATOM     25  N   UNL     1      35.296 -21.388 -19.216  0.00  0.00    -0.328 N 
ATOM     26  H   UNL     1      35.857 -21.400 -18.408  0.00  0.00    +0.147 HD
BRANCH  25  28
ATOM     27  F   UNL     1      33.359 -20.495 -20.980  0.00  0.00    -0.203 F 
ATOM     28  C   UNL     1      35.607 -20.490 -20.217  0.00  0.00    +0.073 C 
ATOM     29  C   UNL     1      34.618 -20.051 -21.097  0.00  0.00    +0.153 C 
ATOM     30  C   UNL     1      36.916 -20.021 -20.349  0.00  0.00    +0.017 C 
ATOM     31  C   UNL     1      34.935 -19.144 -22.108  0.00  0.00    +0.031 C 
ATOM     32  C   UNL     1      37.232 -19.114 -21.360  0.00  0.00    +0.001 C 
ATOM     33  C   UNL     1      36.242 -18.675 -22.239  0.00  0.00    +0.002 C 
ENDBRANCH  25  28
ENDBRANCH  24  25
ENDBRANCH   5  24
TORSDOF 5
ENDMDL
MODEL 5
REMARK VINA RESULT:     -11.3      3.154      6.759
REMARK  Name = 54766013
REMARK  5 active torsions:
REMARK  status: ('A' for Active; 'I' for Inactive)
REMARK    1  A    between atoms: C_3  and  C_11
REMARK    2  A    between atoms: C_4  and  C_18
REMARK    3  A    between atoms: C_5  and  C_24
REMARK    4  A    between atoms: C_24  and  N_25
REMARK    5  A    between atoms: N_25  and  C_28
REMARK                            x       y       z     vdW  Elec       q    Type
REMARK                         _______ _______ _______ _____ _____    ______ ____
ROOT
ATOM      1  N   UNL     1      35.050 -23.870 -13.951  0.00  0.00    -0.315 N 
ATOM      2  N   UNL     1      33.225 -24.503 -12.856  0.00  0.00    -0.317 N 
ATOM      3  C   UNL     1      32.911 -24.191 -14.154  0.00  0.00    +0.063 C 
ATOM      4  C   UNL     1      34.027 -23.795 -14.854  0.00  0.00    +0.085 C 
ATOM      5  C   UNL     1      34.521 -24.299 -12.766  0.00  0.00    +0.164 C 
ATOM      6  H   UNL     1      35.995 -23.654 -14.123  0.00  0.00    +0.148 HD
ATOM      7  H   UNL     1      32.615 -24.812 -12.147  0.00  0.00    +0.148 HD
ENDROOT
BRANCH   3  11
ATOM      8  N   UNL     1      29.685 -23.355 -15.835  0.00  0.00    -0.170 N 
ATOM      9  N   UNL     1      28.993 -22.443 -16.563  0.00  0.00    -0.150 NA
ATOM     10  N   UNL     1      27.684 -24.270 -16.146  0.00  0.00    -0.206 NA
ATOM     11  C   UNL     1      31.524 -24.296 -14.648  0.00  0.00    +0.031 C 
ATOM     12  C   UNL     1      30.999 -23.280 -15.365  0.00  0.00    +0.092 C 
ATOM     13  C   UNL     1      30.669 -25.458 -14.388  0.00  0.00    +0.006 C 
ATOM     14  C   UNL     1      28.862 -24.458 -15.594  0.00  0.00    +0.157 C 
ATOM     15  C   UNL     1      29.404 -25.532 -14.839  0.00  0.00    +0.036 C 
ATOM     16  C   UNL     1      27.813 -23.042 -16.717  0.00  0.00    +0.219 C 
ENDBRANCH   3  11
BRANCH   4  18
ATOM     17  N   UNL     1      35.410 -22.785 -16.465  0.00  0.00    -0.409 NA
ATOM     18  C   UNL     1      34.219 -23.374 -16.219  0.00  0.00    +0.127 C 
ATOM     19  C   UNL     1      33.240 -23.577 -17.179  0.00  0.00    +0.086 C 
ATOM     20  C   UNL     1      35.627 -22.379 -17.736  0.00  0.00    +0.109 C 
ATOM     21  C   UNL     1      33.502 -23.146 -18.475  0.00  0.00    -0.016 C 
ATOM     22  C   UNL     1      34.715 -22.535 -18.768  0.00  0.00    +0.023 C 
ATOM     23  C   UNL     1      36.941 -21.725 -18.014  0.00  0.00    +0.066 C 
ENDBRANCH   4  18
BRANCH   5  24
ATOM     24  C   UNL     1      35.365 -24.489 -11.572  0.00  0.00    +0.128 C 
BRANCH  24  25
ATOM     25  N   UNL     1      36.112 -25.734 -11.638  0.00  0.00    -0.328 N 
ATOM     26  H   UNL     1      35.863 -26.461 -11.024  0.00  0.00    +0.147 HD
BRANCH  25  28
ATOM     27  F   UNL     1      38.505 -24.370 -11.367  0.00  0.00    -0.203 F 
ATOM     28  C   UNL     1      37.154 -25.948 -12.518  0.00  0.00    +0.073 C 
ATOM     29  C   UNL     1      38.353 -25.251 -12.366  0.00  0.00    +0.153 C 
ATOM     30  C   UNL     1      37.007 -26.862 -13.562  0.00  0.00    +0.017 C 
ATOM     31  C   UNL     1      39.405 -25.468 -13.256  0.00  0.00    +0.031 C 
ATOM     32  C   UNL     1      38.059 -27.079 -14.452  0.00  0.00    +0.001 C 
ATOM     33  C   UNL     1      39.258 -26.382 -14.299  0.00  0.00    +0.002 C 
ENDBRANCH  25  28
ENDBRANCH  24  25
ENDBRANCH   5  24
TORSDOF 5
ENDMDL
MODEL 6
REMARK VINA RESULT:     -11.1      2.593      6.671
REMARK  Name = 54766013
REMARK  5 active torsions:
REMARK  status: ('A' for Active; 'I' for Inactive)
REMARK    1  A    between atoms: C_3  and  C_11
REMARK    2  A    between atoms: C_4  and  C_18
REMARK    3  A    between atoms: C_5  and  C_24
REMARK    4  A    between atoms: C_24  and  N_25
REMARK    5  A    between atoms: N_25  and  C_28
REMARK                            x       y       z     vdW  Elec       q    Type
REMARK                         _______ _______ _______ _____ _____    ______ ____
ROOT
ATOM      1  N   UNL     1      33.923 -25.063 -12.775  0.00  0.00    -0.315 N 
ATOM      2  N   UNL     1      33.107 -24.339 -14.709  0.00  0.00    -0.317 N 
ATOM      3  C   UNL     1      34.438 -24.021 -14.609  0.00  0.00    +0.063 C 
ATOM      4  C   UNL     1      34.966 -24.460 -13.418  0.00  0.00    +0.085 C 
ATOM      5  C   UNL     1      32.828 -24.966 -13.588  0.00  0.00    +0.164 C 
ATOM      6  H   UNL     1      33.953 -25.490 -11.888  0.00  0.00    +0.148 HD
ATOM      7  H   UNL     1      32.496 -24.141 -15.455  0.00  0.00    +0.148 HD
ENDROOT
BRANCH   3  11
ATOM      8  N   UNL     1      35.161 -22.478 -17.930  0.00  0.00    -0.170 N 
ATOM      9  N   UNL     1      34.709 -22.235 -19.186  0.00  0.00    -0.150 NA
ATOM     10  N   UNL     1      36.802 -21.357 -18.924  0.00  0.00    -0.206 NA
ATOM     11  C   UNL     1      35.131 -23.297 -15.693  0.00  0.00    +0.031 C 
ATOM     12  C   UNL     1      34.520 -23.152 -16.887  0.00  0.00    +0.092 C 
ATOM     13  C   UNL     1      36.475 -22.731 -15.544  0.00  0.00    +0.006 C 
ATOM     14  C   UNL     1      36.440 -21.932 -17.798  0.00  0.00    +0.157 C 
ATOM     15  C   UNL     1      37.094 -22.082 -16.547  0.00  0.00    +0.036 C 
ATOM     16  C   UNL     1      35.726 -21.567 -19.728  0.00  0.00    +0.219 C 
ENDBRANCH   3  11
BRANCH   4  18
ATOM     17  N   UNL     1      37.186 -25.235 -13.379  0.00  0.00    -0.409 NA
ATOM     18  C   UNL     1      36.288 -24.374 -12.851  0.00  0.00    +0.127 C 
ATOM     19  C   UNL     1      36.583 -23.464 -11.847  0.00  0.00    +0.086 C 
ATOM     20  C   UNL     1      38.439 -25.181 -12.874  0.00  0.00    +0.109 C 
ATOM     21  C   UNL     1      37.883 -23.439 -11.354  0.00  0.00    -0.016 C 
ATOM     22  C   UNL     1      38.835 -24.310 -11.871  0.00  0.00    +0.023 C 
ATOM     23  C   UNL     1      39.434 -26.131 -13.452  0.00  0.00    +0.066 C 
ENDBRANCH   4  18
BRANCH   5  24
ATOM     24  C   UNL     1      31.523 -25.523 -13.188  0.00  0.00    +0.128 C 
BRANCH  24  25
ATOM     25  N   UNL     1      30.472 -24.519 -13.250  0.00  0.00    -0.328 N 
ATOM     26  H   UNL     1      30.262 -24.013 -12.432  0.00  0.00    +0.147 HD
BRANCH  25  28
ATOM     27  F   UNL     1      29.015 -26.494 -14.529  0.00  0.00    -0.203 F 
ATOM     28  C   UNL     1      29.754 -24.242 -14.395  0.00  0.00    +0.073 C 
ATOM     29  C   UNL     1      29.026 -25.249 -15.027  0.00  0.00    +0.153 C 
ATOM     30  C   UNL     1      29.759 -22.950 -14.923  0.00  0.00    +0.017 C 
ATOM     31  C   UNL     1      28.301 -24.967 -16.184  0.00  0.00    +0.031 C 
ATOM     32  C   UNL     1      29.034 -22.667 -16.081  0.00  0.00    +0.001 C 
ATOM     33  C   UNL     1      28.305 -23.675 -16.712  0.00  0.00    +0.002 C 
ENDBRANCH  25  28
ENDBRANCH  24  25
ENDBRANCH   5  24
TORSDOF 5
ENDMDL
MODEL 7
REMARK VINA RESULT:     -11.0      1.629      4.815
REMARK  Name = 54766013
REMARK  5 active torsions:
REMARK  status: ('A' for Active; 'I' for Inactive)
REMARK    1  A    between atoms: C_3  and  C_11
REMARK    2  A    between atoms: C_4  and  C_18
REMARK    3  A    between atoms: C_5  and  C_24
REMARK    4  A    between atoms: C_24  and  N_25
REMARK    5  A    between atoms: N_25  and  C_28
REMARK                            x       y       z     vdW  Elec       q    Type
REMARK                         _______ _______ _______ _____ _____    ______ ____
ROOT
ATOM      1  N   UNL     1      33.426 -22.903 -17.820  0.00  0.00    -0.315 N 
ATOM      2  N   UNL     1      35.501 -23.263 -17.116  0.00  0.00    -0.317 N 
ATOM      3  C   UNL     1      34.604 -23.606 -16.136  0.00  0.00    +0.063 C 
ATOM      4  C   UNL     1      33.310 -23.392 -16.549  0.00  0.00    +0.085 C 
ATOM      5  C   UNL     1      34.759 -22.843 -18.117  0.00  0.00    +0.164 C 
ATOM      6  H   UNL     1      32.685 -22.642 -18.414  0.00  0.00    +0.148 HD
ATOM      7  H   UNL     1      36.483 -23.318 -17.078  0.00  0.00    +0.148 HD
ENDROOT
BRANCH   3  11
ATOM      8  N   UNL     1      36.370 -25.681 -13.586  0.00  0.00    -0.170 N 
ATOM      9  N   UNL     1      37.232 -26.705 -13.361  0.00  0.00    -0.150 NA
ATOM     10  N   UNL     1      36.511 -25.838 -11.374  0.00  0.00    -0.206 NA
ATOM     11  C   UNL     1      35.062 -24.131 -14.834  0.00  0.00    +0.031 C 
ATOM     12  C   UNL     1      35.930 -25.164 -14.807  0.00  0.00    +0.092 C 
ATOM     13  C   UNL     1      34.608 -23.590 -13.550  0.00  0.00    +0.006 C 
ATOM     14  C   UNL     1      35.946 -25.172 -12.356  0.00  0.00    +0.157 C 
ATOM     15  C   UNL     1      35.030 -24.086 -12.374  0.00  0.00    +0.036 C 
ATOM     16  C   UNL     1      37.276 -26.751 -12.031  0.00  0.00    +0.219 C 
ENDBRANCH   3  11
BRANCH   4  18
ATOM     17  N   UNL     1      32.075 -24.405 -14.824  0.00  0.00    -0.409 NA
ATOM     18  C   UNL     1      32.038 -23.591 -15.902  0.00  0.00    +0.127 C 
ATOM     19  C   UNL     1      30.887 -22.977 -16.371  0.00  0.00    +0.086 C 
ATOM     20  C   UNL     1      30.900 -24.614 -14.188  0.00  0.00    +0.109 C 
ATOM     21  C   UNL     1      29.699 -23.216 -15.689  0.00  0.00    -0.016 C 
ATOM     22  C   UNL     1      29.696 -24.048 -14.576  0.00  0.00    +0.023 C 
ATOM     23  C   UNL     1      30.935 -25.514 -12.997  0.00  0.00    +0.066 C 
ENDBRANCH   4  18
BRANCH   5  24
ATOM     24  C   UNL     1      35.233 -22.355 -19.424  0.00  0.00    +0.128 C 
BRANCH  24  25
ATOM     25  N   UNL     1      35.404 -20.911 -19.426  0.00  0.00    -0.328 N 
ATOM     26  H   UNL     1      35.443 -20.445 -18.560  0.00  0.00    +0.147 HD
BRANCH  25  28
ATOM     27  F   UNL     1      37.668 -19.401 -19.929  0.00  0.00    -0.203 F 
ATOM     28  C   UNL     1      35.515 -20.161 -20.579  0.00  0.00    +0.073 C 
ATOM     29  C   UNL     1      36.663 -19.406 -20.816  0.00  0.00    +0.153 C 
ATOM     30  C   UNL     1      34.474 -20.157 -21.509  0.00  0.00    +0.017 C 
ATOM     31  C   UNL     1      36.772 -18.648 -21.982  0.00  0.00    +0.031 C 
ATOM     32  C   UNL     1      34.583 -19.399 -22.675  0.00  0.00    +0.001 C 
ATOM     33  C   UNL     1      35.732 -18.645 -22.912  0.00  0.00    +0.002 C 
ENDBRANCH  25  28
ENDBRANCH  24  25
ENDBRANCH   5  24
TORSDOF 5
ENDMDL
MODEL 8
REMARK VINA RESULT:     -10.9      2.799      7.466
REMARK  Name = 54766013
REMARK  5 active torsions:
REMARK  status: ('A' for Active; 'I' for Inactive)
REMARK    1  A    between atoms: C_3  and  C_11
REMARK    2  A    between atoms: C_4  and  C_18
REMARK    3  A    between atoms: C_5  and  C_24
REMARK    4  A    between atoms: C_24  and  N_25
REMARK    5  A    between atoms: N_25  and  C_28
REMARK                            x       y       z     vdW  Elec       q    Type
REMARK                         _______ _______ _______ _____ _____    ______ ____
ROOT
ATOM      1  N   UNL     1      32.681 -24.293 -14.910  0.00  0.00    -0.315 N 
ATOM      2  N   UNL     1      33.681 -25.309 -13.208  0.00  0.00    -0.317 N 
ATOM      3  C   UNL     1      34.618 -24.767 -14.051  0.00  0.00    +0.063 C 
ATOM      4  C   UNL     1      34.022 -24.130 -15.114  0.00  0.00    +0.085 C 
ATOM      5  C   UNL     1      32.524 -25.006 -13.754  0.00  0.00    +0.164 C 
ATOM      6  H   UNL     1      31.958 -23.956 -15.488  0.00  0.00    +0.148 HD
ATOM      7  H   UNL     1      33.840 -25.815 -12.378  0.00  0.00    +0.148 HD
ENDROOT
BRANCH   3  11
ATOM      8  N   UNL     1      38.141 -25.994 -14.159  0.00  0.00    -0.170 N 
ATOM      9  N   UNL     1      39.014 -26.879 -14.704  0.00  0.00    -0.150 NA
ATOM     10  N   UNL     1      40.092 -25.543 -13.196  0.00  0.00    -0.206 NA
ATOM     11  C   UNL     1      36.062 -24.899 -13.770  0.00  0.00    +0.031 C 
ATOM     12  C   UNL     1      36.776 -25.846 -14.415  0.00  0.00    +0.092 C 
ATOM     13  C   UNL     1      36.769 -24.054 -12.804  0.00  0.00    +0.006 C 
ATOM     14  C   UNL     1      38.826 -25.193 -13.242  0.00  0.00    +0.157 C 
ATOM     15  C   UNL     1      38.083 -24.195 -12.556  0.00  0.00    +0.036 C 
ATOM     16  C   UNL     1      40.155 -26.562 -14.094  0.00  0.00    +0.219 C 
ENDBRANCH   3  11
BRANCH   4  18
ATOM     17  N   UNL     1      35.740 -22.804 -16.018  0.00  0.00    -0.409 NA
ATOM     18  C   UNL     1      34.559 -23.420 -16.247  0.00  0.00    +0.127 C 
ATOM     19  C   UNL     1      33.894 -23.395 -17.463  0.00  0.00    +0.086 C 
ATOM     20  C   UNL     1      36.277 -22.129 -17.059  0.00  0.00    +0.109 C 
ATOM     21  C   UNL     1      34.479 -22.691 -18.509  0.00  0.00    -0.016 C 
ATOM     22  C   UNL     1      35.693 -22.044 -18.313  0.00  0.00    +0.023 C 
ATOM     23  C   UNL     1      37.581 -21.445 -16.811  0.00  0.00    +0.066 C 
ENDBRANCH   4  18
BRANCH   5  24
ATOM     24  C   UNL     1      31.187 -25.356 -13.242  0.00  0.00    +0.128 C 
BRANCH  24  25
ATOM     25  N   UNL     1      30.240 -24.270 -13.436  0.00  0.00    -0.328 N 
ATOM     26  H   UNL     1      30.137 -23.607 -12.716  0.00  0.00    +0.147 HD
BRANCH  25  28
ATOM     27  F   UNL     1      29.186 -21.808 -14.133  0.00  0.00    -0.203 F 
ATOM     28  C   UNL     1      29.477 -24.122 -14.577  0.00  0.00    +0.073 C 
ATOM     29  C   UNL     1      28.954 -22.874 -14.912  0.00  0.00    +0.153 C 
ATOM     30  C   UNL     1      29.229 -25.225 -15.395  0.00  0.00    +0.017 C 
ATOM     31  C   UNL     1      28.183 -22.726 -16.065  0.00  0.00    +0.031 C 
ATOM     32  C   UNL     1      28.458 -25.078 -16.549  0.00  0.00    +0.001 C 
ATOM     33  C   UNL     1      27.935 -23.828 -16.884  0.00  0.00    +0.002 C 
ENDBRANCH  25  28
ENDBRANCH  24  25
ENDBRANCH   5  24
TORSDOF 5
ENDMDL
MODEL 9
REMARK VINA RESULT:     -10.6      5.829     11.642
REMARK  Name = 54766013
REMARK  5 active torsions:
REMARK  status: ('A' for Active; 'I' for Inactive)
REMARK    1  A    between atoms: C_3  and  C_11
REMARK    2  A    between atoms: C_4  and  C_18
REMARK    3  A    between atoms: C_5  and  C_24
REMARK    4  A    between atoms: C_24  and  N_25
REMARK    5  A    between atoms: N_25  and  C_28
REMARK                            x       y       z     vdW  Elec       q    Type
REMARK                         _______ _______ _______ _____ _____    ______ ____
ROOT
ATOM      1  N   UNL     1      35.208 -16.978 -23.129  0.00  0.00    -0.315 N 
ATOM      2  N   UNL     1      34.673 -16.693 -20.993  0.00  0.00    -0.317 N 
ATOM      3  C   UNL     1      34.098 -15.710 -21.759  0.00  0.00    +0.063 C 
ATOM      4  C   UNL     1      34.416 -15.866 -23.088  0.00  0.00    +0.085 C 
ATOM      5  C   UNL     1      35.335 -17.441 -21.849  0.00  0.00    +0.164 C 
ATOM      6  H   UNL     1      35.614 -17.375 -23.934  0.00  0.00    +0.148 HD
ATOM      7  H   UNL     1      34.605 -16.813 -20.018  0.00  0.00    +0.148 HD
ENDROOT
BRANCH   3  11
ATOM      8  N   UNL     1      32.299 -12.483 -21.234  0.00  0.00    -0.170 N 
ATOM      9  N   UNL     1      32.007 -11.257 -21.736  0.00  0.00    -0.150 NA
ATOM     10  N   UNL     1      31.008 -11.526 -19.699  0.00  0.00    -0.206 NA
ATOM     11  C   UNL     1      33.261 -14.660 -21.146  0.00  0.00    +0.031 C 
ATOM     12  C   UNL     1      33.081 -13.494 -21.800  0.00  0.00    +0.092 C 
ATOM     13  C   UNL     1      32.616 -14.814 -19.839  0.00  0.00    +0.006 C 
ATOM     14  C   UNL     1      31.678 -12.619 -19.990  0.00  0.00    +0.157 C 
ATOM     15  C   UNL     1      31.863 -13.842 -19.293  0.00  0.00    +0.036 C 
ATOM     16  C   UNL     1      31.238 -10.736 -20.782  0.00  0.00    +0.219 C 
ENDBRANCH   3  11
BRANCH   4  18
ATOM     17  N   UNL     1      34.273 -13.779 -24.162  0.00  0.00    -0.409 NA
ATOM     18  C   UNL     1      34.067 -15.111 -24.264  0.00  0.00    +0.127 C 
ATOM     19  C   UNL     1      33.565 -15.734 -25.397  0.00  0.00    +0.086 C 
ATOM     20  C   UNL     1      33.960 -13.038 -25.248  0.00  0.00    +0.109 C 
ATOM     21  C   UNL     1      33.255 -14.937 -26.493  0.00  0.00    -0.016 C 
ATOM     22  C   UNL     1      33.453 -13.563 -26.427  0.00  0.00    +0.023 C 
ATOM     23  C   UNL     1      34.184 -11.566 -25.140  0.00  0.00    +0.066 C 
ENDBRANCH   4  18
BRANCH   5  24
ATOM     24  C   UNL     1      36.134 -18.641 -21.541  0.00  0.00    +0.128 C 
BRANCH  24  25
ATOM     25  N   UNL     1      35.325 -19.847 -21.587  0.00  0.00    -0.328 N 
ATOM     26  H   UNL     1      34.881 -20.080 -22.434  0.00  0.00    +0.147 HD
BRANCH  25  28
ATOM     27  F   UNL     1      32.787 -20.566 -20.749  0.00  0.00    -0.203 F 
ATOM     28  C   UNL     1      35.146 -20.682 -20.502  0.00  0.00    +0.073 C 
ATOM     29  C   UNL     1      33.859 -21.034 -20.094  0.00  0.00    +0.153 C 
ATOM     30  C   UNL     1      36.255 -21.174 -19.812  0.00  0.00    +0.017 C 
ATOM     31  C   UNL     1      33.680 -21.877 -18.998  0.00  0.00    +0.031 C 
ATOM     32  C   UNL     1      36.076 -22.018 -18.716  0.00  0.00    +0.001 C 
ATOM     33  C   UNL     1      34.789 -22.370 -18.309  0.00  0.00    +0.002 C 
ENDBRANCH  25  28
ENDBRANCH  24  25
ENDBRANCH   5  24
TORSDOF 5
ENDMDL
