MODEL 1
REMARK VINA RESULT:     -12.0      0.000      0.000
REMARK  Name = 24864821
REMARK  5 active torsions:
REMARK  status: ('A' for Active; 'I' for Inactive)
REMARK    1  A    between atoms: C_5  and  C_16
REMARK    2  A    between atoms: C_7  and  C_10
REMARK    3  A    between atoms: C_16  and  O_17
REMARK    4  A    between atoms: O_17  and  C_20
REMARK    5  A    between atoms: C_25  and  O_28
REMARK                            x       y       z     vdW  Elec       q    Type
REMARK                         _______ _______ _______ _____ _____    ______ ____
ROOT
ATOM      1  N   UNL     1      36.418 -23.384 -15.397  0.00  0.00    -0.191 N 
ATOM      2  N   UNL     1      35.088 -23.143 -15.503  0.00  0.00    -0.163 NA
ATOM      3  N   UNL     1      38.585 -23.240 -15.694  0.00  0.00    -0.128 NA
ATOM      4  N   UNL     1      38.341 -24.246 -14.782  0.00  0.00    -0.127 NA
ATOM      5  C   UNL     1      37.425 -22.736 -16.051  0.00  0.00    +0.208 A 
ATOM      6  C   UNL     1      37.040 -24.325 -14.609  0.00  0.00    +0.186 A 
ATOM      7  C   UNL     1      34.352 -23.913 -14.750  0.00  0.00    +0.101 C 
ATOM      8  C   UNL     1      36.218 -25.154 -13.821  0.00  0.00    +0.042 C 
ATOM      9  C   UNL     1      34.889 -24.990 -13.858  0.00  0.00    +0.024 C 
ENDROOT
BRANCH   7  10
ATOM     10  C   UNL     1      32.875 -23.743 -14.774  0.00  0.00    +0.019 C 
ATOM     11  C   UNL     1      32.142 -23.852 -13.593  0.00  0.00    +0.002 C 
ATOM     12  C   UNL     1      32.224 -23.472 -15.977  0.00  0.00    +0.002 C 
ATOM     13  C   UNL     1      30.757 -23.691 -13.616  0.00  0.00    +0.000 C 
ATOM     14  C   UNL     1      30.840 -23.310 -16.000  0.00  0.00    +0.000 C 
ATOM     15  C   UNL     1      30.104 -23.420 -14.819  0.00  0.00    +0.000 C 
ENDBRANCH   7  10
BRANCH   5  16
ATOM     16  C   UNL     1      37.185 -21.619 -17.023  0.00  0.00    +0.272 C 
BRANCH  16  17
ATOM     17  O   UNL     1      36.936 -22.171 -18.315  0.00  0.00    -0.467 OA
BRANCH  17  20
ATOM     18  N   UNL     1      33.437 -20.998 -20.205  0.00  0.00    -0.248 NA
ATOM     19  C   UNL     1      35.816 -20.754 -19.915  0.00  0.00    +0.030 C 
ATOM     20  C   UNL     1      35.798 -21.769 -18.949  0.00  0.00    +0.138 C 
ATOM     21  C   UNL     1      34.597 -20.395 -20.526  0.00  0.00    +0.066 C 
ATOM     22  C   UNL     1      37.009 -20.102 -20.275  0.00  0.00    +0.059 C 
ATOM     23  C   UNL     1      34.617 -19.386 -21.485  0.00  0.00    +0.109 C 
ATOM     24  C   UNL     1      34.604 -22.393 -18.616  0.00  0.00    +0.057 C 
ATOM     25  C   UNL     1      35.802 -18.739 -21.843  0.00  0.00    +0.118 C 
ATOM     26  C   UNL     1      37.000 -19.097 -21.237  0.00  0.00    +0.011 C 
ATOM     27  C   UNL     1      33.461 -21.974 -19.268  0.00  0.00    +0.102 C 
BRANCH  25  28
ATOM     28  O   UNL     1      35.782 -17.758 -22.787  0.00  0.00    -0.476 OA
ATOM     29  C   UNL     1      35.032 -16.581 -22.484  0.00  0.00    +0.252 C 
ENDBRANCH  25  28
ENDBRANCH  17  20
ENDBRANCH  16  17
ENDBRANCH   5  16
TORSDOF 5
ENDMDL
MODEL 2
REMARK VINA RESULT:     -11.5      7.233     13.110
REMARK  Name = 24864821
REMARK  5 active torsions:
REMARK  status: ('A' for Active; 'I' for Inactive)
REMARK    1  A    between atoms: C_5  and  C_16
REMARK    2  A    between atoms: C_7  and  C_10
REMARK    3  A    between atoms: C_16  and  O_17
REMARK    4  A    between atoms: O_17  and  C_20
REMARK    5  A    between atoms: C_25  and  O_28
REMARK                            x       y       z     vdW  Elec       q    Type
REMARK                         _______ _______ _______ _____ _____    ______ ____
ROOT
ATOM      1  N   UNL     1      31.976 -11.012 -21.027  0.00  0.00    -0.191 N 
ATOM      2  N   UNL     1      32.152 -10.022 -21.938  0.00  0.00    -0.163 NA
ATOM      3  N   UNL     1      31.752 -13.005 -20.145  0.00  0.00    -0.128 NA
ATOM      4  N   UNL     1      31.672 -12.073 -19.130  0.00  0.00    -0.127 NA
ATOM      5  C   UNL     1      31.933 -12.353 -21.271  0.00  0.00    +0.208 A 
ATOM      6  C   UNL     1      31.809 -10.881 -19.669  0.00  0.00    +0.186 A 
ATOM      7  C   UNL     1      32.161  -8.826 -21.419  0.00  0.00    +0.101 C 
ATOM      8  C   UNL     1      31.804  -9.575 -19.139  0.00  0.00    +0.042 C 
ATOM      9  C   UNL     1      31.973  -8.532 -19.962  0.00  0.00    +0.024 C 
ENDROOT
BRANCH   7  10
ATOM     10  C   UNL     1      32.351  -7.655 -22.315  0.00  0.00    +0.019 C 
ATOM     11  C   UNL     1      31.343  -6.699 -22.437  0.00  0.00    +0.002 C 
ATOM     12  C   UNL     1      33.539  -7.511 -23.032  0.00  0.00    +0.002 C 
ATOM     13  C   UNL     1      31.522  -5.600 -23.277  0.00  0.00    +0.000 C 
ATOM     14  C   UNL     1      33.718  -6.412 -23.871  0.00  0.00    +0.000 C 
ATOM     15  C   UNL     1      32.710  -5.456 -23.995  0.00  0.00    +0.000 C 
ENDBRANCH   7  10
BRANCH   5  16
ATOM     16  C   UNL     1      32.078 -12.943 -22.643  0.00  0.00    +0.272 C 
BRANCH  16  17
ATOM     17  O   UNL     1      33.446 -13.283 -22.860  0.00  0.00    -0.467 OA
BRANCH  17  20
ATOM     18  N   UNL     1      34.182 -16.411 -25.481  0.00  0.00    -0.248 NA
ATOM     19  C   UNL     1      34.248 -15.528 -23.240  0.00  0.00    +0.030 C 
ATOM     20  C   UNL     1      33.697 -14.325 -23.704  0.00  0.00    +0.138 C 
ATOM     21  C   UNL     1      34.477 -16.558 -24.176  0.00  0.00    +0.066 C 
ATOM     22  C   UNL     1      34.569 -15.716 -21.885  0.00  0.00    +0.059 C 
ATOM     23  C   UNL     1      35.025 -17.752 -23.714  0.00  0.00    +0.109 C 
ATOM     24  C   UNL     1      33.391 -14.171 -25.048  0.00  0.00    +0.057 C 
ATOM     25  C   UNL     1      35.344 -17.939 -22.367  0.00  0.00    +0.118 C 
ATOM     26  C   UNL     1      35.116 -16.919 -21.451  0.00  0.00    +0.011 C 
ATOM     27  C   UNL     1      33.651 -15.236 -25.888  0.00  0.00    +0.102 C 
BRANCH  25  28
ATOM     28  O   UNL     1      35.877 -19.121 -21.953  0.00  0.00    -0.476 OA
ATOM     29  C   UNL     1      35.063 -19.942 -21.115  0.00  0.00    +0.252 C 
ENDBRANCH  25  28
ENDBRANCH  17  20
ENDBRANCH  16  17
ENDBRANCH   5  16
TORSDOF 5
ENDMDL
MODEL 3
REMARK VINA RESULT:     -11.2      4.081     10.161
REMARK  Name = 24864821
REMARK  5 active torsions:
REMARK  status: ('A' for Active; 'I' for Inactive)
REMARK    1  A    between atoms: C_5  and  C_16
REMARK    2  A    between atoms: C_7  and  C_10
REMARK    3  A    between atoms: C_16  and  O_17
REMARK    4  A    between atoms: O_17  and  C_20
REMARK    5  A    between atoms: C_25  and  O_28
REMARK                            x       y       z     vdW  Elec       q    Type
REMARK                         _______ _______ _______ _____ _____    ______ ____
ROOT
ATOM      1  N   UNL     1      34.069 -15.591 -23.519  0.00  0.00    -0.191 N 
ATOM      2  N   UNL     1      33.643 -14.783 -22.517  0.00  0.00    -0.163 NA
ATOM      3  N   UNL     1      35.029 -17.248 -24.585  0.00  0.00    -0.128 NA
ATOM      4  N   UNL     1      34.417 -16.434 -25.516  0.00  0.00    -0.127 NA
ATOM      5  C   UNL     1      34.811 -16.729 -23.398  0.00  0.00    +0.208 A 
ATOM      6  C   UNL     1      33.843 -15.444 -24.868  0.00  0.00    +0.186 A 
ATOM      7  C   UNL     1      32.940 -13.764 -22.925  0.00  0.00    +0.101 C 
ATOM      8  C   UNL     1      33.095 -14.324 -25.281  0.00  0.00    +0.042 C 
ATOM      9  C   UNL     1      32.631 -13.468 -24.361  0.00  0.00    +0.024 C 
ENDROOT
BRANCH   7  10
ATOM     10  C   UNL     1      32.411 -12.805 -21.920  0.00  0.00    +0.019 C 
ATOM     11  C   UNL     1      32.266 -11.458 -22.249  0.00  0.00    +0.002 C 
ATOM     12  C   UNL     1      32.058 -13.254 -20.647  0.00  0.00    +0.002 C 
ATOM     13  C   UNL     1      31.769 -10.560 -21.306  0.00  0.00    +0.000 C 
ATOM     14  C   UNL     1      31.561 -12.356 -19.704  0.00  0.00    +0.000 C 
ATOM     15  C   UNL     1      31.416 -11.008 -20.032  0.00  0.00    +0.000 C 
ENDBRANCH   7  10
BRANCH   5  16
ATOM     16  C   UNL     1      35.282 -17.264 -22.077  0.00  0.00    +0.272 C 
BRANCH  16  17
ATOM     17  O   UNL     1      34.696 -18.547 -21.860  0.00  0.00    -0.467 OA
BRANCH  17  20
ATOM     18  N   UNL     1      36.828 -21.131 -19.417  0.00  0.00    -0.248 NA
ATOM     19  C   UNL     1      34.715 -20.396 -20.309  0.00  0.00    +0.030 C 
ATOM     20  C   UNL     1      35.377 -19.407 -21.050  0.00  0.00    +0.138 C 
ATOM     21  C   UNL     1      35.490 -21.247 -19.495  0.00  0.00    +0.066 C 
ATOM     22  C   UNL     1      33.318 -20.547 -20.366  0.00  0.00    +0.059 C 
ATOM     23  C   UNL     1      34.831 -22.229 -18.759  0.00  0.00    +0.109 C 
ATOM     24  C   UNL     1      36.756 -19.285 -20.972  0.00  0.00    +0.057 C 
ATOM     25  C   UNL     1      33.443 -22.379 -18.815  0.00  0.00    +0.118 C 
ATOM     26  C   UNL     1      32.686 -21.536 -19.620  0.00  0.00    +0.011 C 
ATOM     27  C   UNL     1      37.430 -20.164 -20.148  0.00  0.00    +0.102 C 
BRANCH  25  28
ATOM     28  O   UNL     1      32.835 -23.351 -18.083  0.00  0.00    -0.476 OA
ATOM     29  C   UNL     1      33.344 -23.590 -16.771  0.00  0.00    +0.252 C 
ENDBRANCH  25  28
ENDBRANCH  17  20
ENDBRANCH  16  17
ENDBRANCH   5  16
TORSDOF 5
ENDMDL
MODEL 4
REMARK VINA RESULT:     -11.1      6.459     11.120
REMARK  Name = 24864821
REMARK  5 active torsions:
REMARK  status: ('A' for Active; 'I' for Inactive)
REMARK    1  A    between atoms: C_5  and  C_16
REMARK    2  A    between atoms: C_7  and  C_10
REMARK    3  A    between atoms: C_16  and  O_17
REMARK    4  A    between atoms: O_17  and  C_20
REMARK    5  A    between atoms: C_25  and  O_28
REMARK                            x       y       z     vdW  Elec       q    Type
REMARK                         _______ _______ _______ _____ _____    ______ ____
ROOT
ATOM      1  N   UNL     1      33.921 -15.389 -22.995  0.00  0.00    -0.191 N 
ATOM      2  N   UNL     1      34.307 -16.330 -22.098  0.00  0.00    -0.163 NA
ATOM      3  N   UNL     1      33.100 -13.543 -23.844  0.00  0.00    -0.128 NA
ATOM      4  N   UNL     1      33.557 -14.329 -24.882  0.00  0.00    -0.127 NA
ATOM      5  C   UNL     1      33.325 -14.192 -22.724  0.00  0.00    +0.208 A 
ATOM      6  C   UNL     1      34.048 -15.433 -24.364  0.00  0.00    +0.186 A 
ATOM      7  C   UNL     1      34.862 -17.378 -22.641  0.00  0.00    +0.101 C 
ATOM      8  C   UNL     1      34.634 -16.586 -24.923  0.00  0.00    +0.042 C 
ATOM      9  C   UNL     1      35.049 -17.570 -24.115  0.00  0.00    +0.024 C 
ENDROOT
BRANCH   7  10
ATOM     10  C   UNL     1      35.333 -18.479 -21.761  0.00  0.00    +0.019 C 
ATOM     11  C   UNL     1      36.682 -18.571 -21.419  0.00  0.00    +0.002 C 
ATOM     12  C   UNL     1      34.425 -19.420 -21.275  0.00  0.00    +0.002 C 
ATOM     13  C   UNL     1      37.123 -19.603 -20.592  0.00  0.00    +0.000 C 
ATOM     14  C   UNL     1      34.866 -20.452 -20.447  0.00  0.00    +0.000 C 
ATOM     15  C   UNL     1      36.215 -20.545 -20.106  0.00  0.00    +0.000 C 
ENDBRANCH   7  10
BRANCH   5  16
ATOM     16  C   UNL     1      32.999 -13.734 -21.333  0.00  0.00    +0.272 C 
BRANCH  16  17
ATOM     17  O   UNL     1      31.817 -12.937 -21.371  0.00  0.00    -0.467 OA
BRANCH  17  20
ATOM     18  N   UNL     1      31.704  -9.653 -18.842  0.00  0.00    -0.248 NA
ATOM     19  C   UNL     1      31.987 -10.549 -21.060  0.00  0.00    +0.030 C 
ATOM     20  C   UNL     1      31.784 -11.842 -20.558  0.00  0.00    +0.138 C 
ATOM     21  C   UNL     1      31.937  -9.469 -20.154  0.00  0.00    +0.066 C 
ATOM     22  C   UNL     1      32.233 -10.320 -22.424  0.00  0.00    +0.059 C 
ATOM     23  C   UNL     1      32.139  -8.185 -20.654  0.00  0.00    +0.109 C 
ATOM     24  C   UNL     1      31.543 -12.035 -19.205  0.00  0.00    +0.057 C 
ATOM     25  C   UNL     1      32.384  -7.957 -22.010  0.00  0.00    +0.118 C 
ATOM     26  C   UNL     1      32.431  -9.026 -22.897  0.00  0.00    +0.011 C 
ATOM     27  C   UNL     1      31.513 -10.916 -18.396  0.00  0.00    +0.102 C 
BRANCH  25  28
ATOM     28  O   UNL     1      32.574  -6.688 -22.462  0.00  0.00    -0.476 OA
ATOM     29  C   UNL     1      33.513  -6.511 -23.523  0.00  0.00    +0.252 C 
ENDBRANCH  25  28
ENDBRANCH  17  20
ENDBRANCH  16  17
ENDBRANCH   5  16
TORSDOF 5
ENDMDL
MODEL 5
REMARK VINA RESULT:     -10.8      8.405     14.838
REMARK  Name = 24864821
REMARK  5 active torsions:
REMARK  status: ('A' for Active; 'I' for Inactive)
REMARK    1  A    between atoms: C_5  and  C_16
REMARK    2  A    between atoms: C_7  and  C_10
REMARK    3  A    between atoms: C_16  and  O_17
REMARK    4  A    between atoms: O_17  and  C_20
REMARK    5  A    between atoms: C_25  and  O_28
REMARK                            x       y       z     vdW  Elec       q    Type
REMARK                         _______ _______ _______ _____ _____    ______ ____
ROOT
ATOM      1  N   UNL     1      32.595  -9.126 -22.544  0.00  0.00    -0.191 N 
ATOM      2  N   UNL     1      33.000  -8.270 -23.516  0.00  0.00    -0.163 NA
ATOM      3  N   UNL     1      32.228 -10.976 -21.428  0.00  0.00    -0.128 NA
ATOM      4  N   UNL     1      31.740  -9.920 -20.685  0.00  0.00    -0.127 NA
ATOM      5  C   UNL     1      32.735 -10.483 -22.535  0.00  0.00    +0.208 A 
ATOM      6  C   UNL     1      31.965  -8.815 -21.362  0.00  0.00    +0.186 A 
ATOM      7  C   UNL     1      32.745  -7.019 -23.253  0.00  0.00    +0.101 C 
ATOM      8  C   UNL     1      31.687  -7.457 -21.114  0.00  0.00    +0.042 C 
ATOM      9  C   UNL     1      32.050  -6.536 -22.017  0.00  0.00    +0.024 C 
ENDROOT
BRANCH   7  10
ATOM     10  C   UNL     1      33.144  -5.981 -24.240  0.00  0.00    +0.019 C 
ATOM     11  C   UNL     1      34.334  -6.119 -24.954  0.00  0.00    +0.002 C 
ATOM     12  C   UNL     1      32.326  -4.872 -24.454  0.00  0.00    +0.002 C 
ATOM     13  C   UNL     1      34.706  -5.146 -25.881  0.00  0.00    +0.000 C 
ATOM     14  C   UNL     1      32.699  -3.899 -25.381  0.00  0.00    +0.000 C 
ATOM     15  C   UNL     1      33.889  -4.035 -26.096  0.00  0.00    +0.000 C 
ENDBRANCH   7  10
BRANCH   5  16
ATOM     16  C   UNL     1      33.381 -11.249 -23.653  0.00  0.00    +0.272 C 
BRANCH  16  17
ATOM     17  O   UNL     1      33.697 -12.562 -23.194  0.00  0.00    -0.467 OA
BRANCH  17  20
ATOM     18  N   UNL     1      33.780 -15.523 -26.095  0.00  0.00    -0.248 NA
ATOM     19  C   UNL     1      34.173 -14.845 -23.817  0.00  0.00    +0.030 C 
ATOM     20  C   UNL     1      33.733 -13.551 -24.132  0.00  0.00    +0.138 C 
ATOM     21  C   UNL     1      34.180 -15.812 -24.843  0.00  0.00    +0.066 C 
ATOM     22  C   UNL     1      34.598 -15.182 -22.521  0.00  0.00    +0.059 C 
ATOM     23  C   UNL     1      34.618 -17.096 -24.530  0.00  0.00    +0.109 C 
ATOM     24  C   UNL     1      33.320 -13.250 -25.422  0.00  0.00    +0.057 C 
ATOM     25  C   UNL     1      35.040 -17.432 -23.241  0.00  0.00    +0.118 C 
ATOM     26  C   UNL     1      35.030 -16.473 -22.235  0.00  0.00    +0.011 C 
ATOM     27  C   UNL     1      33.362 -14.264 -26.359  0.00  0.00    +0.102 C 
BRANCH  25  28
ATOM     28  O   UNL     1      35.459 -18.698 -22.972  0.00  0.00    -0.476 OA
ATOM     29  C   UNL     1      36.235 -18.888 -21.788  0.00  0.00    +0.252 C 
ENDBRANCH  25  28
ENDBRANCH  17  20
ENDBRANCH  16  17
ENDBRANCH   5  16
TORSDOF 5
ENDMDL
MODEL 6
REMARK VINA RESULT:     -10.6      5.288      9.680
REMARK  Name = 24864821
REMARK  5 active torsions:
REMARK  status: ('A' for Active; 'I' for Inactive)
REMARK    1  A    between atoms: C_5  and  C_16
REMARK    2  A    between atoms: C_7  and  C_10
REMARK    3  A    between atoms: C_16  and  O_17
REMARK    4  A    between atoms: O_17  and  C_20
REMARK    5  A    between atoms: C_25  and  O_28
REMARK                            x       y       z     vdW  Elec       q    Type
REMARK                         _______ _______ _______ _____ _____    ______ ____
ROOT
ATOM      1  N   UNL     1      34.680 -17.366 -23.307  0.00  0.00    -0.191 N 
ATOM      2  N   UNL     1      34.817 -18.041 -22.138  0.00  0.00    -0.163 NA
ATOM      3  N   UNL     1      34.494 -15.725 -24.748  0.00  0.00    -0.128 NA
ATOM      4  N   UNL     1      34.456 -16.916 -25.444  0.00  0.00    -0.127 NA
ATOM      5  C   UNL     1      34.627 -16.013 -23.473  0.00  0.00    +0.208 A 
ATOM      6  C   UNL     1      34.568 -17.894 -24.572  0.00  0.00    +0.186 A 
ATOM      7  C   UNL     1      34.846 -19.337 -22.280  0.00  0.00    +0.101 C 
ATOM      8  C   UNL     1      34.585 -19.298 -24.692  0.00  0.00    +0.042 C 
ATOM      9  C   UNL     1      34.718 -20.050 -23.591  0.00  0.00    +0.024 C 
ENDROOT
BRANCH   7  10
ATOM     10  C   UNL     1      34.998 -20.189 -21.071  0.00  0.00    +0.019 C 
ATOM     11  C   UNL     1      36.270 -20.498 -20.591  0.00  0.00    +0.002 C 
ATOM     12  C   UNL     1      33.867 -20.677 -20.416  0.00  0.00    +0.002 C 
ATOM     13  C   UNL     1      36.411 -21.296 -19.456  0.00  0.00    +0.000 C 
ATOM     14  C   UNL     1      34.008 -21.474 -19.281  0.00  0.00    +0.000 C 
ATOM     15  C   UNL     1      35.280 -21.785 -18.800  0.00  0.00    +0.000 C 
ENDBRANCH   7  10
BRANCH   5  16
ATOM     16  C   UNL     1      34.716 -15.043 -22.331  0.00  0.00    +0.272 C 
BRANCH  16  17
ATOM     17  O   UNL     1      34.099 -13.816 -22.715  0.00  0.00    -0.467 OA
BRANCH  17  20
ATOM     18  N   UNL     1      31.322 -12.270 -20.052  0.00  0.00    -0.248 NA
ATOM     19  C   UNL     1      32.723 -11.970 -21.989  0.00  0.00    +0.030 C 
ATOM     20  C   UNL     1      33.186 -13.286 -21.851  0.00  0.00    +0.138 C 
ATOM     21  C   UNL     1      31.779 -11.497 -21.055  0.00  0.00    +0.066 C 
ATOM     22  C   UNL     1      33.178 -11.135 -23.024  0.00  0.00    +0.059 C 
ATOM     23  C   UNL     1      31.320 -10.189 -21.192  0.00  0.00    +0.109 C 
ATOM     24  C   UNL     1      32.718 -14.086 -20.819  0.00  0.00    +0.057 C 
ATOM     25  C   UNL     1      31.772  -9.359 -22.220  0.00  0.00    +0.118 C 
ATOM     26  C   UNL     1      32.703  -9.832 -23.137  0.00  0.00    +0.011 C 
ATOM     27  C   UNL     1      31.793 -13.534 -19.953  0.00  0.00    +0.102 C 
BRANCH  25  28
ATOM     28  O   UNL     1      31.299  -8.087 -22.324  0.00  0.00    -0.476 OA
ATOM     29  C   UNL     1      32.196  -7.100 -22.835  0.00  0.00    +0.252 C 
ENDBRANCH  25  28
ENDBRANCH  17  20
ENDBRANCH  16  17
ENDBRANCH   5  16
TORSDOF 5
ENDMDL
MODEL 7
REMARK VINA RESULT:     -10.6     10.224     14.362
REMARK  Name = 24864821
REMARK  5 active torsions:
REMARK  status: ('A' for Active; 'I' for Inactive)
REMARK    1  A    between atoms: C_5  and  C_16
REMARK    2  A    between atoms: C_7  and  C_10
REMARK    3  A    between atoms: C_16  and  O_17
REMARK    4  A    between atoms: O_17  and  C_20
REMARK    5  A    between atoms: C_25  and  O_28
REMARK                            x       y       z     vdW  Elec       q    Type
REMARK                         _______ _______ _______ _____ _____    ______ ____
ROOT
ATOM      1  N   UNL     1      32.206 -11.766 -21.414  0.00  0.00    -0.191 N 
ATOM      2  N   UNL     1      32.741 -12.483 -22.434  0.00  0.00    -0.163 NA
ATOM      3  N   UNL     1      31.414 -10.089 -20.246  0.00  0.00    -0.128 NA
ATOM      4  N   UNL     1      31.345 -11.227 -19.468  0.00  0.00    -0.127 NA
ATOM      5  C   UNL     1      31.932 -10.430 -21.405  0.00  0.00    +0.208 A 
ATOM      6  C   UNL     1      31.821 -12.227 -20.177  0.00  0.00    +0.186 A 
ATOM      7  C   UNL     1      32.885 -13.751 -22.166  0.00  0.00    +0.101 C 
ATOM      8  C   UNL     1      32.006 -13.598 -19.911  0.00  0.00    +0.042 C 
ATOM      9  C   UNL     1      32.527 -14.387 -20.859  0.00  0.00    +0.024 C 
ENDROOT
BRANCH   7  10
ATOM     10  C   UNL     1      33.459 -14.644 -23.207  0.00  0.00    +0.019 C 
ATOM     11  C   UNL     1      34.412 -15.600 -22.858  0.00  0.00    +0.002 C 
ATOM     12  C   UNL     1      33.041 -14.527 -24.533  0.00  0.00    +0.002 C 
ATOM     13  C   UNL     1      34.948 -16.439 -23.834  0.00  0.00    +0.000 C 
ATOM     14  C   UNL     1      33.577 -15.366 -25.509  0.00  0.00    +0.000 C 
ATOM     15  C   UNL     1      34.532 -16.322 -25.161  0.00  0.00    +0.000 C 
ENDBRANCH   7  10
BRANCH   5  16
ATOM     16  C   UNL     1      32.200  -9.529 -22.575  0.00  0.00    +0.272 C 
BRANCH  16  17
ATOM     17  O   UNL     1      32.842  -8.343 -22.110  0.00  0.00    -0.467 OA
BRANCH  17  20
ATOM     18  N   UNL     1      30.889  -4.759 -22.840  0.00  0.00    -0.248 NA
ATOM     19  C   UNL     1      32.638  -6.317 -23.405  0.00  0.00    +0.030 C 
ATOM     20  C   UNL     1      32.215  -7.160 -22.368  0.00  0.00    +0.138 C 
ATOM     21  C   UNL     1      31.937  -5.110 -23.608  0.00  0.00    +0.066 C 
ATOM     22  C   UNL     1      33.728  -6.651 -24.228  0.00  0.00    +0.059 C 
ATOM     23  C   UNL     1      32.357  -4.273 -24.639  0.00  0.00    +0.109 C 
ATOM     24  C   UNL     1      31.135  -6.801 -21.574  0.00  0.00    +0.057 C 
ATOM     25  C   UNL     1      33.441  -4.605 -25.456  0.00  0.00    +0.118 C 
ATOM     26  C   UNL     1      34.127  -5.796 -25.250  0.00  0.00    +0.011 C 
ATOM     27  C   UNL     1      30.511  -5.600 -21.850  0.00  0.00    +0.102 C 
BRANCH  25  28
ATOM     28  O   UNL     1      33.822  -3.762 -26.454  0.00  0.00    -0.476 OA
ATOM     29  C   UNL     1      34.012  -4.333 -27.749  0.00  0.00    +0.252 C 
ENDBRANCH  25  28
ENDBRANCH  17  20
ENDBRANCH  16  17
ENDBRANCH   5  16
TORSDOF 5
ENDMDL
MODEL 8
REMARK VINA RESULT:     -10.4      3.611      9.581
REMARK  Name = 24864821
REMARK  5 active torsions:
REMARK  status: ('A' for Active; 'I' for Inactive)
REMARK    1  A    between atoms: C_5  and  C_16
REMARK    2  A    between atoms: C_7  and  C_10
REMARK    3  A    between atoms: C_16  and  O_17
REMARK    4  A    between atoms: O_17  and  C_20
REMARK    5  A    between atoms: C_25  and  O_28
REMARK                            x       y       z     vdW  Elec       q    Type
REMARK                         _______ _______ _______ _____ _____    ______ ____
ROOT
ATOM      1  N   UNL     1      34.335 -16.247 -23.148  0.00  0.00    -0.191 N 
ATOM      2  N   UNL     1      33.859 -15.400 -22.201  0.00  0.00    -0.163 NA
ATOM      3  N   UNL     1      35.327 -17.956 -24.095  0.00  0.00    -0.128 NA
ATOM      4  N   UNL     1      34.802 -17.156 -25.090  0.00  0.00    -0.127 NA
ATOM      5  C   UNL     1      35.039 -17.397 -22.942  0.00  0.00    +0.208 A 
ATOM      6  C   UNL     1      34.209 -16.134 -24.513  0.00  0.00    +0.186 A 
ATOM      7  C   UNL     1      33.211 -14.378 -22.687  0.00  0.00    +0.101 C 
ATOM      8  C   UNL     1      33.519 -15.011 -25.009  0.00  0.00    +0.042 C 
ATOM      9  C   UNL     1      33.011 -14.119 -24.149  0.00  0.00    +0.024 C 
ENDROOT
BRANCH   7  10
ATOM     10  C   UNL     1      32.636 -13.379 -21.749  0.00  0.00    +0.019 C 
ATOM     11  C   UNL     1      32.417 -13.720 -20.415  0.00  0.00    +0.002 C 
ATOM     12  C   UNL     1      32.317 -12.099 -22.203  0.00  0.00    +0.002 C 
ATOM     13  C   UNL     1      31.880 -12.781 -19.535  0.00  0.00    +0.000 C 
ATOM     14  C   UNL     1      31.780 -11.161 -21.323  0.00  0.00    +0.000 C 
ATOM     15  C   UNL     1      31.560 -11.501 -19.988  0.00  0.00    +0.000 C 
ENDBRANCH   7  10
BRANCH   5  16
ATOM     16  C   UNL     1      35.402 -17.903 -21.576  0.00  0.00    +0.272 C 
BRANCH  16  17
ATOM     17  O   UNL     1      35.577 -19.317 -21.637  0.00  0.00    -0.467 OA
BRANCH  17  20
ATOM     18  N   UNL     1      32.935 -21.605 -19.405  0.00  0.00    -0.248 NA
ATOM     19  C   UNL     1      35.188 -20.860 -19.822  0.00  0.00    +0.030 C 
ATOM     20  C   UNL     1      34.727 -20.077 -20.889  0.00  0.00    +0.138 C 
ATOM     21  C   UNL     1      34.245 -21.619 -19.098  0.00  0.00    +0.066 C 
ATOM     22  C   UNL     1      36.549 -20.899 -19.472  0.00  0.00    +0.059 C 
ATOM     23  C   UNL     1      34.704 -22.396 -18.038  0.00  0.00    +0.109 C 
ATOM     24  C   UNL     1      33.377 -20.061 -21.209  0.00  0.00    +0.057 C 
ATOM     25  C   UNL     1      36.057 -22.435 -17.690  0.00  0.00    +0.118 C 
ATOM     26  C   UNL     1      36.980 -21.685 -18.409  0.00  0.00    +0.011 C 
ATOM     27  C   UNL     1      32.529 -20.836 -20.442  0.00  0.00    +0.102 C 
BRANCH  25  28
ATOM     28  O   UNL     1      36.468 -23.206 -16.647  0.00  0.00    -0.476 OA
ATOM     29  C   UNL     1      37.498 -22.674 -15.814  0.00  0.00    +0.252 C 
ENDBRANCH  25  28
ENDBRANCH  17  20
ENDBRANCH  16  17
ENDBRANCH   5  16
TORSDOF 5
ENDMDL
MODEL 9
REMARK VINA RESULT:     -10.4      1.841      4.275
REMARK  Name = 24864821
REMARK  5 active torsions:
REMARK  status: ('A' for Active; 'I' for Inactive)
REMARK    1  A    between atoms: C_5  and  C_16
REMARK    2  A    between atoms: C_7  and  C_10
REMARK    3  A    between atoms: C_16  and  O_17
REMARK    4  A    between atoms: O_17  and  C_20
REMARK    5  A    between atoms: C_25  and  O_28
REMARK                            x       y       z     vdW  Elec       q    Type
REMARK                         _______ _______ _______ _____ _____    ______ ____
ROOT
ATOM      1  N   UNL     1      33.164 -23.802 -15.668  0.00  0.00    -0.191 N 
ATOM      2  N   UNL     1      34.391 -24.316 -15.404  0.00  0.00    -0.163 NA
ATOM      3  N   UNL     1      31.436 -23.006 -16.756  0.00  0.00    -0.128 NA
ATOM      4  N   UNL     1      31.125 -23.031 -15.412  0.00  0.00    -0.127 NA
ATOM      5  C   UNL     1      32.658 -23.469 -16.891  0.00  0.00    +0.208 A 
ATOM      6  C   UNL     1      32.166 -23.510 -14.768  0.00  0.00    +0.186 A 
ATOM      7  C   UNL     1      34.604 -24.547 -14.139  0.00  0.00    +0.101 C 
ATOM      8  C   UNL     1      32.431 -23.754 -13.406  0.00  0.00    +0.042 C 
ATOM      9  C   UNL     1      33.617 -24.263 -13.048  0.00  0.00    +0.024 C 
ENDROOT
BRANCH   7  10
ATOM     10  C   UNL     1      35.912 -25.116 -13.722  0.00  0.00    +0.019 C 
ATOM     11  C   UNL     1      36.180 -25.331 -12.370  0.00  0.00    +0.002 C 
ATOM     12  C   UNL     1      36.871 -25.436 -14.683  0.00  0.00    +0.002 C 
ATOM     13  C   UNL     1      37.407 -25.866 -11.980  0.00  0.00    +0.000 C 
ATOM     14  C   UNL     1      38.098 -25.971 -14.292  0.00  0.00    +0.000 C 
ATOM     15  C   UNL     1      38.368 -26.186 -12.941  0.00  0.00    +0.000 C 
ENDBRANCH   7  10
BRANCH   5  16
ATOM     16  C   UNL     1      33.428 -23.632 -18.169  0.00  0.00    +0.272 C 
BRANCH  16  17
ATOM     17  O   UNL     1      33.480 -22.376 -18.843  0.00  0.00    -0.467 OA
BRANCH  17  20
ATOM     18  N   UNL     1      37.248 -20.700 -19.273  0.00  0.00    -0.248 NA
ATOM     19  C   UNL     1      34.960 -20.867 -20.008  0.00  0.00    +0.030 C 
ATOM     20  C   UNL     1      34.711 -21.812 -19.003  0.00  0.00    +0.138 C 
ATOM     21  C   UNL     1      36.260 -20.330 -20.108  0.00  0.00    +0.066 C 
ATOM     22  C   UNL     1      33.952 -20.457 -20.898  0.00  0.00    +0.059 C 
ATOM     23  C   UNL     1      36.506 -19.391 -21.107  0.00  0.00    +0.109 C 
ATOM     24  C   UNL     1      35.728 -22.196 -18.140  0.00  0.00    +0.057 C 
ATOM     25  C   UNL     1      35.505 -18.983 -21.991  0.00  0.00    +0.118 C 
ATOM     26  C   UNL     1      34.226 -19.517 -21.887  0.00  0.00    +0.011 C 
ATOM     27  C   UNL     1      36.968 -21.615 -18.316  0.00  0.00    +0.102 C 
BRANCH  25  28
ATOM     28  O   UNL     1      35.783 -18.062 -22.954  0.00  0.00    -0.476 OA
ATOM     29  C   UNL     1      35.021 -16.855 -22.937  0.00  0.00    +0.252 C 
ENDBRANCH  25  28
ENDBRANCH  17  20
ENDBRANCH  16  17
ENDBRANCH   5  16
TORSDOF 5
ENDMDL
