MODEL 1
REMARK VINA RESULT:     -11.6      0.000      0.000
REMARK  Name = 10200651
REMARK  5 active torsions:
REMARK  status: ('A' for Active; 'I' for Inactive)
REMARK    1  A    between atoms: C_1  and  C_7
REMARK    2  A    between atoms: C_4  and  C_22
REMARK    3  A    between atoms: C_10  and  C_17
REMARK    4  A    between atoms: N_21  and  C_24
REMARK    5  A    between atoms: C_27  and  C_31
REMARK                            x       y       z     vdW  Elec       q    Type
REMARK                         _______ _______ _______ _____ _____    ______ ____
ROOT
ATOM      1  C   UNL     1      33.702 -14.681 -22.870  0.00  0.00    -0.000 C 
ATOM      2  C   UNL     1      34.153 -13.560 -23.567  0.00  0.00    +0.000 C 
ATOM      3  C   UNL     1      32.764 -14.538 -21.848  0.00  0.00    +0.000 C 
ATOM      4  C   UNL     1      32.737 -12.181 -22.227  0.00  0.00    +0.054 C 
ATOM      5  C   UNL     1      33.664 -12.295 -23.242  0.00  0.00    +0.005 C 
ATOM      6  C   UNL     1      32.276 -13.273 -21.523  0.00  0.00    +0.005 C 
ENDROOT
BRANCH   1   7
ATOM      7  C   UNL     1      34.210 -15.994 -23.208  0.00  0.00    -0.004 C 
ATOM      8  C   UNL     1      34.139 -16.481 -24.514  0.00  0.00    -0.022 C 
ATOM      9  C   UNL     1      34.778 -16.781 -22.203  0.00  0.00    +0.004 C 
ATOM     10  C   UNL     1      35.272 -18.050 -22.503  0.00  0.00    +0.055 C 
ATOM     11  C   UNL     1      34.634 -17.751 -24.814  0.00  0.00    -0.004 C 
ATOM     12  C   UNL     1      35.201 -18.534 -23.810  0.00  0.00    +0.004 C 
ATOM     13  C   UNL     1      33.539 -15.671 -25.617  0.00  0.00    +0.031 C 
BRANCH  10  17
ATOM     14  O   UNL     1      35.181 -19.996 -21.153  0.00  0.00    -0.420 OA
ATOM     15  N   UNL     1      36.946 -18.678 -20.764  0.00  0.00    -0.107 NA
ATOM     16  N   UNL     1      37.027 -19.762 -19.910  0.00  0.00    -0.111 NA
ATOM     17  C   UNL     1      35.858 -18.861 -21.465  0.00  0.00    +0.250 A 
ATOM     18  C   UNL     1      35.976 -20.504 -20.171  0.00  0.00    +0.227 A 
ATOM     19  C   UNL     1      35.552 -21.772 -19.567  0.00  0.00    +0.097 C 
ENDBRANCH  10  17
ENDBRANCH   1   7
BRANCH   4  22
ATOM     20  O   UNL     1      31.213 -10.770 -21.178  0.00  0.00    -0.270 OA
ATOM     21  N   UNL     1      32.957  -9.754 -22.384  0.00  0.00    -0.280 N 
ATOM     22  C   UNL     1      32.217 -10.832 -21.880  0.00  0.00    +0.249 C 
ATOM     23  H   UNL     1      33.740  -9.988 -22.935  0.00  0.00    +0.155 HD
BRANCH  21  24
ATOM     24  C   UNL     1      32.723  -8.391 -22.202  0.00  0.00    +0.051 C 
ATOM     25  C   UNL     1      32.757  -7.525 -23.294  0.00  0.00    +0.025 C 
ATOM     26  C   UNL     1      32.455  -7.894 -20.926  0.00  0.00    +0.015 C 
ATOM     27  C   UNL     1      32.523  -6.161 -23.111  0.00  0.00    +0.070 C 
ATOM     28  C   UNL     1      32.221  -6.532 -20.742  0.00  0.00    +0.002 C 
ATOM     29  C   UNL     1      32.256  -5.665 -21.835  0.00  0.00    +0.010 C 
BRANCH  27  31
ATOM     30  N   UNL     1      32.587  -4.551 -25.140  0.00  0.00    -0.191 NA
ATOM     31  C   UNL     1      32.559  -5.273 -24.230  0.00  0.00    +0.100 C 
ENDBRANCH  27  31
ENDBRANCH  21  24
ENDBRANCH   4  22
TORSDOF 5
ENDMDL
MODEL 2
REMARK VINA RESULT:     -11.5      3.990     12.460
REMARK  Name = 10200651
REMARK  5 active torsions:
REMARK  status: ('A' for Active; 'I' for Inactive)
REMARK    1  A    between atoms: C_1  and  C_7
REMARK    2  A    between atoms: C_4  and  C_22
REMARK    3  A    between atoms: C_10  and  C_17
REMARK    4  A    between atoms: N_21  and  C_24
REMARK    5  A    between atoms: C_27  and  C_31
REMARK                            x       y       z     vdW  Elec       q    Type
REMARK                         _______ _______ _______ _____ _____    ______ ____
ROOT
ATOM      1  C   UNL     1      34.625 -19.957 -21.105  0.00  0.00    -0.000 C 
ATOM      2  C   UNL     1      33.385 -20.368 -20.616  0.00  0.00    +0.000 C 
ATOM      3  C   UNL     1      35.797 -20.500 -20.580  0.00  0.00    +0.000 C 
ATOM      4  C   UNL     1      34.492 -21.846 -19.101  0.00  0.00    +0.054 C 
ATOM      5  C   UNL     1      33.317 -21.324 -19.603  0.00  0.00    +0.005 C 
ATOM      6  C   UNL     1      35.730 -21.456 -19.567  0.00  0.00    +0.005 C 
ENDROOT
BRANCH   1   7
ATOM      7  C   UNL     1      34.695 -18.965 -22.156  0.00  0.00    -0.004 C 
ATOM      8  C   UNL     1      34.904 -19.335 -23.486  0.00  0.00    -0.022 C 
ATOM      9  C   UNL     1      34.550 -17.615 -21.826  0.00  0.00    +0.004 C 
ATOM     10  C   UNL     1      34.615 -16.641 -22.822  0.00  0.00    +0.055 C 
ATOM     11  C   UNL     1      34.969 -18.360 -24.481  0.00  0.00    -0.004 C 
ATOM     12  C   UNL     1      34.823 -17.014 -24.150  0.00  0.00    +0.004 C 
ATOM     13  C   UNL     1      35.064 -20.768 -23.879  0.00  0.00    +0.031 C 
BRANCH  10  17
ATOM     14  O   UNL     1      34.268 -14.403 -23.524  0.00  0.00    -0.420 OA
ATOM     15  N   UNL     1      34.492 -14.658 -21.313  0.00  0.00    -0.107 NA
ATOM     16  N   UNL     1      34.299 -13.314 -21.571  0.00  0.00    -0.111 NA
ATOM     17  C   UNL     1      34.466 -15.248 -22.479  0.00  0.00    +0.250 A 
ATOM     18  C   UNL     1      34.174 -13.212 -22.873  0.00  0.00    +0.227 A 
ATOM     19  C   UNL     1      33.952 -12.021 -23.701  0.00  0.00    +0.097 C 
ENDBRANCH  10  17
ENDBRANCH   1   7
BRANCH   4  22
ATOM     20  O   UNL     1      33.635 -23.795 -18.165  0.00  0.00    -0.270 OA
ATOM     21  N   UNL     1      35.288 -22.657 -16.941  0.00  0.00    -0.280 N 
ATOM     22  C   UNL     1      34.419 -22.864 -18.021  0.00  0.00    +0.249 C 
ATOM     23  H   UNL     1      35.852 -21.851 -16.989  0.00  0.00    +0.155 HD
BRANCH  21  24
ATOM     24  C   UNL     1      35.455 -23.454 -15.807  0.00  0.00    +0.051 C 
ATOM     25  C   UNL     1      36.737 -23.798 -15.379  0.00  0.00    +0.025 C 
ATOM     26  C   UNL     1      34.340 -23.905 -15.102  0.00  0.00    +0.015 C 
ATOM     27  C   UNL     1      36.904 -24.595 -14.246  0.00  0.00    +0.070 C 
ATOM     28  C   UNL     1      34.505 -24.702 -13.969  0.00  0.00    +0.002 C 
ATOM     29  C   UNL     1      35.788 -25.047 -13.542  0.00  0.00    +0.010 C 
BRANCH  27  31
ATOM     30  N   UNL     1      39.284 -25.236 -13.451  0.00  0.00    -0.191 NA
ATOM     31  C   UNL     1      38.216 -24.949 -13.808  0.00  0.00    +0.100 C 
ENDBRANCH  27  31
ENDBRANCH  21  24
ENDBRANCH   4  22
TORSDOF 5
ENDMDL
MODEL 3
REMARK VINA RESULT:     -11.5      1.122      1.630
REMARK  Name = 10200651
REMARK  5 active torsions:
REMARK  status: ('A' for Active; 'I' for Inactive)
REMARK    1  A    between atoms: C_1  and  C_7
REMARK    2  A    between atoms: C_4  and  C_22
REMARK    3  A    between atoms: C_10  and  C_17
REMARK    4  A    between atoms: N_21  and  C_24
REMARK    5  A    between atoms: C_27  and  C_31
REMARK                            x       y       z     vdW  Elec       q    Type
REMARK                         _______ _______ _______ _____ _____    ______ ____
ROOT
ATOM      1  C   UNL     1      33.467 -13.584 -23.281  0.00  0.00    -0.000 C 
ATOM      2  C   UNL     1      32.523 -13.424 -22.266  0.00  0.00    +0.000 C 
ATOM      3  C   UNL     1      34.025 -12.465 -23.897  0.00  0.00    +0.000 C 
ATOM      4  C   UNL     1      32.707 -11.054 -22.492  0.00  0.00    +0.054 C 
ATOM      5  C   UNL     1      32.139 -12.144 -21.867  0.00  0.00    +0.005 C 
ATOM      6  C   UNL     1      33.641 -11.185 -23.498  0.00  0.00    +0.005 C 
ENDROOT
BRANCH   1   7
ATOM      7  C   UNL     1      33.865 -14.912 -23.695  0.00  0.00    -0.004 C 
ATOM      8  C   UNL     1      33.694 -15.339 -25.013  0.00  0.00    -0.022 C 
ATOM      9  C   UNL     1      34.429 -15.775 -22.754  0.00  0.00    +0.004 C 
ATOM     10  C   UNL     1      34.820 -17.061 -23.128  0.00  0.00    +0.055 C 
ATOM     11  C   UNL     1      34.084 -16.625 -25.388  0.00  0.00    -0.004 C 
ATOM     12  C   UNL     1      34.648 -17.485 -24.446  0.00  0.00    +0.004 C 
ATOM     13  C   UNL     1      33.094 -14.446 -26.050  0.00  0.00    +0.031 C 
BRANCH  10  17
ATOM     14  O   UNL     1      34.631 -19.007 -21.787  0.00  0.00    -0.420 OA
ATOM     15  N   UNL     1      36.564 -17.905 -21.558  0.00  0.00    -0.107 NA
ATOM     16  N   UNL     1      36.598 -19.006 -20.722  0.00  0.00    -0.111 NA
ATOM     17  C   UNL     1      35.402 -17.951 -22.154  0.00  0.00    +0.250 A 
ATOM     18  C   UNL     1      35.449 -19.618 -20.888  0.00  0.00    +0.227 A 
ATOM     19  C   UNL     1      34.940 -20.840 -20.255  0.00  0.00    +0.097 C 
ENDBRANCH  10  17
ENDBRANCH   1   7
BRANCH   4  22
ATOM     20  O   UNL     1      32.141  -9.488 -20.868  0.00  0.00    -0.270 OA
ATOM     21  N   UNL     1      32.150  -8.756 -23.102  0.00  0.00    -0.280 N 
ATOM     22  C   UNL     1      32.297  -9.690 -22.067  0.00  0.00    +0.249 C 
ATOM     23  H   UNL     1      32.315  -9.092 -24.013  0.00  0.00    +0.155 HD
BRANCH  21  24
ATOM     24  C   UNL     1      31.803  -7.408 -23.001  0.00  0.00    +0.051 C 
ATOM     25  C   UNL     1      32.285  -6.491 -23.934  0.00  0.00    +0.025 C 
ATOM     26  C   UNL     1      30.972  -6.979 -21.967  0.00  0.00    +0.015 C 
ATOM     27  C   UNL     1      31.938  -5.144 -23.832  0.00  0.00    +0.070 C 
ATOM     28  C   UNL     1      30.623  -5.632 -21.864  0.00  0.00    +0.002 C 
ATOM     29  C   UNL     1      31.107  -4.715 -22.797  0.00  0.00    +0.010 C 
BRANCH  27  31
ATOM     30  N   UNL     1      32.835  -3.440 -25.564  0.00  0.00    -0.191 NA
ATOM     31  C   UNL     1      32.432  -4.204 -24.788  0.00  0.00    +0.100 C 
ENDBRANCH  27  31
ENDBRANCH  21  24
ENDBRANCH   4  22
TORSDOF 5
ENDMDL
MODEL 4
REMARK VINA RESULT:     -11.5      4.037     12.324
REMARK  Name = 10200651
REMARK  5 active torsions:
REMARK  status: ('A' for Active; 'I' for Inactive)
REMARK    1  A    between atoms: C_1  and  C_7
REMARK    2  A    between atoms: C_4  and  C_22
REMARK    3  A    between atoms: C_10  and  C_17
REMARK    4  A    between atoms: N_21  and  C_24
REMARK    5  A    between atoms: C_27  and  C_31
REMARK                            x       y       z     vdW  Elec       q    Type
REMARK                         _______ _______ _______ _____ _____    ______ ____
ROOT
ATOM      1  C   UNL     1      34.574 -19.884 -21.230  0.00  0.00    -0.000 C 
ATOM      2  C   UNL     1      35.740 -20.435 -20.698  0.00  0.00    +0.000 C 
ATOM      3  C   UNL     1      33.329 -20.294 -20.757  0.00  0.00    +0.000 C 
ATOM      4  C   UNL     1      34.415 -21.785 -19.240  0.00  0.00    +0.054 C 
ATOM      5  C   UNL     1      35.660 -21.397 -19.691  0.00  0.00    +0.005 C 
ATOM      6  C   UNL     1      33.249 -21.256 -19.750  0.00  0.00    +0.005 C 
ENDROOT
BRANCH   1   7
ATOM      7  C   UNL     1      34.658 -18.886 -22.275  0.00  0.00    -0.004 C 
ATOM      8  C   UNL     1      34.871 -19.250 -23.606  0.00  0.00    -0.022 C 
ATOM      9  C   UNL     1      34.522 -17.538 -21.938  0.00  0.00    +0.004 C 
ATOM     10  C   UNL     1      34.600 -16.557 -22.926  0.00  0.00    +0.055 C 
ATOM     11  C   UNL     1      34.950 -18.269 -24.595  0.00  0.00    -0.004 C 
ATOM     12  C   UNL     1      34.813 -16.923 -24.256  0.00  0.00    +0.004 C 
ATOM     13  C   UNL     1      35.023 -20.681 -24.008  0.00  0.00    +0.031 C 
BRANCH  10  17
ATOM     14  O   UNL     1      34.237 -14.317 -23.613  0.00  0.00    -0.420 OA
ATOM     15  N   UNL     1      34.514 -14.579 -21.409  0.00  0.00    -0.107 NA
ATOM     16  N   UNL     1      34.315 -13.234 -21.657  0.00  0.00    -0.111 NA
ATOM     17  C   UNL     1      34.459 -15.165 -22.576  0.00  0.00    +0.250 A 
ATOM     18  C   UNL     1      34.159 -13.128 -22.956  0.00  0.00    +0.227 A 
ATOM     19  C   UNL     1      33.918 -11.934 -23.775  0.00  0.00    +0.097 C 
ENDBRANCH  10  17
ENDBRANCH   1   7
BRANCH   4  22
ATOM     20  O   UNL     1      33.616 -23.788 -18.368  0.00  0.00    -0.270 OA
ATOM     21  N   UNL     1      35.107 -22.557 -17.030  0.00  0.00    -0.280 N 
ATOM     22  C   UNL     1      34.330 -22.811 -18.168  0.00  0.00    +0.249 C 
ATOM     23  H   UNL     1      35.623 -21.717 -17.038  0.00  0.00    +0.155 HD
BRANCH  21  24
ATOM     24  C   UNL     1      35.243 -23.348 -15.888  0.00  0.00    +0.051 C 
ATOM     25  C   UNL     1      34.110 -23.779 -15.200  0.00  0.00    +0.025 C 
ATOM     26  C   UNL     1      36.513 -23.706 -15.436  0.00  0.00    +0.015 C 
ATOM     27  C   UNL     1      34.246 -24.570 -14.058  0.00  0.00    +0.070 C 
ATOM     28  C   UNL     1      36.650 -24.496 -14.295  0.00  0.00    +0.002 C 
ATOM     29  C   UNL     1      35.517 -24.927 -13.606  0.00  0.00    +0.010 C 
BRANCH  27  31
ATOM     30  N   UNL     1      32.143 -25.373 -12.778  0.00  0.00    -0.191 NA
ATOM     31  C   UNL     1      33.086 -25.012 -13.352  0.00  0.00    +0.100 C 
ENDBRANCH  27  31
ENDBRANCH  21  24
ENDBRANCH   4  22
TORSDOF 5
ENDMDL
MODEL 5
REMARK VINA RESULT:     -11.3      5.685     10.934
REMARK  Name = 10200651
REMARK  5 active torsions:
REMARK  status: ('A' for Active; 'I' for Inactive)
REMARK    1  A    between atoms: C_1  and  C_7
REMARK    2  A    between atoms: C_4  and  C_22
REMARK    3  A    between atoms: C_10  and  C_17
REMARK    4  A    between atoms: N_21  and  C_24
REMARK    5  A    between atoms: C_27  and  C_31
REMARK                            x       y       z     vdW  Elec       q    Type
REMARK                         _______ _______ _______ _____ _____    ______ ____
ROOT
ATOM      1  C   UNL     1      34.427 -23.125 -16.832  0.00  0.00    -0.000 C 
ATOM      2  C   UNL     1      35.471 -22.482 -17.497  0.00  0.00    +0.000 C 
ATOM      3  C   UNL     1      33.121 -23.011 -17.308  0.00  0.00    +0.000 C 
ATOM      4  C   UNL     1      33.908 -21.629 -19.089  0.00  0.00    +0.054 C 
ATOM      5  C   UNL     1      35.209 -21.725 -18.639  0.00  0.00    +0.005 C 
ATOM      6  C   UNL     1      32.859 -22.255 -18.450  0.00  0.00    +0.005 C 
ENDROOT
BRANCH   1   7
ATOM      7  C   UNL     1      34.700 -23.910 -15.648  0.00  0.00    -0.004 C 
ATOM      8  C   UNL     1      33.784 -23.971 -14.595  0.00  0.00    -0.022 C 
ATOM      9  C   UNL     1      35.902 -24.616 -15.564  0.00  0.00    +0.004 C 
ATOM     10  C   UNL     1      36.188 -25.379 -14.431  0.00  0.00    +0.055 C 
ATOM     11  C   UNL     1      34.071 -24.734 -13.463  0.00  0.00    -0.004 C 
ATOM     12  C   UNL     1      35.271 -25.439 -13.381  0.00  0.00    +0.004 C 
ATOM     13  C   UNL     1      32.487 -23.231 -14.647  0.00  0.00    +0.031 C 
BRANCH  10  17
ATOM     14  O   UNL     1      38.544 -25.350 -14.172  0.00  0.00    -0.420 OA
ATOM     15  N   UNL     1      37.662 -27.391 -14.413  0.00  0.00    -0.107 NA
ATOM     16  N   UNL     1      39.030 -27.531 -14.274  0.00  0.00    -0.111 NA
ATOM     17  C   UNL     1      37.430 -26.107 -14.346  0.00  0.00    +0.250 A 
ATOM     18  C   UNL     1      39.503 -26.315 -14.138  0.00  0.00    +0.227 A 
ATOM     19  C   UNL     1      40.888 -25.865 -13.956  0.00  0.00    +0.097 C 
ENDBRANCH  10  17
ENDBRANCH   1   7
BRANCH   4  22
ATOM     20  O   UNL     1      32.482 -20.823 -20.740  0.00  0.00    -0.270 OA
ATOM     21  N   UNL     1      34.723 -20.114 -20.821  0.00  0.00    -0.280 N 
ATOM     22  C   UNL     1      33.629 -20.821 -20.305  0.00  0.00    +0.249 C 
ATOM     23  H   UNL     1      35.576 -20.229 -20.343  0.00  0.00    +0.155 HD
BRANCH  21  24
ATOM     24  C   UNL     1      34.752 -19.263 -21.927  0.00  0.00    +0.051 C 
ATOM     25  C   UNL     1      34.772 -17.881 -21.744  0.00  0.00    +0.025 C 
ATOM     26  C   UNL     1      34.760 -19.796 -23.216  0.00  0.00    +0.015 C 
ATOM     27  C   UNL     1      34.801 -17.031 -22.850  0.00  0.00    +0.070 C 
ATOM     28  C   UNL     1      34.789 -18.947 -24.322  0.00  0.00    +0.002 C 
ATOM     29  C   UNL     1      34.809 -17.564 -24.139  0.00  0.00    +0.010 C 
BRANCH  27  31
ATOM     30  N   UNL     1      34.839 -14.463 -22.511  0.00  0.00    -0.191 NA
ATOM     31  C   UNL     1      34.822 -15.615 -22.663  0.00  0.00    +0.100 C 
ENDBRANCH  27  31
ENDBRANCH  21  24
ENDBRANCH   4  22
TORSDOF 5
ENDMDL
MODEL 6
REMARK VINA RESULT:     -11.3      1.269      1.846
REMARK  Name = 10200651
REMARK  5 active torsions:
REMARK  status: ('A' for Active; 'I' for Inactive)
REMARK    1  A    between atoms: C_1  and  C_7
REMARK    2  A    between atoms: C_4  and  C_22
REMARK    3  A    between atoms: C_10  and  C_17
REMARK    4  A    between atoms: N_21  and  C_24
REMARK    5  A    between atoms: C_27  and  C_31
REMARK                            x       y       z     vdW  Elec       q    Type
REMARK                         _______ _______ _______ _____ _____    ______ ____
ROOT
ATOM      1  C   UNL     1      33.687 -14.213 -23.232  0.00  0.00    -0.000 C 
ATOM      2  C   UNL     1      32.744 -13.988 -22.229  0.00  0.00    +0.000 C 
ATOM      3  C   UNL     1      34.245 -13.137 -23.920  0.00  0.00    +0.000 C 
ATOM      4  C   UNL     1      32.928 -11.638 -22.609  0.00  0.00    +0.054 C 
ATOM      5  C   UNL     1      32.360 -12.685 -21.914  0.00  0.00    +0.005 C 
ATOM      6  C   UNL     1      33.861 -11.834 -23.605  0.00  0.00    +0.005 C 
ENDROOT
BRANCH   1   7
ATOM      7  C   UNL     1      34.086 -15.566 -23.559  0.00  0.00    -0.004 C 
ATOM      8  C   UNL     1      33.889 -16.087 -24.839  0.00  0.00    -0.022 C 
ATOM      9  C   UNL     1      34.676 -16.356 -22.571  0.00  0.00    +0.004 C 
ATOM     10  C   UNL     1      35.068 -17.663 -22.861  0.00  0.00    +0.055 C 
ATOM     11  C   UNL     1      34.280 -17.394 -25.129  0.00  0.00    -0.004 C 
ATOM     12  C   UNL     1      34.870 -18.182 -24.141  0.00  0.00    +0.004 C 
ATOM     13  C   UNL     1      33.260 -15.274 -25.923  0.00  0.00    +0.031 C 
BRANCH  10  17
ATOM     14  O   UNL     1      34.963 -19.566 -21.451  0.00  0.00    -0.420 OA
ATOM     15  N   UNL     1      36.818 -18.338 -21.217  0.00  0.00    -0.107 NA
ATOM     16  N   UNL     1      36.897 -19.402 -20.338  0.00  0.00    -0.111 NA
ATOM     17  C   UNL     1      35.677 -18.478 -21.839  0.00  0.00    +0.250 A 
ATOM     18  C   UNL     1      35.793 -20.091 -20.509  0.00  0.00    +0.227 A 
ATOM     19  C   UNL     1      35.343 -21.318 -19.841  0.00  0.00    +0.097 C 
ENDBRANCH  10  17
ENDBRANCH   1   7
BRANCH   4  22
ATOM     20  O   UNL     1      31.941 -10.066 -21.207  0.00  0.00    -0.270 OA
ATOM     21  N   UNL     1      32.859  -9.275 -23.222  0.00  0.00    -0.280 N 
ATOM     22  C   UNL     1      32.517 -10.249 -22.274  0.00  0.00    +0.249 C 
ATOM     23  H   UNL     1      33.322  -9.601 -24.028  0.00  0.00    +0.155 HD
BRANCH  21  24
ATOM     24  C   UNL     1      32.626  -7.900 -23.164  0.00  0.00    +0.051 C 
ATOM     25  C   UNL     1      31.572  -7.403 -22.400  0.00  0.00    +0.025 C 
ATOM     26  C   UNL     1      33.450  -7.024 -23.871  0.00  0.00    +0.015 C 
ATOM     27  C   UNL     1      31.339  -6.028 -22.342  0.00  0.00    +0.070 C 
ATOM     28  C   UNL     1      33.218  -5.650 -23.815  0.00  0.00    +0.002 C 
ATOM     29  C   UNL     1      32.163  -5.152 -23.050  0.00  0.00    +0.010 C 
BRANCH  27  31
ATOM     30  N   UNL     1      29.381  -5.102 -20.923  0.00  0.00    -0.191 NA
ATOM     31  C   UNL     1      30.259  -5.518 -21.560  0.00  0.00    +0.100 C 
ENDBRANCH  27  31
ENDBRANCH  21  24
ENDBRANCH   4  22
TORSDOF 5
ENDMDL
MODEL 7
REMARK VINA RESULT:     -11.2      5.452     10.618
REMARK  Name = 10200651
REMARK  5 active torsions:
REMARK  status: ('A' for Active; 'I' for Inactive)
REMARK    1  A    between atoms: C_1  and  C_7
REMARK    2  A    between atoms: C_4  and  C_22
REMARK    3  A    between atoms: C_10  and  C_17
REMARK    4  A    between atoms: N_21  and  C_24
REMARK    5  A    between atoms: C_27  and  C_31
REMARK                            x       y       z     vdW  Elec       q    Type
REMARK                         _______ _______ _______ _____ _____    ______ ____
ROOT
ATOM      1  C   UNL     1      35.311 -22.698 -17.274  0.00  0.00    -0.000 C 
ATOM      2  C   UNL     1      34.294 -22.487 -18.206  0.00  0.00    +0.000 C 
ATOM      3  C   UNL     1      36.552 -22.087 -17.445  0.00  0.00    +0.000 C 
ATOM      4  C   UNL     1      35.757 -21.072 -19.455  0.00  0.00    +0.054 C 
ATOM      5  C   UNL     1      34.519 -21.664 -19.309  0.00  0.00    +0.005 C 
ATOM      6  C   UNL     1      36.778 -21.264 -18.548  0.00  0.00    +0.005 C 
ENDROOT
BRANCH   1   7
ATOM      7  C   UNL     1      35.076 -23.552 -16.129  0.00  0.00    -0.004 C 
ATOM      8  C   UNL     1      33.783 -23.799 -15.665  0.00  0.00    -0.022 C 
ATOM      9  C   UNL     1      36.169 -24.135 -15.483  0.00  0.00    +0.004 C 
ATOM     10  C   UNL     1      35.969 -24.960 -14.377  0.00  0.00    +0.055 C 
ATOM     11  C   UNL     1      33.583 -24.625 -14.559  0.00  0.00    -0.004 C 
ATOM     12  C   UNL     1      34.675 -25.206 -13.915  0.00  0.00    +0.004 C 
ATOM     13  C   UNL     1      32.588 -23.194 -16.329  0.00  0.00    +0.031 C 
BRANCH  10  17
ATOM     14  O   UNL     1      38.287 -25.454 -14.358  0.00  0.00    -0.420 OA
ATOM     15  N   UNL     1      37.164 -26.201 -12.573  0.00  0.00    -0.107 NA
ATOM     16  N   UNL     1      38.490 -26.561 -12.424  0.00  0.00    -0.111 NA
ATOM     17  C   UNL     1      37.098 -25.561 -13.711  0.00  0.00    +0.250 A 
ATOM     18  C   UNL     1      39.108 -26.106 -13.489  0.00  0.00    +0.227 A 
ATOM     19  C   UNL     1      40.524 -26.198 -13.860  0.00  0.00    +0.097 C 
ENDBRANCH  10  17
ENDBRANCH   1   7
BRANCH   4  22
ATOM     20  O   UNL     1      37.155 -20.047 -21.005  0.00  0.00    -0.270 OA
ATOM     21  N   UNL     1      34.849 -19.640 -21.211  0.00  0.00    -0.280 N 
ATOM     22  C   UNL     1      35.997 -20.196 -20.631  0.00  0.00    +0.249 C 
ATOM     23  H   UNL     1      33.993 -19.866 -20.778  0.00  0.00    +0.155 HD
BRANCH  21  24
ATOM     24  C   UNL     1      34.767 -18.808 -22.329  0.00  0.00    +0.051 C 
ATOM     25  C   UNL     1      34.784 -17.423 -22.170  0.00  0.00    +0.025 C 
ATOM     26  C   UNL     1      34.669 -19.362 -23.605  0.00  0.00    +0.015 C 
ATOM     27  C   UNL     1      34.703 -16.591 -23.288  0.00  0.00    +0.070 C 
ATOM     28  C   UNL     1      34.587 -18.532 -24.723  0.00  0.00    +0.002 C 
ATOM     29  C   UNL     1      34.603 -17.147 -24.563  0.00  0.00    +0.010 C 
BRANCH  27  31
ATOM     30  N   UNL     1      34.733 -14.018 -22.994  0.00  0.00    -0.191 NA
ATOM     31  C   UNL     1      34.720 -15.172 -23.126  0.00  0.00    +0.100 C 
ENDBRANCH  27  31
ENDBRANCH  21  24
ENDBRANCH   4  22
TORSDOF 5
ENDMDL
MODEL 8
REMARK VINA RESULT:     -11.1      5.493     10.703
REMARK  Name = 10200651
REMARK  5 active torsions:
REMARK  status: ('A' for Active; 'I' for Inactive)
REMARK    1  A    between atoms: C_1  and  C_7
REMARK    2  A    between atoms: C_4  and  C_22
REMARK    3  A    between atoms: C_10  and  C_17
REMARK    4  A    between atoms: N_21  and  C_24
REMARK    5  A    between atoms: C_27  and  C_31
REMARK                            x       y       z     vdW  Elec       q    Type
REMARK                         _______ _______ _______ _____ _____    ______ ____
ROOT
ATOM      1  C   UNL     1      35.919 -22.509 -17.096  0.00  0.00    -0.000 C 
ATOM      2  C   UNL     1      37.037 -21.687 -17.245  0.00  0.00    +0.000 C 
ATOM      3  C   UNL     1      34.934 -22.533 -18.082  0.00  0.00    +0.000 C 
ATOM      4  C   UNL     1      36.179 -20.932 -19.342  0.00  0.00    +0.054 C 
ATOM      5  C   UNL     1      37.168 -20.889 -18.381  0.00  0.00    +0.005 C 
ATOM      6  C   UNL     1      35.065 -21.735 -19.218  0.00  0.00    +0.005 C 
ENDROOT
BRANCH   1   7
ATOM      7  C   UNL     1      35.783 -23.337 -15.916  0.00  0.00    -0.004 C 
ATOM      8  C   UNL     1      36.904 -23.818 -15.238  0.00  0.00    -0.022 C 
ATOM      9  C   UNL     1      34.503 -23.655 -15.456  0.00  0.00    +0.004 C 
ATOM     10  C   UNL     1      34.346 -24.452 -14.322  0.00  0.00    +0.055 C 
ATOM     11  C   UNL     1      36.747 -24.616 -14.105  0.00  0.00    -0.004 C 
ATOM     12  C   UNL     1      35.468 -24.932 -13.646  0.00  0.00    +0.004 C 
ATOM     13  C   UNL     1      38.289 -23.501 -15.700  0.00  0.00    +0.031 C 
BRANCH  10  17
ATOM     14  O   UNL     1      32.008 -24.511 -14.707  0.00  0.00    -0.420 OA
ATOM     15  N   UNL     1      32.640 -25.298 -12.711  0.00  0.00    -0.107 NA
ATOM     16  N   UNL     1      31.263 -25.394 -12.791  0.00  0.00    -0.111 NA
ATOM     17  C   UNL     1      33.024 -24.780 -13.848  0.00  0.00    +0.250 A 
ATOM     18  C   UNL     1      30.938 -24.922 -13.972  0.00  0.00    +0.227 A 
ATOM     19  C   UNL     1      29.616 -24.783 -14.593  0.00  0.00    +0.097 C 
ENDBRANCH  10  17
ENDBRANCH   1   7
BRANCH   4  22
ATOM     20  O   UNL     1      37.452 -19.864 -20.970  0.00  0.00    -0.270 OA
ATOM     21  N   UNL     1      35.117 -19.625 -21.110  0.00  0.00    -0.280 N 
ATOM     22  C   UNL     1      36.320 -20.080 -20.552  0.00  0.00    +0.249 C 
ATOM     23  H   UNL     1      34.294 -19.896 -20.641  0.00  0.00    +0.155 HD
BRANCH  21  24
ATOM     24  C   UNL     1      34.942 -18.839 -22.249  0.00  0.00    +0.051 C 
ATOM     25  C   UNL     1      34.936 -17.449 -22.143  0.00  0.00    +0.025 C 
ATOM     26  C   UNL     1      34.772 -19.444 -23.494  0.00  0.00    +0.015 C 
ATOM     27  C   UNL     1      34.760 -16.662 -23.282  0.00  0.00    +0.070 C 
ATOM     28  C   UNL     1      34.596 -18.659 -24.634  0.00  0.00    +0.002 C 
ATOM     29  C   UNL     1      34.590 -17.268 -24.527  0.00  0.00    +0.010 C 
BRANCH  27  31
ATOM     30  N   UNL     1      34.749 -14.080 -23.086  0.00  0.00    -0.191 NA
ATOM     31  C   UNL     1      34.754 -15.238 -23.174  0.00  0.00    +0.100 C 
ENDBRANCH  27  31
ENDBRANCH  21  24
ENDBRANCH   4  22
TORSDOF 5
ENDMDL
MODEL 9
REMARK VINA RESULT:     -10.8      5.737     11.050
REMARK  Name = 10200651
REMARK  5 active torsions:
REMARK  status: ('A' for Active; 'I' for Inactive)
REMARK    1  A    between atoms: C_1  and  C_7
REMARK    2  A    between atoms: C_4  and  C_22
REMARK    3  A    between atoms: C_10  and  C_17
REMARK    4  A    between atoms: N_21  and  C_24
REMARK    5  A    between atoms: C_27  and  C_31
REMARK                            x       y       z     vdW  Elec       q    Type
REMARK                         _______ _______ _______ _____ _____    ______ ____
ROOT
ATOM      1  C   UNL     1      34.011 -22.946 -16.806  0.00  0.00    -0.000 C 
ATOM      2  C   UNL     1      35.364 -22.654 -16.978  0.00  0.00    +0.000 C 
ATOM      3  C   UNL     1      33.088 -22.579 -17.784  0.00  0.00    +0.000 C 
ATOM      4  C   UNL     1      34.860 -21.642 -19.081  0.00  0.00    +0.054 C 
ATOM      5  C   UNL     1      35.794 -21.994 -18.129  0.00  0.00    +0.005 C 
ATOM      6  C   UNL     1      33.517 -21.919 -18.935  0.00  0.00    +0.005 C 
ENDROOT
BRANCH   1   7
ATOM      7  C   UNL     1      33.565 -23.631 -15.611  0.00  0.00    -0.004 C 
ATOM      8  C   UNL     1      32.211 -23.880 -15.384  0.00  0.00    -0.022 C 
ATOM      9  C   UNL     1      34.514 -24.047 -14.675  0.00  0.00    +0.004 C 
ATOM     10  C   UNL     1      34.109 -24.707 -13.515  0.00  0.00    +0.055 C 
ATOM     11  C   UNL     1      31.806 -24.540 -14.224  0.00  0.00    -0.004 C 
ATOM     12  C   UNL     1      32.754 -24.955 -13.290  0.00  0.00    +0.004 C 
ATOM     13  C   UNL     1      31.165 -23.450 -16.362  0.00  0.00    +0.031 C 
BRANCH  10  17
ATOM     14  O   UNL     1      36.322 -25.416 -13.045  0.00  0.00    -0.420 OA
ATOM     15  N   UNL     1      34.985 -25.302 -11.256  0.00  0.00    -0.107 NA
ATOM     16  N   UNL     1      36.230 -25.726 -10.832  0.00  0.00    -0.111 NA
ATOM     17  C   UNL     1      35.090 -25.136 -12.548  0.00  0.00    +0.250 A 
ATOM     18  C   UNL     1      36.978 -25.779 -11.909  0.00  0.00    +0.227 A 
ATOM     19  C   UNL     1      38.386 -26.165 -12.053  0.00  0.00    +0.097 C 
ENDBRANCH  10  17
ENDBRANCH   1   7
BRANCH   4  22
ATOM     20  O   UNL     1      36.392 -21.276 -20.793  0.00  0.00    -0.270 OA
ATOM     21  N   UNL     1      34.446 -19.958 -20.800  0.00  0.00    -0.280 N 
ATOM     22  C   UNL     1      35.318 -20.938 -20.308  0.00  0.00    +0.249 C 
ATOM     23  H   UNL     1      33.621 -19.814 -20.281  0.00  0.00    +0.155 HD
BRANCH  21  24
ATOM     24  C   UNL     1      34.600 -19.162 -21.936  0.00  0.00    +0.051 C 
ATOM     25  C   UNL     1      34.636 -17.773 -21.815  0.00  0.00    +0.025 C 
ATOM     26  C   UNL     1      34.718 -19.756 -23.192  0.00  0.00    +0.015 C 
ATOM     27  C   UNL     1      34.790 -16.978 -22.952  0.00  0.00    +0.070 C 
ATOM     28  C   UNL     1      34.872 -18.962 -24.328  0.00  0.00    +0.002 C 
ATOM     29  C   UNL     1      34.907 -17.573 -24.208  0.00  0.00    +0.010 C 
BRANCH  27  31
ATOM     30  N   UNL     1      34.856 -14.398 -22.728  0.00  0.00    -0.191 NA
ATOM     31  C   UNL     1      34.826 -15.555 -22.829  0.00  0.00    +0.100 C 
ENDBRANCH  27  31
ENDBRANCH  21  24
ENDBRANCH   4  22
TORSDOF 5
ENDMDL
