MODEL 1
REMARK VINA RESULT:     -11.4      0.000      0.000
REMARK  Name = 16122642
REMARK  7 active torsions:
REMARK  status: ('A' for Active; 'I' for Inactive)
REMARK    1  A    between atoms: C_2  and  C_10
REMARK    2  A    between atoms: C_3  and  O_18
REMARK    3  A    between atoms: O_18  and  C_19
REMARK    4  A    between atoms: C_19  and  C_20
REMARK    5  A    between atoms: C_20  and  N_21
REMARK    6  A    between atoms: C_20  and  C_25
REMARK    7  A    between atoms: C_25  and  C_27
REMARK                            x       y       z     vdW  Elec       q    Type
REMARK                         _______ _______ _______ _____ _____    ______ ____
ROOT
ATOM      1  N   UNL     1      33.696 -15.979 -25.855  0.00  0.00    -0.239 NA
ATOM      2  C   UNL     1      33.845 -14.343 -24.089  0.00  0.00    +0.022 C 
ATOM      3  C   UNL     1      34.902 -16.481 -23.821  0.00  0.00    +0.158 C 
ATOM      4  C   UNL     1      34.597 -15.219 -23.321  0.00  0.00    +0.040 C 
ATOM      5  C   UNL     1      33.421 -14.761 -25.337  0.00  0.00    +0.099 C 
ATOM      6  C   UNL     1      34.432 -16.808 -25.083  0.00  0.00    +0.136 C 
ENDROOT
BRANCH   2  10
ATOM      7  N   UNL     1      31.699  -9.799 -21.196  0.00  0.00    -0.280 N 
ATOM      8  N   UNL     1      32.525  -9.327 -22.150  0.00  0.00    -0.173 NA
ATOM      9  C   UNL     1      32.400 -11.596 -22.164  0.00  0.00    +0.032 A 
ATOM     10  C   UNL     1      33.512 -13.020 -23.595  0.00  0.00    +0.002 C 
ATOM     11  C   UNL     1      32.983 -10.426 -22.776  0.00  0.00    +0.102 A 
ATOM     12  C   UNL     1      32.613 -12.923 -22.515  0.00  0.00    +0.003 C 
ATOM     13  C   UNL     1      31.585 -11.158 -21.159  0.00  0.00    +0.053 A 
ATOM     14  C   UNL     1      34.116 -11.893 -24.236  0.00  0.00    +0.002 C 
ATOM     15  C   UNL     1      33.879 -10.554 -23.854  0.00  0.00    +0.021 C 
ATOM     16  C   UNL     1      30.725 -11.843 -20.180  0.00  0.00    +0.051 C 
ATOM     17  H   UNL     1      31.214  -9.209 -20.575  0.00  0.00    +0.189 HD
ENDBRANCH   2  10
BRANCH   3  18
ATOM     18  O   UNL     1      35.635 -17.361 -23.097  0.00  0.00    -0.476 OA
BRANCH  18  19
ATOM     19  C   UNL     1      35.119 -17.753 -21.823  0.00  0.00    +0.184 C 
BRANCH  19  20
ATOM     20  C   UNL     1      34.859 -19.264 -21.797  0.00  0.00    -0.017 C 
BRANCH  20  21
ATOM     21  N   UNL     1      34.941 -19.770 -23.170  0.00  0.00    +0.384 N 
ATOM     22  H   UNL     1      35.693 -19.291 -23.664  0.00  0.00    -0.089 HD
ATOM     23  H   UNL     1      34.057 -19.599 -23.649  0.00  0.00    -0.089 HD
ATOM     24  H   UNL     1      35.131 -20.772 -23.153  0.00  0.00    -0.089 HD
ENDBRANCH  20  21
BRANCH  20  25
ATOM     25  C   UNL     1      35.876 -20.040 -20.934  0.00  0.00    +0.008 C 
BRANCH  25  27
ATOM     26 BR   UNL     1      33.359 -23.827 -16.763  0.00  0.00    -0.049 Br
ATOM     27  C   UNL     1      35.260 -20.967 -19.914  0.00  0.00    -0.024 C 
ATOM     28  C   UNL     1      33.882 -21.112 -19.873  0.00  0.00    -0.004 C 
ATOM     29  C   UNL     1      36.084 -21.654 -19.038  0.00  0.00    -0.004 C 
ATOM     30  C   UNL     1      33.313 -21.968 -18.930  0.00  0.00    +0.006 C 
ATOM     31  C   UNL     1      35.515 -22.510 -18.095  0.00  0.00    +0.006 C 
ATOM     32  C   UNL     1      34.130 -22.668 -18.041  0.00  0.00    +0.035 C 
ENDBRANCH  25  27
ENDBRANCH  20  25
ENDBRANCH  19  20
ENDBRANCH  18  19
ENDBRANCH   3  18
TORSDOF 7
ENDMDL
MODEL 2
REMARK VINA RESULT:     -11.2      0.950      1.783
REMARK  Name = 16122642
REMARK  7 active torsions:
REMARK  status: ('A' for Active; 'I' for Inactive)
REMARK    1  A    between atoms: C_2  and  C_10
REMARK    2  A    between atoms: C_3  and  O_18
REMARK    3  A    between atoms: O_18  and  C_19
REMARK    4  A    between atoms: C_19  and  C_20
REMARK    5  A    between atoms: C_20  and  N_21
REMARK    6  A    between atoms: C_20  and  C_25
REMARK    7  A    between atoms: C_25  and  C_27
REMARK                            x       y       z     vdW  Elec       q    Type
REMARK                         _______ _______ _______ _____ _____    ______ ____
ROOT
ATOM      1  N   UNL     1      33.410 -15.029 -25.591  0.00  0.00    -0.239 NA
ATOM      2  C   UNL     1      33.305 -14.291 -23.298  0.00  0.00    +0.022 C 
ATOM      3  C   UNL     1      34.575 -16.248 -23.859  0.00  0.00    +0.158 C 
ATOM      4  C   UNL     1      34.115 -15.346 -22.906  0.00  0.00    +0.040 C 
ATOM      5  C   UNL     1      32.983 -14.172 -24.636  0.00  0.00    +0.099 C 
ATOM      6  C   UNL     1      34.198 -16.046 -25.177  0.00  0.00    +0.136 C 
ENDROOT
BRANCH   2  10
ATOM      7  N   UNL     1      31.569  -9.530 -20.479  0.00  0.00    -0.280 N 
ATOM      8  N   UNL     1      31.428 -10.578 -19.644  0.00  0.00    -0.173 NA
ATOM      9  C   UNL     1      32.250 -11.196 -21.670  0.00  0.00    +0.032 A 
ATOM     10  C   UNL     1      32.810 -13.333 -22.326  0.00  0.00    +0.002 C 
ATOM     11  C   UNL     1      31.845 -11.639 -20.357  0.00  0.00    +0.102 A 
ATOM     12  C   UNL     1      32.742 -11.979 -22.707  0.00  0.00    +0.003 C 
ATOM     13  C   UNL     1      32.060  -9.844 -21.712  0.00  0.00    +0.053 A 
ATOM     14  C   UNL     1      32.421 -13.823 -21.040  0.00  0.00    +0.002 C 
ATOM     15  C   UNL     1      31.924 -13.000 -20.006  0.00  0.00    +0.021 C 
ATOM     16  C   UNL     1      32.278  -8.822 -22.750  0.00  0.00    +0.051 C 
ATOM     17  H   UNL     1      31.337  -8.610 -20.219  0.00  0.00    +0.189 HD
ENDBRANCH   2  10
BRANCH   3  18
ATOM     18  O   UNL     1      35.368 -17.290 -23.510  0.00  0.00    -0.476 OA
BRANCH  18  19
ATOM     19  C   UNL     1      35.359 -17.689 -22.137  0.00  0.00    +0.184 C 
BRANCH  19  20
ATOM     20  C   UNL     1      34.965 -19.167 -22.016  0.00  0.00    -0.017 C 
BRANCH  20  21
ATOM     21  N   UNL     1      34.951 -19.752 -23.359  0.00  0.00    +0.384 N 
ATOM     22  H   UNL     1      35.695 -20.445 -23.436  0.00  0.00    -0.089 HD
ATOM     23  H   UNL     1      35.098 -19.018 -24.052  0.00  0.00    -0.089 HD
ATOM     24  H   UNL     1      34.050 -20.201 -23.525  0.00  0.00    -0.089 HD
ENDBRANCH  20  21
BRANCH  20  25
ATOM     25  C   UNL     1      35.940 -19.985 -21.142  0.00  0.00    +0.008 C 
BRANCH  25  27
ATOM     26 BR   UNL     1      33.221 -23.625 -16.966  0.00  0.00    -0.049 Br
ATOM     27  C   UNL     1      35.274 -20.876 -20.121  0.00  0.00    -0.024 C 
ATOM     28  C   UNL     1      33.890 -20.905 -20.044  0.00  0.00    -0.004 C 
ATOM     29  C   UNL     1      36.059 -21.647 -19.280  0.00  0.00    -0.004 C 
ATOM     30  C   UNL     1      33.276 -21.728 -19.100  0.00  0.00    +0.006 C 
ATOM     31  C   UNL     1      35.445 -22.469 -18.336  0.00  0.00    +0.006 C 
ATOM     32  C   UNL     1      34.054 -22.510 -18.246  0.00  0.00    +0.035 C 
ENDBRANCH  25  27
ENDBRANCH  20  25
ENDBRANCH  19  20
ENDBRANCH  18  19
ENDBRANCH   3  18
TORSDOF 7
ENDMDL
MODEL 3
REMARK VINA RESULT:     -11.2      5.771     12.131
REMARK  Name = 16122642
REMARK  7 active torsions:
REMARK  status: ('A' for Active; 'I' for Inactive)
REMARK    1  A    between atoms: C_2  and  C_10
REMARK    2  A    between atoms: C_3  and  O_18
REMARK    3  A    between atoms: O_18  and  C_19
REMARK    4  A    between atoms: C_19  and  C_20
REMARK    5  A    between atoms: C_20  and  N_21
REMARK    6  A    between atoms: C_20  and  C_25
REMARK    7  A    between atoms: C_25  and  C_27
REMARK                            x       y       z     vdW  Elec       q    Type
REMARK                         _______ _______ _______ _____ _____    ______ ____
ROOT
ATOM      1  N   UNL     1      31.515 -23.740 -15.192  0.00  0.00    -0.239 NA
ATOM      2  C   UNL     1      33.926 -23.703 -15.183  0.00  0.00    +0.022 C 
ATOM      3  C   UNL     1      32.736 -23.107 -17.180  0.00  0.00    +0.158 C 
ATOM      4  C   UNL     1      33.940 -23.294 -16.508  0.00  0.00    +0.040 C 
ATOM      5  C   UNL     1      32.705 -23.911 -14.572  0.00  0.00    +0.099 C 
ATOM      6  C   UNL     1      31.562 -23.341 -16.482  0.00  0.00    +0.136 C 
ENDROOT
BRANCH   2  10
ATOM      7  N   UNL     1      37.993 -24.628 -11.153  0.00  0.00    -0.280 N 
ATOM      8  N   UNL     1      38.613 -24.484 -12.340  0.00  0.00    -0.173 NA
ATOM      9  C   UNL     1      36.357 -24.295 -12.521  0.00  0.00    +0.032 A 
ATOM     10  C   UNL     1      35.166 -23.906 -14.456  0.00  0.00    +0.002 C 
ATOM     11  C   UNL     1      37.619 -24.274 -13.221  0.00  0.00    +0.102 A 
ATOM     12  C   UNL     1      35.091 -24.120 -13.065  0.00  0.00    +0.003 C 
ATOM     13  C   UNL     1      36.633 -24.524 -11.203  0.00  0.00    +0.053 A 
ATOM     14  C   UNL     1      36.390 -23.876 -15.195  0.00  0.00    +0.002 C 
ATOM     15  C   UNL     1      37.663 -24.058 -14.611  0.00  0.00    +0.021 C 
ATOM     16  C   UNL     1      35.795 -24.656 -10.000  0.00  0.00    +0.051 C 
ATOM     17  H   UNL     1      38.481 -24.794 -10.315  0.00  0.00    +0.189 HD
ENDBRANCH   2  10
BRANCH   3  18
ATOM     18  O   UNL     1      32.713 -22.708 -18.475  0.00  0.00    -0.476 OA
BRANCH  18  19
ATOM     19  C   UNL     1      33.971 -22.465 -19.108  0.00  0.00    +0.184 C 
BRANCH  19  20
ATOM     20  C   UNL     1      33.825 -21.381 -20.184  0.00  0.00    -0.017 C 
BRANCH  20  21
ATOM     21  N   UNL     1      32.667 -20.548 -19.844  0.00  0.00    +0.384 N 
ATOM     22  H   UNL     1      32.076 -21.044 -19.178  0.00  0.00    -0.089 HD
ATOM     23  H   UNL     1      32.133 -20.348 -20.690  0.00  0.00    -0.089 HD
ATOM     24  H   UNL     1      32.988 -19.673 -19.429  0.00  0.00    -0.089 HD
ENDBRANCH  20  21
BRANCH  20  25
ATOM     25  C   UNL     1      35.063 -20.467 -20.296  0.00  0.00    +0.008 C 
BRANCH  25  27
ATOM     26 BR   UNL     1      34.806 -16.348 -24.884  0.00  0.00    -0.049 Br
ATOM     27  C   UNL     1      35.001 -19.459 -21.418  0.00  0.00    -0.024 C 
ATOM     28  C   UNL     1      35.141 -18.110 -21.129  0.00  0.00    -0.004 C 
ATOM     29  C   UNL     1      34.804 -19.901 -22.716  0.00  0.00    -0.004 C 
ATOM     30  C   UNL     1      35.083 -17.180 -22.167  0.00  0.00    +0.006 C 
ATOM     31  C   UNL     1      34.746 -18.970 -23.753  0.00  0.00    +0.006 C 
ATOM     32  C   UNL     1      34.886 -17.610 -23.479  0.00  0.00    +0.035 C 
ENDBRANCH  25  27
ENDBRANCH  20  25
ENDBRANCH  19  20
ENDBRANCH  18  19
ENDBRANCH   3  18
TORSDOF 7
ENDMDL
MODEL 4
REMARK VINA RESULT:     -11.1      5.399     12.105
REMARK  Name = 16122642
REMARK  7 active torsions:
REMARK  status: ('A' for Active; 'I' for Inactive)
REMARK    1  A    between atoms: C_2  and  C_10
REMARK    2  A    between atoms: C_3  and  O_18
REMARK    3  A    between atoms: O_18  and  C_19
REMARK    4  A    between atoms: C_19  and  C_20
REMARK    5  A    between atoms: C_20  and  N_21
REMARK    6  A    between atoms: C_20  and  C_25
REMARK    7  A    between atoms: C_25  and  C_27
REMARK                            x       y       z     vdW  Elec       q    Type
REMARK                         _______ _______ _______ _____ _____    ______ ____
ROOT
ATOM      1  N   UNL     1      32.974 -23.178 -18.028  0.00  0.00    -0.239 NA
ATOM      2  C   UNL     1      34.688 -23.476 -16.358  0.00  0.00    +0.022 C 
ATOM      3  C   UNL     1      35.140 -22.140 -18.299  0.00  0.00    +0.158 C 
ATOM      4  C   UNL     1      35.561 -22.687 -17.092  0.00  0.00    +0.040 C 
ATOM      5  C   UNL     1      33.418 -23.692 -16.858  0.00  0.00    +0.099 C 
ATOM      6  C   UNL     1      33.848 -22.413 -18.719  0.00  0.00    +0.136 C 
ENDROOT
BRANCH   2  10
ATOM      7  N   UNL     1      37.568 -26.001 -12.003  0.00  0.00    -0.280 N 
ATOM      8  N   UNL     1      36.325 -25.718 -11.567  0.00  0.00    -0.173 NA
ATOM      9  C   UNL     1      36.646 -25.079 -13.723  0.00  0.00    +0.032 A 
ATOM     10  C   UNL     1      35.098 -24.060 -15.094  0.00  0.00    +0.002 C 
ATOM     11  C   UNL     1      35.719 -25.139 -12.618  0.00  0.00    +0.102 A 
ATOM     12  C   UNL     1      36.412 -24.556 -14.989  0.00  0.00    +0.003 C 
ATOM     13  C   UNL     1      37.816 -25.638 -13.295  0.00  0.00    +0.053 A 
ATOM     14  C   UNL     1      34.143 -24.096 -14.030  0.00  0.00    +0.002 C 
ATOM     15  C   UNL     1      34.412 -24.635 -12.753  0.00  0.00    +0.021 C 
ATOM     16  C   UNL     1      39.122 -25.870 -13.935  0.00  0.00    +0.051 C 
ATOM     17  H   UNL     1      38.244 -26.436 -11.436  0.00  0.00    +0.189 HD
ENDBRANCH   2  10
BRANCH   3  18
ATOM     18  O   UNL     1      35.968 -21.364 -19.041  0.00  0.00    -0.476 OA
BRANCH  18  19
ATOM     19  C   UNL     1      35.506 -20.962 -20.333  0.00  0.00    +0.184 C 
BRANCH  19  20
ATOM     20  C   UNL     1      35.950 -19.525 -20.632  0.00  0.00    -0.017 C 
BRANCH  20  21
ATOM     21  N   UNL     1      37.370 -19.400 -20.290  0.00  0.00    +0.384 N 
ATOM     22  H   UNL     1      37.515 -18.548 -19.749  0.00  0.00    -0.089 HD
ATOM     23  H   UNL     1      37.924 -19.358 -21.145  0.00  0.00    -0.089 HD
ATOM     24  H   UNL     1      37.659 -20.207 -19.737  0.00  0.00    -0.089 HD
ENDBRANCH  20  21
BRANCH  20  25
ATOM     25  C   UNL     1      35.774 -19.132 -22.114  0.00  0.00    +0.008 C 
BRANCH  25  27
ATOM     26 BR   UNL     1      33.702 -13.391 -23.027  0.00  0.00    -0.049 Br
ATOM     27  C   UNL     1      35.267 -17.727 -22.337  0.00  0.00    -0.024 C 
ATOM     28  C   UNL     1      34.928 -16.946 -21.244  0.00  0.00    -0.004 C 
ATOM     29  C   UNL     1      35.151 -17.246 -23.630  0.00  0.00    -0.004 C 
ATOM     30  C   UNL     1      34.459 -15.648 -21.450  0.00  0.00    +0.006 C 
ATOM     31  C   UNL     1      34.682 -15.949 -23.837  0.00  0.00    +0.006 C 
ATOM     32  C   UNL     1      34.337 -15.150 -22.747  0.00  0.00    +0.035 C 
ENDBRANCH  25  27
ENDBRANCH  20  25
ENDBRANCH  19  20
ENDBRANCH  18  19
ENDBRANCH   3  18
TORSDOF 7
ENDMDL
MODEL 5
REMARK VINA RESULT:     -11.0      3.668      6.952
REMARK  Name = 16122642
REMARK  7 active torsions:
REMARK  status: ('A' for Active; 'I' for Inactive)
REMARK    1  A    between atoms: C_2  and  C_10
REMARK    2  A    between atoms: C_3  and  O_18
REMARK    3  A    between atoms: O_18  and  C_19
REMARK    4  A    between atoms: C_19  and  C_20
REMARK    5  A    between atoms: C_20  and  N_21
REMARK    6  A    between atoms: C_20  and  C_25
REMARK    7  A    between atoms: C_25  and  C_27
REMARK                            x       y       z     vdW  Elec       q    Type
REMARK                         _______ _______ _______ _____ _____    ______ ____
ROOT
ATOM      1  N   UNL     1      32.989 -21.986 -19.290  0.00  0.00    -0.239 NA
ATOM      2  C   UNL     1      34.479 -20.472 -20.432  0.00  0.00    +0.022 C 
ATOM      3  C   UNL     1      35.360 -22.013 -18.818  0.00  0.00    +0.158 C 
ATOM      4  C   UNL     1      35.562 -20.991 -19.740  0.00  0.00    +0.040 C 
ATOM      5  C   UNL     1      33.225 -20.995 -20.179  0.00  0.00    +0.099 C 
ATOM      6  C   UNL     1      34.065 -22.471 -18.632  0.00  0.00    +0.136 C 
ENDROOT
BRANCH   2  10
ATOM      7  N   UNL     1      34.932 -15.377 -23.165  0.00  0.00    -0.280 N 
ATOM      8  N   UNL     1      35.148 -16.351 -24.070  0.00  0.00    -0.173 NA
ATOM      9  C   UNL     1      34.728 -17.181 -21.997  0.00  0.00    +0.032 A 
ATOM     10  C   UNL     1      34.658 -19.406 -21.401  0.00  0.00    +0.002 C 
ATOM     11  C   UNL     1      35.029 -17.495 -23.373  0.00  0.00    +0.102 A 
ATOM     12  C   UNL     1      34.530 -18.076 -20.954  0.00  0.00    +0.003 C 
ATOM     13  C   UNL     1      34.674 -15.819 -21.900  0.00  0.00    +0.053 A 
ATOM     14  C   UNL     1      34.954 -19.770 -22.752  0.00  0.00    +0.002 C 
ATOM     15  C   UNL     1      35.152 -18.834 -23.791  0.00  0.00    +0.021 C 
ATOM     16  C   UNL     1      34.415 -14.892 -20.786  0.00  0.00    +0.051 C 
ATOM     17  H   UNL     1      34.957 -14.422 -23.398  0.00  0.00    +0.189 HD
ENDBRANCH   2  10
BRANCH   3  18
ATOM     18  O   UNL     1      36.397 -22.543 -18.124  0.00  0.00    -0.476 OA
BRANCH  18  19
ATOM     19  C   UNL     1      36.468 -22.251 -16.727  0.00  0.00    +0.184 C 
BRANCH  19  20
ATOM     20  C   UNL     1      36.050 -23.476 -15.905  0.00  0.00    -0.017 C 
BRANCH  20  21
ATOM     21  N   UNL     1      37.262 -24.183 -15.481  0.00  0.00    +0.384 N 
ATOM     22  H   UNL     1      38.046 -23.532 -15.461  0.00  0.00    -0.089 HD
ATOM     23  H   UNL     1      37.463 -24.937 -16.139  0.00  0.00    -0.089 HD
ATOM     24  H   UNL     1      37.120 -24.574 -14.550  0.00  0.00    -0.089 HD
ENDBRANCH  20  21
BRANCH  20  25
ATOM     25  C   UNL     1      35.236 -23.113 -14.645  0.00  0.00    +0.008 C 
BRANCH  25  27
ATOM     26 BR   UNL     1      29.575 -25.560 -14.447  0.00  0.00    -0.049 Br
ATOM     27  C   UNL     1      33.851 -23.711 -14.595  0.00  0.00    -0.024 C 
ATOM     28  C   UNL     1      33.532 -24.602 -13.583  0.00  0.00    -0.004 C 
ATOM     29  C   UNL     1      32.926 -23.359 -15.564  0.00  0.00    -0.004 C 
ATOM     30  C   UNL     1      32.252 -25.155 -13.539  0.00  0.00    +0.006 C 
ATOM     31  C   UNL     1      31.646 -23.912 -15.519  0.00  0.00    +0.006 C 
ATOM     32  C   UNL     1      31.309 -24.810 -14.507  0.00  0.00    +0.035 C 
ENDBRANCH  25  27
ENDBRANCH  20  25
ENDBRANCH  19  20
ENDBRANCH  18  19
ENDBRANCH   3  18
TORSDOF 7
ENDMDL
MODEL 6
REMARK VINA RESULT:     -10.9      3.653      6.863
REMARK  Name = 16122642
REMARK  7 active torsions:
REMARK  status: ('A' for Active; 'I' for Inactive)
REMARK    1  A    between atoms: C_2  and  C_10
REMARK    2  A    between atoms: C_3  and  O_18
REMARK    3  A    between atoms: O_18  and  C_19
REMARK    4  A    between atoms: C_19  and  C_20
REMARK    5  A    between atoms: C_20  and  N_21
REMARK    6  A    between atoms: C_20  and  C_25
REMARK    7  A    between atoms: C_25  and  C_27
REMARK                            x       y       z     vdW  Elec       q    Type
REMARK                         _______ _______ _______ _____ _____    ______ ____
ROOT
ATOM      1  N   UNL     1      36.501 -21.561 -19.020  0.00  0.00    -0.239 NA
ATOM      2  C   UNL     1      35.120 -20.272 -20.518  0.00  0.00    +0.022 C 
ATOM      3  C   UNL     1      34.123 -21.975 -19.153  0.00  0.00    +0.158 C 
ATOM      4  C   UNL     1      33.996 -20.975 -20.111  0.00  0.00    +0.040 C 
ATOM      5  C   UNL     1      36.338 -20.595 -19.952  0.00  0.00    +0.099 C 
ATOM      6  C   UNL     1      35.387 -22.227 -18.643  0.00  0.00    +0.136 C 
ENDROOT
BRANCH   2  10
ATOM      7  N   UNL     1      34.605 -15.233 -23.343  0.00  0.00    -0.280 N 
ATOM      8  N   UNL     1      34.725 -16.211 -24.262  0.00  0.00    -0.173 NA
ATOM      9  C   UNL     1      34.783 -17.015 -22.138  0.00  0.00    +0.032 A 
ATOM     10  C   UNL     1      35.018 -19.222 -21.515  0.00  0.00    +0.002 C 
ATOM     11  C   UNL     1      34.840 -17.342 -23.543  0.00  0.00    +0.102 A 
ATOM     12  C   UNL     1      34.866 -17.895 -21.066  0.00  0.00    +0.003 C 
ATOM     13  C   UNL     1      34.633 -15.661 -22.048  0.00  0.00    +0.053 A 
ATOM     14  C   UNL     1      35.079 -19.597 -22.894  0.00  0.00    +0.002 C 
ATOM     15  C   UNL     1      34.993 -18.677 -23.961  0.00  0.00    +0.021 C 
ATOM     16  C   UNL     1      34.515 -14.727 -20.915  0.00  0.00    +0.051 C 
ATOM     17  H   UNL     1      34.503 -14.286 -23.587  0.00  0.00    +0.189 HD
ENDBRANCH   2  10
BRANCH   3  18
ATOM     18  O   UNL     1      33.045 -22.681 -18.732  0.00  0.00    -0.476 OA
BRANCH  18  19
ATOM     19  C   UNL     1      33.235 -23.573 -17.632  0.00  0.00    +0.184 C 
BRANCH  19  20
ATOM     20  C   UNL     1      32.595 -22.996 -16.363  0.00  0.00    -0.017 C 
BRANCH  20  21
ATOM     21  N   UNL     1      31.138 -23.036 -16.521  0.00  0.00    +0.384 N 
ATOM     22  H   UNL     1      30.795 -23.962 -16.267  0.00  0.00    -0.089 HD
ATOM     23  H   UNL     1      30.896 -22.839 -17.492  0.00  0.00    -0.089 HD
ATOM     24  H   UNL     1      30.711 -22.336 -15.914  0.00  0.00    -0.089 HD
ENDBRANCH  20  21
BRANCH  20  25
ATOM     25  C   UNL     1      32.965 -23.781 -15.086  0.00  0.00    +0.008 C 
BRANCH  25  27
ATOM     26 BR   UNL     1      38.978 -25.029 -14.485  0.00  0.00    -0.049 Br
ATOM     27  C   UNL     1      34.436 -24.085 -14.939  0.00  0.00    -0.024 C 
ATOM     28  C   UNL     1      35.353 -23.046 -14.975  0.00  0.00    -0.004 C 
ATOM     29  C   UNL     1      34.843 -25.398 -14.770  0.00  0.00    -0.004 C 
ATOM     30  C   UNL     1      36.712 -23.328 -14.840  0.00  0.00    +0.006 C 
ATOM     31  C   UNL     1      36.202 -25.681 -14.635  0.00  0.00    +0.006 C 
ATOM     32  C   UNL     1      37.136 -24.646 -14.669  0.00  0.00    +0.035 C 
ENDBRANCH  25  27
ENDBRANCH  20  25
ENDBRANCH  19  20
ENDBRANCH  18  19
ENDBRANCH   3  18
TORSDOF 7
ENDMDL
MODEL 7
REMARK VINA RESULT:     -10.9      4.540     10.815
REMARK  Name = 16122642
REMARK  7 active torsions:
REMARK  status: ('A' for Active; 'I' for Inactive)
REMARK    1  A    between atoms: C_2  and  C_10
REMARK    2  A    between atoms: C_3  and  O_18
REMARK    3  A    between atoms: O_18  and  C_19
REMARK    4  A    between atoms: C_19  and  C_20
REMARK    5  A    between atoms: C_20  and  N_21
REMARK    6  A    between atoms: C_20  and  C_25
REMARK    7  A    between atoms: C_25  and  C_27
REMARK                            x       y       z     vdW  Elec       q    Type
REMARK                         _______ _______ _______ _____ _____    ______ ____
ROOT
ATOM      1  N   UNL     1      32.938 -22.165 -19.116  0.00  0.00    -0.239 NA
ATOM      2  C   UNL     1      35.038 -22.297 -17.938  0.00  0.00    +0.022 C 
ATOM      3  C   UNL     1      34.929 -21.155 -20.045  0.00  0.00    +0.158 C 
ATOM      4  C   UNL     1      35.666 -21.582 -18.946  0.00  0.00    +0.040 C 
ATOM      5  C   UNL     1      33.687 -22.562 -18.063  0.00  0.00    +0.099 C 
ATOM      6  C   UNL     1      33.579 -21.470 -20.081  0.00  0.00    +0.136 C 
ENDROOT
BRANCH   2  10
ATOM      7  N   UNL     1      36.695 -24.460 -12.818  0.00  0.00    -0.280 N 
ATOM      8  N   UNL     1      37.802 -24.066 -13.478  0.00  0.00    -0.173 NA
ATOM      9  C   UNL     1      35.909 -23.691 -14.675  0.00  0.00    +0.032 A 
ATOM     10  C   UNL     1      35.780 -22.756 -16.778  0.00  0.00    +0.002 C 
ATOM     11  C   UNL     1      37.347 -23.580 -14.646  0.00  0.00    +0.102 A 
ATOM     12  C   UNL     1      35.056 -23.304 -15.701  0.00  0.00    +0.003 C 
ATOM     13  C   UNL     1      35.527 -24.258 -13.492  0.00  0.00    +0.053 A 
ATOM     14  C   UNL     1      37.204 -22.623 -16.798  0.00  0.00    +0.002 C 
ATOM     15  C   UNL     1      38.044 -23.028 -15.737  0.00  0.00    +0.021 C 
ATOM     16  C   UNL     1      34.221 -24.630 -12.921  0.00  0.00    +0.051 C 
ATOM     17  H   UNL     1      36.727 -24.861 -11.920  0.00  0.00    +0.189 HD
ENDBRANCH   2  10
BRANCH   3  18
ATOM     18  O   UNL     1      35.511 -20.454 -21.047  0.00  0.00    -0.476 OA
BRANCH  18  19
ATOM     19  C   UNL     1      34.804 -19.318 -21.550  0.00  0.00    +0.184 C 
BRANCH  19  20
ATOM     20  C   UNL     1      35.746 -18.112 -21.661  0.00  0.00    -0.017 C 
BRANCH  20  21
ATOM     21  N   UNL     1      37.067 -18.595 -22.072  0.00  0.00    +0.384 N 
ATOM     22  H   UNL     1      37.214 -19.535 -21.706  0.00  0.00    -0.089 HD
ATOM     23  H   UNL     1      37.786 -17.971 -21.704  0.00  0.00    -0.089 HD
ATOM     24  H   UNL     1      37.121 -18.613 -23.090  0.00  0.00    -0.089 HD
ENDBRANCH  20  21
BRANCH  20  25
ATOM     25  C   UNL     1      35.272 -17.064 -22.690  0.00  0.00    +0.008 C 
BRANCH  25  27
ATOM     26 BR   UNL     1      31.782 -12.549 -20.343  0.00  0.00    -0.049 Br
ATOM     27  C   UNL     1      34.417 -15.960 -22.117  0.00  0.00    -0.024 C 
ATOM     28  C   UNL     1      33.829 -15.042 -22.972  0.00  0.00    -0.004 C 
ATOM     29  C   UNL     1      34.238 -15.885 -20.746  0.00  0.00    -0.004 C 
ATOM     30  C   UNL     1      33.041 -14.021 -22.442  0.00  0.00    +0.006 C 
ATOM     31  C   UNL     1      33.449 -14.864 -20.215  0.00  0.00    +0.006 C 
ATOM     32  C   UNL     1      32.850 -13.933 -21.063  0.00  0.00    +0.035 C 
ENDBRANCH  25  27
ENDBRANCH  20  25
ENDBRANCH  19  20
ENDBRANCH  18  19
ENDBRANCH   3  18
TORSDOF 7
ENDMDL
MODEL 8
REMARK VINA RESULT:     -10.8      5.141     11.426
REMARK  Name = 16122642
REMARK  7 active torsions:
REMARK  status: ('A' for Active; 'I' for Inactive)
REMARK    1  A    between atoms: C_2  and  C_10
REMARK    2  A    between atoms: C_3  and  O_18
REMARK    3  A    between atoms: O_18  and  C_19
REMARK    4  A    between atoms: C_19  and  C_20
REMARK    5  A    between atoms: C_20  and  N_21
REMARK    6  A    between atoms: C_20  and  C_25
REMARK    7  A    between atoms: C_25  and  C_27
REMARK                            x       y       z     vdW  Elec       q    Type
REMARK                         _______ _______ _______ _____ _____    ______ ____
ROOT
ATOM      1  N   UNL     1      37.197 -22.387 -16.596  0.00  0.00    -0.239 NA
ATOM      2  C   UNL     1      34.941 -23.151 -16.217  0.00  0.00    +0.022 C 
ATOM      3  C   UNL     1      35.535 -22.208 -18.342  0.00  0.00    +0.158 C 
ATOM      4  C   UNL     1      34.583 -22.778 -17.504  0.00  0.00    +0.040 C 
ATOM      5  C   UNL     1      36.245 -22.939 -15.811  0.00  0.00    +0.099 C 
ATOM      6  C   UNL     1      36.817 -22.036 -17.844  0.00  0.00    +0.136 C 
ENDROOT
BRANCH   2  10
ATOM      7  N   UNL     1      30.127 -25.070 -13.614  0.00  0.00    -0.280 N 
ATOM      8  N   UNL     1      31.178 -25.410 -12.842  0.00  0.00    -0.173 NA
ATOM      9  C   UNL     1      31.813 -24.291 -14.714  0.00  0.00    +0.032 A 
ATOM     10  C   UNL     1      33.971 -23.749 -15.320  0.00  0.00    +0.002 C 
ATOM     11  C   UNL     1      32.251 -24.939 -13.501  0.00  0.00    +0.102 A 
ATOM     12  C   UNL     1      32.608 -23.675 -15.672  0.00  0.00    +0.003 C 
ATOM     13  C   UNL     1      30.452 -24.394 -14.754  0.00  0.00    +0.053 A 
ATOM     14  C   UNL     1      34.455 -24.379 -14.130  0.00  0.00    +0.002 C 
ATOM     15  C   UNL     1      33.619 -24.998 -13.175  0.00  0.00    +0.021 C 
ATOM     16  C   UNL     1      29.429 -23.945 -15.714  0.00  0.00    +0.051 C 
ATOM     17  H   UNL     1      29.199 -25.290 -13.374  0.00  0.00    +0.189 HD
ENDBRANCH   2  10
BRANCH   3  18
ATOM     18  O   UNL     1      35.219 -21.833 -19.605  0.00  0.00    -0.476 OA
BRANCH  18  19
ATOM     19  C   UNL     1      36.096 -20.909 -20.254  0.00  0.00    +0.184 C 
BRANCH  19  20
ATOM     20  C   UNL     1      35.296 -19.964 -21.160  0.00  0.00    -0.017 C 
BRANCH  20  21
ATOM     21  N   UNL     1      33.934 -19.860 -20.630  0.00  0.00    +0.384 N 
ATOM     22  H   UNL     1      33.277 -20.258 -21.300  0.00  0.00    -0.089 HD
ATOM     23  H   UNL     1      33.704 -18.879 -20.472  0.00  0.00    -0.089 HD
ATOM     24  H   UNL     1      33.872 -20.370 -19.748  0.00  0.00    -0.089 HD
ENDBRANCH  20  21
BRANCH  20  25
ATOM     25  C   UNL     1      35.896 -18.543 -21.234  0.00  0.00    +0.008 C 
BRANCH  25  27
ATOM     26 BR   UNL     1      33.460 -14.951 -25.620  0.00  0.00    -0.049 Br
ATOM     27  C   UNL     1      35.301 -17.664 -22.306  0.00  0.00    -0.024 C 
ATOM     28  C   UNL     1      34.943 -16.361 -21.996  0.00  0.00    -0.004 C 
ATOM     29  C   UNL     1      35.123 -18.176 -23.581  0.00  0.00    -0.004 C 
ATOM     30  C   UNL     1      34.392 -15.550 -22.988  0.00  0.00    +0.006 C 
ATOM     31  C   UNL     1      34.572 -17.364 -24.573  0.00  0.00    +0.006 C 
ATOM     32  C   UNL     1      34.208 -16.051 -24.276  0.00  0.00    +0.035 C 
ENDBRANCH  25  27
ENDBRANCH  20  25
ENDBRANCH  19  20
ENDBRANCH  18  19
ENDBRANCH   3  18
TORSDOF 7
ENDMDL
MODEL 9
REMARK VINA RESULT:     -10.6      4.095      9.363
REMARK  Name = 16122642
REMARK  7 active torsions:
REMARK  status: ('A' for Active; 'I' for Inactive)
REMARK    1  A    between atoms: C_2  and  C_10
REMARK    2  A    between atoms: C_3  and  O_18
REMARK    3  A    between atoms: O_18  and  C_19
REMARK    4  A    between atoms: C_19  and  C_20
REMARK    5  A    between atoms: C_20  and  N_21
REMARK    6  A    between atoms: C_20  and  C_25
REMARK    7  A    between atoms: C_25  and  C_27
REMARK                            x       y       z     vdW  Elec       q    Type
REMARK                         _______ _______ _______ _____ _____    ______ ____
ROOT
ATOM      1  N   UNL     1      34.531 -16.697 -24.821  0.00  0.00    -0.239 NA
ATOM      2  C   UNL     1      35.021 -17.486 -22.595  0.00  0.00    +0.022 C 
ATOM      3  C   UNL     1      34.258 -15.234 -22.916  0.00  0.00    +0.158 C 
ATOM      4  C   UNL     1      34.677 -16.251 -22.066  0.00  0.00    +0.040 C 
ATOM      5  C   UNL     1      34.933 -17.662 -23.963  0.00  0.00    +0.099 C 
ATOM      6  C   UNL     1      34.202 -15.506 -24.274  0.00  0.00    +0.136 C 
ENDROOT
BRANCH   2  10
ATOM      7  N   UNL     1      35.372 -22.068 -19.058  0.00  0.00    -0.280 N 
ATOM      8  N   UNL     1      36.625 -21.632 -19.294  0.00  0.00    -0.173 NA
ATOM      9  C   UNL     1      35.063 -20.383 -20.372  0.00  0.00    +0.032 A 
ATOM     10  C   UNL     1      35.462 -18.567 -21.733  0.00  0.00    +0.002 C 
ATOM     11  C   UNL     1      36.470 -20.578 -20.115  0.00  0.00    +0.102 A 
ATOM     12  C   UNL     1      34.481 -19.405 -21.167  0.00  0.00    +0.003 C 
ATOM     13  C   UNL     1      34.392 -21.353 -19.681  0.00  0.00    +0.053 A 
ATOM     14  C   UNL     1      36.867 -18.718 -21.510  0.00  0.00    +0.002 C 
ATOM     15  C   UNL     1      37.427 -19.725 -20.694  0.00  0.00    +0.021 C 
ATOM     16  C   UNL     1      32.966 -21.690 -19.534  0.00  0.00    +0.051 C 
ATOM     17  H   UNL     1      35.180 -22.840 -18.480  0.00  0.00    +0.189 HD
ENDBRANCH   2  10
BRANCH   3  18
ATOM     18  O   UNL     1      33.914 -14.016 -22.432  0.00  0.00    -0.476 OA
BRANCH  18  19
ATOM     19  C   UNL     1      33.804 -13.881 -21.014  0.00  0.00    +0.184 C 
BRANCH  19  20
ATOM     20  C   UNL     1      32.331 -13.929 -20.588  0.00  0.00    -0.017 C 
BRANCH  20  21
ATOM     21  N   UNL     1      32.071 -15.232 -19.970  0.00  0.00    +0.384 N 
ATOM     22  H   UNL     1      31.922 -15.110 -18.969  0.00  0.00    -0.089 HD
ATOM     23  H   UNL     1      32.872 -15.846 -20.121  0.00  0.00    -0.089 HD
ATOM     24  H   UNL     1      31.240 -15.648 -20.389  0.00  0.00    -0.089 HD
ENDBRANCH  20  21
BRANCH  20  25
ATOM     25  C   UNL     1      31.957 -12.828 -19.572  0.00  0.00    +0.008 C 
BRANCH  25  27
ATOM     26 BR   UNL     1      31.709  -7.129 -21.924  0.00  0.00    -0.049 Br
ATOM     27  C   UNL     1      31.895 -11.435 -20.148  0.00  0.00    -0.024 C 
ATOM     28  C   UNL     1      31.679 -11.269 -21.507  0.00  0.00    -0.004 C 
ATOM     29  C   UNL     1      32.058 -10.346 -19.307  0.00  0.00    -0.004 C 
ATOM     30  C   UNL     1      31.623  -9.981 -22.038  0.00  0.00    +0.006 C 
ATOM     31  C   UNL     1      32.002  -9.058 -19.838  0.00  0.00    +0.006 C 
ATOM     32  C   UNL     1      31.784  -8.875 -21.203  0.00  0.00    +0.035 C 
ENDBRANCH  25  27
ENDBRANCH  20  25
ENDBRANCH  19  20
ENDBRANCH  18  19
ENDBRANCH   3  18
TORSDOF 7
ENDMDL
