MODEL 1
REMARK VINA RESULT:     -11.5      0.000      0.000
REMARK  Name = 9804992
REMARK  10 active torsions:
REMARK  status: ('A' for Active; 'I' for Inactive)
REMARK    1  A    between atoms: C_1  and  C_9
REMARK    2  A    between atoms: C_1  and  O_19
REMARK    3  A    between atoms: C_2  and  C_12
REMARK    4  A    between atoms: C_12  and  N_13
REMARK    5  A    between atoms: N_13  and  C_15
REMARK    6  A    between atoms: N_13  and  C_17
REMARK    7  A    between atoms: O_19  and  C_22
REMARK    8  A    between atoms: N_21  and  C_24
REMARK    9  A    between atoms: C_27  and  C_32
REMARK   10  A    between atoms: N_31  and  O_34
REMARK                            x       y       z     vdW  Elec       q    Type
REMARK                         _______ _______ _______ _____ _____    ______ ____
ROOT
ATOM      1  C   UNL     1      35.475 -20.991 -20.267  0.00  0.00    +0.237 C 
ENDROOT
BRANCH   1   9
ATOM      2  C   UNL     1      35.919 -24.061 -14.534  0.00  0.00    -0.043 C 
ATOM      3  C   UNL     1      34.992 -23.218 -16.619  0.00  0.00    -0.000 C 
ATOM      4  C   UNL     1      36.234 -22.608 -16.916  0.00  0.00    -0.000 C 
ATOM      5  C   UNL     1      34.851 -23.941 -15.423  0.00  0.00    -0.006 C 
ATOM      6  C   UNL     1      37.140 -23.462 -14.827  0.00  0.00    -0.006 C 
ATOM      7  C   UNL     1      37.299 -22.740 -16.010  0.00  0.00    -0.000 C 
ATOM      8  C   UNL     1      36.375 -21.885 -18.112  0.00  0.00    -0.001 C 
ATOM      9  C   UNL     1      35.307 -21.764 -19.002  0.00  0.00    +0.021 C 
ATOM     10  C   UNL     1      33.928 -23.086 -17.526  0.00  0.00    -0.000 C 
ATOM     11  C   UNL     1      34.086 -22.364 -18.709  0.00  0.00    -0.001 C 
BRANCH   2  12
ATOM     12  C   UNL     1      35.751 -24.833 -13.268  0.00  0.00    -0.050 C 
BRANCH  12  13
ATOM     13  N   UNL     1      37.033 -25.177 -12.652  0.00  0.00    +0.390 N 
ATOM     14  H   UNL     1      37.780 -24.739 -13.189  0.00  0.00    -0.079 HD
BRANCH  13  15
ATOM     15  C   UNL     1      37.091 -24.669 -11.282  0.00  0.00    -0.077 C 
ATOM     16  C   UNL     1      37.318 -23.167 -11.262  0.00  0.00    -0.025 C 
ENDBRANCH  13  15
BRANCH  13  17
ATOM     17  C   UNL     1      37.236 -26.624 -12.671  0.00  0.00    -0.077 C 
ATOM     18  C   UNL     1      37.575 -27.113 -14.069  0.00  0.00    -0.025 C 
ENDBRANCH  13  17
ENDBRANCH  12  13
ENDBRANCH   2  12
ENDBRANCH   1   9
BRANCH   1  19
ATOM     19  O   UNL     1      36.644 -20.187 -20.177  0.00  0.00    -0.429 OA
BRANCH  19  22
ATOM     20  O   UNL     1      37.708 -18.802 -21.654  0.00  0.00    -0.226 OA
ATOM     21  N   UNL     1      35.486 -18.452 -21.005  0.00  0.00    -0.250 N 
ATOM     22  C   UNL     1      36.705 -19.101 -21.016  0.00  0.00    +0.406 C 
ATOM     23  H   UNL     1      34.792 -18.845 -20.426  0.00  0.00    +0.158 HD
BRANCH  21  24
ATOM     24  C   UNL     1      35.110 -17.293 -21.722  0.00  0.00    +0.053 C 
ATOM     25  C   UNL     1      34.643 -16.171 -21.037  0.00  0.00    +0.015 C 
ATOM     26  C   UNL     1      35.204 -17.272 -23.113  0.00  0.00    +0.015 C 
ATOM     27  C   UNL     1      34.365 -15.006 -23.136  0.00  0.00    +0.055 C 
ATOM     28  C   UNL     1      34.270 -15.027 -21.744  0.00  0.00    +0.006 C 
ATOM     29  C   UNL     1      34.832 -16.128 -23.821  0.00  0.00    +0.006 C 
BRANCH  27  32
ATOM     30  O   UNL     1      33.390 -13.905 -24.967  0.00  0.00    -0.268 OA
ATOM     31  N   UNL     1      34.299 -12.589 -23.308  0.00  0.00    -0.193 N 
ATOM     32  C   UNL     1      33.977 -13.814 -23.873  0.00  0.00    +0.268 C 
ATOM     33  H   UNL     1      34.763 -12.526 -22.441  0.00  0.00    +0.183 HD
BRANCH  31  34
ATOM     34  O   UNL     1      33.933 -11.443 -24.030  0.00  0.00    -0.295 OA
ATOM     35  H   UNL     1      32.977 -11.456 -24.196  0.00  0.00    +0.241 HD
ENDBRANCH  31  34
ENDBRANCH  27  32
ENDBRANCH  21  24
ENDBRANCH  19  22
ENDBRANCH   1  19
TORSDOF 10
ENDMDL
MODEL 2
REMARK VINA RESULT:     -11.1      3.713     11.869
REMARK  Name = 9804992
REMARK  10 active torsions:
REMARK  status: ('A' for Active; 'I' for Inactive)
REMARK    1  A    between atoms: C_1  and  C_9
REMARK    2  A    between atoms: C_1  and  O_19
REMARK    3  A    between atoms: C_2  and  C_12
REMARK    4  A    between atoms: C_12  and  N_13
REMARK    5  A    between atoms: N_13  and  C_15
REMARK    6  A    between atoms: N_13  and  C_17
REMARK    7  A    between atoms: O_19  and  C_22
REMARK    8  A    between atoms: N_21  and  C_24
REMARK    9  A    between atoms: C_27  and  C_32
REMARK   10  A    between atoms: N_31  and  O_34
REMARK                            x       y       z     vdW  Elec       q    Type
REMARK                         _______ _______ _______ _____ _____    ______ ____
ROOT
ATOM      1  C   UNL     1      35.671 -17.199 -22.889  0.00  0.00    +0.237 C 
ENDROOT
BRANCH   1   9
ATOM      2  C   UNL     1      31.912 -12.189 -21.086  0.00  0.00    -0.043 C 
ATOM      3  C   UNL     1      33.310 -13.631 -22.459  0.00  0.00    -0.000 C 
ATOM      4  C   UNL     1      33.453 -14.520 -21.367  0.00  0.00    -0.000 C 
ATOM      5  C   UNL     1      32.536 -12.470 -22.302  0.00  0.00    -0.006 C 
ATOM      6  C   UNL     1      32.053 -13.064 -20.013  0.00  0.00    -0.006 C 
ATOM      7  C   UNL     1      32.818 -14.222 -20.150  0.00  0.00    -0.000 C 
ATOM      8  C   UNL     1      34.227 -15.681 -21.524  0.00  0.00    -0.001 C 
ATOM      9  C   UNL     1      34.852 -15.961 -22.740  0.00  0.00    +0.021 C 
ATOM     10  C   UNL     1      33.945 -13.929 -23.675  0.00  0.00    -0.000 C 
ATOM     11  C   UNL     1      34.711 -15.088 -23.814  0.00  0.00    -0.001 C 
BRANCH   2  12
ATOM     12  C   UNL     1      31.094 -10.951 -20.937  0.00  0.00    -0.050 C 
BRANCH  12  13
ATOM     13  N   UNL     1      31.904  -9.735 -21.013  0.00  0.00    +0.390 N 
ATOM     14  H   UNL     1      32.853  -9.993 -21.283  0.00  0.00    -0.079 HD
BRANCH  13  15
ATOM     15  C   UNL     1      31.366  -8.827 -22.026  0.00  0.00    -0.077 C 
ATOM     16  C   UNL     1      32.210  -8.851 -23.288  0.00  0.00    -0.025 C 
ENDBRANCH  13  15
BRANCH  13  17
ATOM     17  C   UNL     1      31.957  -9.075 -19.710  0.00  0.00    -0.077 C 
ATOM     18  C   UNL     1      32.626  -7.714 -19.811  0.00  0.00    -0.025 C 
ENDBRANCH  13  17
ENDBRANCH  12  13
ENDBRANCH   2  12
ENDBRANCH   1   9
BRANCH   1  19
ATOM     19  O   UNL     1      34.920 -18.182 -23.590  0.00  0.00    -0.429 OA
BRANCH  19  22
ATOM     20  O   UNL     1      34.909 -20.468 -23.629  0.00  0.00    -0.226 OA
ATOM     21  N   UNL     1      34.648 -19.261 -21.640  0.00  0.00    -0.250 N 
ATOM     22  C   UNL     1      34.830 -19.419 -23.000  0.00  0.00    +0.406 C 
ATOM     23  H   UNL     1      34.611 -18.331 -21.315  0.00  0.00    +0.158 HD
BRANCH  21  24
ATOM     24  C   UNL     1      34.508 -20.266 -20.657  0.00  0.00    +0.053 C 
ATOM     25  C   UNL     1      35.640 -20.903 -20.145  0.00  0.00    +0.015 C 
ATOM     26  C   UNL     1      33.240 -20.623 -20.199  0.00  0.00    +0.015 C 
ATOM     27  C   UNL     1      34.233 -22.253 -18.718  0.00  0.00    +0.055 C 
ATOM     28  C   UNL     1      35.502 -21.896 -19.176  0.00  0.00    +0.006 C 
ATOM     29  C   UNL     1      33.102 -21.617 -19.230  0.00  0.00    +0.006 C 
BRANCH  27  32
ATOM     30  O   UNL     1      33.046 -23.962 -17.628  0.00  0.00    -0.268 OA
ATOM     31  N   UNL     1      35.156 -23.479 -16.841  0.00  0.00    -0.193 N 
ATOM     32  C   UNL     1      34.090 -23.289 -17.708  0.00  0.00    +0.268 C 
ATOM     33  H   UNL     1      35.980 -22.942 -16.911  0.00  0.00    +0.183 HD
BRANCH  31  34
ATOM     34  O   UNL     1      35.008 -24.471 -15.861  0.00  0.00    -0.295 OA
ATOM     35  H   UNL     1      34.736 -24.061 -15.024  0.00  0.00    +0.241 HD
ENDBRANCH  31  34
ENDBRANCH  27  32
ENDBRANCH  21  24
ENDBRANCH  19  22
ENDBRANCH   1  19
TORSDOF 10
ENDMDL
MODEL 3
REMARK VINA RESULT:     -11.1      0.831      1.532
REMARK  Name = 9804992
REMARK  10 active torsions:
REMARK  status: ('A' for Active; 'I' for Inactive)
REMARK    1  A    between atoms: C_1  and  C_9
REMARK    2  A    between atoms: C_1  and  O_19
REMARK    3  A    between atoms: C_2  and  C_12
REMARK    4  A    between atoms: C_12  and  N_13
REMARK    5  A    between atoms: N_13  and  C_15
REMARK    6  A    between atoms: N_13  and  C_17
REMARK    7  A    between atoms: O_19  and  C_22
REMARK    8  A    between atoms: N_21  and  C_24
REMARK    9  A    between atoms: C_27  and  C_32
REMARK   10  A    between atoms: N_31  and  O_34
REMARK                            x       y       z     vdW  Elec       q    Type
REMARK                         _______ _______ _______ _____ _____    ______ ____
ROOT
ATOM      1  C   UNL     1      35.161 -21.521 -19.988  0.00  0.00    +0.237 C 
ENDROOT
BRANCH   1   9
ATOM      2  C   UNL     1      35.407 -24.120 -14.016  0.00  0.00    -0.043 C 
ATOM      3  C   UNL     1      36.094 -22.979 -16.051  0.00  0.00    -0.000 C 
ATOM      4  C   UNL     1      34.798 -23.167 -16.587  0.00  0.00    -0.000 C 
ATOM      5  C   UNL     1      36.383 -23.462 -14.765  0.00  0.00    -0.006 C 
ATOM      6  C   UNL     1      34.132 -24.304 -14.542  0.00  0.00    -0.006 C 
ATOM      7  C   UNL     1      33.828 -23.832 -15.819  0.00  0.00    -0.000 C 
ATOM      8  C   UNL     1      34.509 -22.685 -17.873  0.00  0.00    -0.001 C 
ATOM      9  C   UNL     1      35.485 -22.026 -18.623  0.00  0.00    +0.021 C 
ATOM     10  C   UNL     1      37.064 -22.314 -16.820  0.00  0.00    -0.000 C 
ATOM     11  C   UNL     1      36.760 -21.841 -18.097  0.00  0.00    -0.001 C 
BRANCH   2  12
ATOM     12  C   UNL     1      35.731 -24.627 -12.651  0.00  0.00    -0.050 C 
BRANCH  12  13
ATOM     13  N   UNL     1      37.103 -25.127 -12.553  0.00  0.00    +0.390 N 
ATOM     14  H   UNL     1      37.604 -24.868 -13.403  0.00  0.00    -0.079 HD
BRANCH  13  15
ATOM     15  C   UNL     1      37.786 -24.521 -11.411  0.00  0.00    -0.077 C 
ATOM     16  C   UNL     1      37.282 -23.111 -11.155  0.00  0.00    -0.025 C 
ENDBRANCH  13  15
BRANCH  13  17
ATOM     17  C   UNL     1      37.108 -26.584 -12.439  0.00  0.00    -0.077 C 
ATOM     18  C   UNL     1      37.496 -27.237 -13.755  0.00  0.00    -0.025 C 
ENDBRANCH  13  17
ENDBRANCH  12  13
ENDBRANCH   2  12
ENDBRANCH   1   9
BRANCH   1  19
ATOM     19  O   UNL     1      35.674 -20.203 -20.139  0.00  0.00    -0.429 OA
BRANCH  19  22
ATOM     20  O   UNL     1      34.352 -19.874 -21.975  0.00  0.00    -0.226 OA
ATOM     21  N   UNL     1      35.439 -18.104 -20.896  0.00  0.00    -0.250 N 
ATOM     22  C   UNL     1      35.080 -19.422 -21.100  0.00  0.00    +0.406 C 
ATOM     23  H   UNL     1      36.038 -17.933 -20.132  0.00  0.00    +0.158 HD
BRANCH  21  24
ATOM     24  C   UNL     1      35.056 -16.970 -21.649  0.00  0.00    +0.053 C 
ATOM     25  C   UNL     1      34.528 -15.851 -21.003  0.00  0.00    +0.015 C 
ATOM     26  C   UNL     1      35.203 -16.971 -23.035  0.00  0.00    +0.015 C 
ATOM     27  C   UNL     1      34.296 -14.734 -23.133  0.00  0.00    +0.055 C 
ATOM     28  C   UNL     1      34.148 -14.733 -21.745  0.00  0.00    +0.006 C 
ATOM     29  C   UNL     1      34.823 -15.853 -23.778  0.00  0.00    +0.006 C 
BRANCH  27  32
ATOM     30  O   UNL     1      33.294 -13.696 -24.986  0.00  0.00    -0.268 OA
ATOM     31  N   UNL     1      34.236 -12.324 -23.393  0.00  0.00    -0.193 N 
ATOM     32  C   UNL     1      33.900 -13.568 -23.906  0.00  0.00    +0.268 C 
ATOM     33  H   UNL     1      34.715 -12.232 -22.537  0.00  0.00    +0.183 HD
BRANCH  31  34
ATOM     34  O   UNL     1      33.862 -11.204 -24.149  0.00  0.00    -0.295 OA
ATOM     35  H   UNL     1      32.909 -11.051 -24.053  0.00  0.00    +0.241 HD
ENDBRANCH  31  34
ENDBRANCH  27  32
ENDBRANCH  21  24
ENDBRANCH  19  22
ENDBRANCH   1  19
TORSDOF 10
ENDMDL
MODEL 4
REMARK VINA RESULT:     -10.9      3.405     11.371
REMARK  Name = 9804992
REMARK  10 active torsions:
REMARK  status: ('A' for Active; 'I' for Inactive)
REMARK    1  A    between atoms: C_1  and  C_9
REMARK    2  A    between atoms: C_1  and  O_19
REMARK    3  A    between atoms: C_2  and  C_12
REMARK    4  A    between atoms: C_12  and  N_13
REMARK    5  A    between atoms: N_13  and  C_15
REMARK    6  A    between atoms: N_13  and  C_17
REMARK    7  A    between atoms: O_19  and  C_22
REMARK    8  A    between atoms: N_21  and  C_24
REMARK    9  A    between atoms: C_27  and  C_32
REMARK   10  A    between atoms: N_31  and  O_34
REMARK                            x       y       z     vdW  Elec       q    Type
REMARK                         _______ _______ _______ _____ _____    ______ ____
ROOT
ATOM      1  C   UNL     1      35.864 -18.712 -22.964  0.00  0.00    +0.237 C 
ENDROOT
BRANCH   1   9
ATOM      2  C   UNL     1      32.696 -13.103 -21.970  0.00  0.00    -0.043 C 
ATOM      3  C   UNL     1      33.758 -14.965 -23.119  0.00  0.00    -0.000 C 
ATOM      4  C   UNL     1      34.070 -15.550 -21.869  0.00  0.00    -0.000 C 
ATOM      5  C   UNL     1      33.070 -13.741 -23.153  0.00  0.00    -0.006 C 
ATOM      6  C   UNL     1      33.003 -13.678 -20.741  0.00  0.00    -0.006 C 
ATOM      7  C   UNL     1      33.685 -14.893 -20.689  0.00  0.00    -0.000 C 
ATOM      8  C   UNL     1      34.758 -16.773 -21.836  0.00  0.00    -0.001 C 
ATOM      9  C   UNL     1      35.134 -17.412 -23.019  0.00  0.00    +0.021 C 
ATOM     10  C   UNL     1      34.143 -15.622 -24.300  0.00  0.00    -0.000 C 
ATOM     11  C   UNL     1      34.826 -16.838 -24.248  0.00  0.00    -0.001 C 
BRANCH   2  12
ATOM     12  C   UNL     1      31.966 -11.803 -22.024  0.00  0.00    -0.050 C 
BRANCH  12  13
ATOM     13  N   UNL     1      31.905 -11.144 -20.719  0.00  0.00    +0.390 N 
ATOM     14  H   UNL     1      32.679 -11.481 -20.148  0.00  0.00    -0.079 HD
BRANCH  13  15
ATOM     15  C   UNL     1      32.040  -9.696 -20.873  0.00  0.00    -0.077 C 
ATOM     16  C   UNL     1      31.639  -9.252 -22.269  0.00  0.00    -0.025 C 
ENDBRANCH  13  15
BRANCH  13  17
ATOM     17  C   UNL     1      30.653 -11.472 -20.041  0.00  0.00    -0.077 C 
ATOM     18  C   UNL     1      30.702 -11.077 -18.574  0.00  0.00    -0.025 C 
ENDBRANCH  13  17
ENDBRANCH  12  13
ENDBRANCH   2  12
ENDBRANCH   1   9
BRANCH   1  19
ATOM     19  O   UNL     1      36.973 -18.593 -22.081  0.00  0.00    -0.429 OA
BRANCH  19  22
ATOM     20  O   UNL     1      37.598 -18.997 -19.919  0.00  0.00    -0.226 OA
ATOM     21  N   UNL     1      35.812 -20.127 -20.925  0.00  0.00    -0.250 N 
ATOM     22  C   UNL     1      36.860 -19.229 -20.869  0.00  0.00    +0.406 C 
ATOM     23  H   UNL     1      35.329 -20.174 -21.782  0.00  0.00    +0.158 HD
BRANCH  21  24
ATOM     24  C   UNL     1      35.347 -20.987 -19.904  0.00  0.00    +0.053 C 
ATOM     25  C   UNL     1      36.255 -21.595 -19.037  0.00  0.00    +0.015 C 
ATOM     26  C   UNL     1      33.980 -21.229 -19.765  0.00  0.00    +0.015 C 
ATOM     27  C   UNL     1      34.429 -22.687 -17.891  0.00  0.00    +0.055 C 
ATOM     28  C   UNL     1      35.796 -22.445 -18.031  0.00  0.00    +0.006 C 
ATOM     29  C   UNL     1      33.521 -22.078 -18.758  0.00  0.00    +0.006 C 
BRANCH  27  32
ATOM     30  O   UNL     1      32.739 -23.830 -16.729  0.00  0.00    -0.268 OA
ATOM     31  N   UNL     1      34.900 -24.099 -15.978  0.00  0.00    -0.193 N 
ATOM     32  C   UNL     1      33.952 -23.573 -16.842  0.00  0.00    +0.268 C 
ATOM     33  H   UNL     1      35.858 -23.890 -16.074  0.00  0.00    +0.183 HD
BRANCH  31  34
ATOM     34  O   UNL     1      34.432 -24.943 -14.960  0.00  0.00    -0.295 OA
ATOM     35  H   UNL     1      35.070 -24.954 -14.229  0.00  0.00    +0.241 HD
ENDBRANCH  31  34
ENDBRANCH  27  32
ENDBRANCH  21  24
ENDBRANCH  19  22
ENDBRANCH   1  19
TORSDOF 10
ENDMDL
MODEL 5
REMARK VINA RESULT:     -10.9      1.103      1.153
REMARK  Name = 9804992
REMARK  10 active torsions:
REMARK  status: ('A' for Active; 'I' for Inactive)
REMARK    1  A    between atoms: C_1  and  C_9
REMARK    2  A    between atoms: C_1  and  O_19
REMARK    3  A    between atoms: C_2  and  C_12
REMARK    4  A    between atoms: C_12  and  N_13
REMARK    5  A    between atoms: N_13  and  C_15
REMARK    6  A    between atoms: N_13  and  C_17
REMARK    7  A    between atoms: O_19  and  C_22
REMARK    8  A    between atoms: N_21  and  C_24
REMARK    9  A    between atoms: C_27  and  C_32
REMARK   10  A    between atoms: N_31  and  O_34
REMARK                            x       y       z     vdW  Elec       q    Type
REMARK                         _______ _______ _______ _____ _____    ______ ____
ROOT
ATOM      1  C   UNL     1      34.805 -20.922 -20.477  0.00  0.00    +0.237 C 
ENDROOT
BRANCH   1   9
ATOM      2  C   UNL     1      36.486 -23.879 -14.918  0.00  0.00    -0.043 C 
ATOM      3  C   UNL     1      35.142 -23.127 -16.801  0.00  0.00    -0.000 C 
ATOM      4  C   UNL     1      36.266 -22.440 -17.319  0.00  0.00    -0.000 C 
ATOM      5  C   UNL     1      35.269 -23.843 -15.599  0.00  0.00    -0.006 C 
ATOM      6  C   UNL     1      37.590 -23.204 -15.428  0.00  0.00    -0.006 C 
ATOM      7  C   UNL     1      37.483 -22.489 -16.620  0.00  0.00    -0.000 C 
ATOM      8  C   UNL     1      36.139 -21.725 -18.521  0.00  0.00    -0.001 C 
ATOM      9  C   UNL     1      34.921 -21.687 -19.202  0.00  0.00    +0.021 C 
ATOM     10  C   UNL     1      33.925 -23.079 -17.500  0.00  0.00    -0.000 C 
ATOM     11  C   UNL     1      33.817 -22.363 -18.693  0.00  0.00    -0.001 C 
BRANCH   2  12
ATOM     12  C   UNL     1      36.602 -24.644 -13.642  0.00  0.00    -0.050 C 
BRANCH  12  13
ATOM     13  N   UNL     1      37.988 -24.758 -13.185  0.00  0.00    +0.390 N 
ATOM     14  H   UNL     1      38.550 -24.063 -13.677  0.00  0.00    -0.079 HD
BRANCH  13  15
ATOM     15  C   UNL     1      38.075 -24.491 -11.750  0.00  0.00    -0.077 C 
ATOM     16  C   UNL     1      37.477 -23.138 -11.406  0.00  0.00    -0.025 C 
ENDBRANCH  13  15
BRANCH  13  17
ATOM     17  C   UNL     1      38.519 -26.084 -13.493  0.00  0.00    -0.077 C 
ATOM     18  C   UNL     1      39.882 -25.990 -14.158  0.00  0.00    -0.025 C 
ENDBRANCH  13  17
ENDBRANCH  12  13
ENDBRANCH   2  12
ENDBRANCH   1   9
BRANCH   1  19
ATOM     19  O   UNL     1      35.679 -19.801 -20.437  0.00  0.00    -0.429 OA
BRANCH  19  22
ATOM     20  O   UNL     1      35.699 -19.034 -22.591  0.00  0.00    -0.226 OA
ATOM     21  N   UNL     1      35.032 -17.683 -20.799  0.00  0.00    -0.250 N 
ATOM     22  C   UNL     1      35.487 -18.840 -21.400  0.00  0.00    +0.406 C 
ATOM     23  H   UNL     1      34.921 -17.719 -19.821  0.00  0.00    +0.158 HD
BRANCH  21  24
ATOM     24  C   UNL     1      34.707 -16.452 -21.414  0.00  0.00    +0.053 C 
ATOM     25  C   UNL     1      34.099 -15.441 -20.670  0.00  0.00    +0.015 C 
ATOM     26  C   UNL     1      34.993 -16.250 -22.764  0.00  0.00    +0.015 C 
ATOM     27  C   UNL     1      34.062 -14.025 -22.628  0.00  0.00    +0.055 C 
ATOM     28  C   UNL     1      33.776 -14.227 -21.277  0.00  0.00    +0.006 C 
ATOM     29  C   UNL     1      34.670 -15.036 -23.371  0.00  0.00    +0.006 C 
BRANCH  27  32
ATOM     30  O   UNL     1      34.009 -12.548 -24.454  0.00  0.00    -0.268 OA
ATOM     31  N   UNL     1      33.093 -11.807 -22.474  0.00  0.00    -0.193 N 
ATOM     32  C   UNL     1      33.726 -12.759 -23.260  0.00  0.00    +0.268 C 
ATOM     33  H   UNL     1      32.872 -11.983 -21.530  0.00  0.00    +0.183 HD
BRANCH  31  34
ATOM     34  O   UNL     1      32.783 -10.584 -23.086  0.00  0.00    -0.295 OA
ATOM     35  H   UNL     1      33.143 -10.572 -23.986  0.00  0.00    +0.241 HD
ENDBRANCH  31  34
ENDBRANCH  27  32
ENDBRANCH  21  24
ENDBRANCH  19  22
ENDBRANCH   1  19
TORSDOF 10
ENDMDL
MODEL 6
REMARK VINA RESULT:     -10.9      3.240     11.821
REMARK  Name = 9804992
REMARK  10 active torsions:
REMARK  status: ('A' for Active; 'I' for Inactive)
REMARK    1  A    between atoms: C_1  and  C_9
REMARK    2  A    between atoms: C_1  and  O_19
REMARK    3  A    between atoms: C_2  and  C_12
REMARK    4  A    between atoms: C_12  and  N_13
REMARK    5  A    between atoms: N_13  and  C_15
REMARK    6  A    between atoms: N_13  and  C_17
REMARK    7  A    between atoms: O_19  and  C_22
REMARK    8  A    between atoms: N_21  and  C_24
REMARK    9  A    between atoms: C_27  and  C_32
REMARK   10  A    between atoms: N_31  and  O_34
REMARK                            x       y       z     vdW  Elec       q    Type
REMARK                         _______ _______ _______ _____ _____    ______ ____
ROOT
ATOM      1  C   UNL     1      36.059 -18.468 -21.720  0.00  0.00    +0.237 C 
ENDROOT
BRANCH   1   9
ATOM      2  C   UNL     1      32.224 -13.205 -21.430  0.00  0.00    -0.043 C 
ATOM      3  C   UNL     1      33.713 -14.913 -22.316  0.00  0.00    -0.000 C 
ATOM      4  C   UNL     1      33.755 -15.527 -21.042  0.00  0.00    -0.000 C 
ATOM      5  C   UNL     1      32.943 -13.752 -22.493  0.00  0.00    -0.006 C 
ATOM      6  C   UNL     1      32.265 -13.810 -20.178  0.00  0.00    -0.006 C 
ATOM      7  C   UNL     1      33.025 -14.963 -19.983  0.00  0.00    -0.000 C 
ATOM      8  C   UNL     1      34.526 -16.688 -20.864  0.00  0.00    -0.001 C 
ATOM      9  C   UNL     1      35.245 -17.235 -21.928  0.00  0.00    +0.021 C 
ATOM     10  C   UNL     1      34.443 -15.477 -23.375  0.00  0.00    -0.000 C 
ATOM     11  C   UNL     1      35.204 -16.631 -23.180  0.00  0.00    -0.001 C 
BRANCH   2  12
ATOM     12  C   UNL     1      31.411 -11.971 -21.637  0.00  0.00    -0.050 C 
BRANCH  12  13
ATOM     13  N   UNL     1      32.143 -10.756 -21.279  0.00  0.00    +0.390 N 
ATOM     14  H   UNL     1      33.120 -10.999 -21.121  0.00  0.00    -0.079 HD
BRANCH  13  15
ATOM     15  C   UNL     1      32.079  -9.784 -22.369  0.00  0.00    -0.077 C 
ATOM     16  C   UNL     1      33.329  -9.842 -23.230  0.00  0.00    -0.025 C 
ENDBRANCH  13  15
BRANCH  13  17
ATOM     17  C   UNL     1      31.605 -10.181 -20.048  0.00  0.00    -0.077 C 
ATOM     18  C   UNL     1      32.144  -8.780 -19.814  0.00  0.00    -0.025 C 
ENDBRANCH  13  17
ENDBRANCH  12  13
ENDBRANCH   2  12
ENDBRANCH   1   9
BRANCH   1  19
ATOM     19  O   UNL     1      35.267 -19.611 -22.016  0.00  0.00    -0.429 OA
BRANCH  19  22
ATOM     20  O   UNL     1      33.440 -20.117 -20.737  0.00  0.00    -0.226 OA
ATOM     21  N   UNL     1      35.578 -20.915 -20.216  0.00  0.00    -0.250 N 
ATOM     22  C   UNL     1      34.642 -20.215 -20.952  0.00  0.00    +0.406 C 
ATOM     23  H   UNL     1      36.505 -20.877 -20.548  0.00  0.00    +0.158 HD
BRANCH  21  24
ATOM     24  C   UNL     1      35.371 -21.679 -19.045  0.00  0.00    +0.053 C 
ATOM     25  C   UNL     1      36.406 -21.836 -18.123  0.00  0.00    +0.015 C 
ATOM     26  C   UNL     1      34.132 -22.276 -18.811  0.00  0.00    +0.015 C 
ATOM     27  C   UNL     1      34.963 -23.189 -16.735  0.00  0.00    +0.055 C 
ATOM     28  C   UNL     1      36.203 -22.591 -16.968  0.00  0.00    +0.006 C 
ATOM     29  C   UNL     1      33.928 -23.031 -17.656  0.00  0.00    +0.006 C 
BRANCH  27  32
ATOM     30  O   UNL     1      33.937 -23.607 -14.664  0.00  0.00    -0.268 OA
ATOM     31  N   UNL     1      35.500 -25.136 -15.393  0.00  0.00    -0.193 N 
ATOM     32  C   UNL     1      34.751 -23.976 -15.531  0.00  0.00    +0.268 C 
ATOM     33  H   UNL     1      36.142 -25.420 -16.084  0.00  0.00    +0.183 HD
BRANCH  31  34
ATOM     34  O   UNL     1      35.301 -25.883 -14.223  0.00  0.00    -0.295 OA
ATOM     35  H   UNL     1      34.567 -25.502 -13.716  0.00  0.00    +0.241 HD
ENDBRANCH  31  34
ENDBRANCH  27  32
ENDBRANCH  21  24
ENDBRANCH  19  22
ENDBRANCH   1  19
TORSDOF 10
ENDMDL
MODEL 7
REMARK VINA RESULT:     -10.8      2.586      4.498
REMARK  Name = 9804992
REMARK  10 active torsions:
REMARK  status: ('A' for Active; 'I' for Inactive)
REMARK    1  A    between atoms: C_1  and  C_9
REMARK    2  A    between atoms: C_1  and  O_19
REMARK    3  A    between atoms: C_2  and  C_12
REMARK    4  A    between atoms: C_12  and  N_13
REMARK    5  A    between atoms: N_13  and  C_15
REMARK    6  A    between atoms: N_13  and  C_17
REMARK    7  A    between atoms: O_19  and  C_22
REMARK    8  A    between atoms: N_21  and  C_24
REMARK    9  A    between atoms: C_27  and  C_32
REMARK   10  A    between atoms: N_31  and  O_34
REMARK                            x       y       z     vdW  Elec       q    Type
REMARK                         _______ _______ _______ _____ _____    ______ ____
ROOT
ATOM      1  C   UNL     1      36.353 -17.982 -22.150  0.00  0.00    +0.237 C 
ENDROOT
BRANCH   1   9
ATOM      2  C   UNL     1      33.818 -22.703 -18.438  0.00  0.00    -0.043 C 
ATOM      3  C   UNL     1      35.455 -21.276 -19.534  0.00  0.00    -0.000 C 
ATOM      4  C   UNL     1      34.405 -20.551 -20.146  0.00  0.00    -0.000 C 
ATOM      5  C   UNL     1      35.145 -22.349 -18.683  0.00  0.00    -0.006 C 
ATOM      6  C   UNL     1      32.785 -21.989 -19.039  0.00  0.00    -0.006 C 
ATOM      7  C   UNL     1      33.074 -20.921 -19.887  0.00  0.00    -0.000 C 
ATOM      8  C   UNL     1      34.715 -19.478 -20.996  0.00  0.00    -0.001 C 
ATOM      9  C   UNL     1      36.043 -19.125 -21.242  0.00  0.00    +0.021 C 
ATOM     10  C   UNL     1      36.785 -20.906 -19.792  0.00  0.00    -0.000 C 
ATOM     11  C   UNL     1      37.076 -19.837 -20.641  0.00  0.00    -0.001 C 
BRANCH   2  12
ATOM     12  C   UNL     1      33.507 -23.846 -17.532  0.00  0.00    -0.050 C 
BRANCH  12  13
ATOM     13  N   UNL     1      33.461 -23.444 -16.125  0.00  0.00    +0.390 N 
ATOM     14  H   UNL     1      33.490 -22.426 -16.076  0.00  0.00    -0.079 HD
BRANCH  13  15
ATOM     15  C   UNL     1      32.218 -23.902 -15.505  0.00  0.00    -0.077 C 
ATOM     16  C   UNL     1      31.015 -23.185 -16.094  0.00  0.00    -0.025 C 
ENDBRANCH  13  15
BRANCH  13  17
ATOM     17  C   UNL     1      34.617 -23.975 -15.406  0.00  0.00    -0.077 C 
ATOM     18  C   UNL     1      35.625 -22.879 -15.101  0.00  0.00    -0.025 C 
ENDBRANCH  13  17
ENDBRANCH  12  13
ENDBRANCH   2  12
ENDBRANCH   1   9
BRANCH   1  19
ATOM     19  O   UNL     1      35.493 -18.029 -23.280  0.00  0.00    -0.429 OA
BRANCH  19  22
ATOM     20  O   UNL     1      34.476 -16.552 -24.700  0.00  0.00    -0.226 OA
ATOM     21  N   UNL     1      34.521 -16.215 -22.383  0.00  0.00    -0.250 N 
ATOM     22  C   UNL     1      34.790 -16.883 -23.562  0.00  0.00    +0.406 C 
ATOM     23  H   UNL     1      34.857 -16.641 -21.560  0.00  0.00    +0.158 HD
BRANCH  21  24
ATOM     24  C   UNL     1      33.823 -14.998 -22.211  0.00  0.00    +0.053 C 
ATOM     25  C   UNL     1      34.048 -13.936 -23.088  0.00  0.00    +0.015 C 
ATOM     26  C   UNL     1      32.912 -14.858 -21.165  0.00  0.00    +0.015 C 
ATOM     27  C   UNL     1      32.449 -12.595 -21.871  0.00  0.00    +0.055 C 
ATOM     28  C   UNL     1      33.361 -12.734 -22.918  0.00  0.00    +0.006 C 
ATOM     29  C   UNL     1      32.225 -13.656 -20.995  0.00  0.00    +0.006 C 
BRANCH  27  32
ATOM     30  O   UNL     1      30.683 -11.296 -21.026  0.00  0.00    -0.268 OA
ATOM     31  N   UNL     1      32.264 -10.217 -22.309  0.00  0.00    -0.193 N 
ATOM     32  C   UNL     1      31.733 -11.342 -21.694  0.00  0.00    +0.268 C 
ATOM     33  H   UNL     1      33.096 -10.261 -22.835  0.00  0.00    +0.183 HD
BRANCH  31  34
ATOM     34  O   UNL     1      31.562  -9.014 -22.145  0.00  0.00    -0.295 OA
ATOM     35  H   UNL     1      32.152  -8.267 -22.329  0.00  0.00    +0.241 HD
ENDBRANCH  31  34
ENDBRANCH  27  32
ENDBRANCH  21  24
ENDBRANCH  19  22
ENDBRANCH   1  19
TORSDOF 10
ENDMDL
MODEL 8
REMARK VINA RESULT:     -10.8      4.863      9.226
REMARK  Name = 9804992
REMARK  10 active torsions:
REMARK  status: ('A' for Active; 'I' for Inactive)
REMARK    1  A    between atoms: C_1  and  C_9
REMARK    2  A    between atoms: C_1  and  O_19
REMARK    3  A    between atoms: C_2  and  C_12
REMARK    4  A    between atoms: C_12  and  N_13
REMARK    5  A    between atoms: N_13  and  C_15
REMARK    6  A    between atoms: N_13  and  C_17
REMARK    7  A    between atoms: O_19  and  C_22
REMARK    8  A    between atoms: N_21  and  C_24
REMARK    9  A    between atoms: C_27  and  C_32
REMARK   10  A    between atoms: N_31  and  O_34
REMARK                            x       y       z     vdW  Elec       q    Type
REMARK                         _______ _______ _______ _____ _____    ______ ____
ROOT
ATOM      1  C   UNL     1      33.420 -12.948 -23.517  0.00  0.00    +0.237 C 
ENDROOT
BRANCH   1   9
ATOM      2  C   UNL     1      35.653 -18.798 -21.709  0.00  0.00    -0.043 C 
ATOM      3  C   UNL     1      34.836 -16.512 -21.570  0.00  0.00    -0.000 C 
ATOM      4  C   UNL     1      34.728 -16.472 -22.980  0.00  0.00    -0.000 C 
ATOM      5  C   UNL     1      35.300 -17.683 -20.949  0.00  0.00    -0.006 C 
ATOM      6  C   UNL     1      35.547 -18.759 -23.096  0.00  0.00    -0.006 C 
ATOM      7  C   UNL     1      35.088 -17.604 -23.729  0.00  0.00    -0.000 C 
ATOM      8  C   UNL     1      34.264 -15.301 -23.601  0.00  0.00    -0.001 C 
ATOM      9  C   UNL     1      33.911 -14.184 -22.841  0.00  0.00    +0.021 C 
ATOM     10  C   UNL     1      34.476 -15.379 -20.821  0.00  0.00    -0.000 C 
ATOM     11  C   UNL     1      34.016 -14.224 -21.454  0.00  0.00    -0.001 C 
BRANCH   2  12
ATOM     12  C   UNL     1      36.145 -20.035 -21.034  0.00  0.00    -0.050 C 
BRANCH  12  13
ATOM     13  N   UNL     1      35.233 -20.498 -19.988  0.00  0.00    +0.390 N 
ATOM     14  H   UNL     1      35.290 -19.855 -19.198  0.00  0.00    -0.079 HD
BRANCH  13  15
ATOM     15  C   UNL     1      33.856 -20.505 -20.479  0.00  0.00    -0.077 C 
ATOM     16  C   UNL     1      32.934 -21.237 -19.519  0.00  0.00    -0.025 C 
ENDBRANCH  13  15
BRANCH  13  17
ATOM     17  C   UNL     1      35.619 -21.830 -19.528  0.00  0.00    -0.077 C 
ATOM     18  C   UNL     1      36.539 -21.750 -18.321  0.00  0.00    -0.025 C 
ENDBRANCH  13  17
ENDBRANCH  12  13
ENDBRANCH   2  12
ENDBRANCH   1   9
BRANCH   1  19
ATOM     19  O   UNL     1      32.992 -12.012 -22.537  0.00  0.00    -0.429 OA
BRANCH  19  22
ATOM     20  O   UNL     1      34.039 -10.254 -23.560  0.00  0.00    -0.226 OA
ATOM     21  N   UNL     1      32.103  -9.967 -22.275  0.00  0.00    -0.250 N 
ATOM     22  C   UNL     1      33.130 -10.683 -22.859  0.00  0.00    +0.406 C 
ATOM     23  H   UNL     1      31.460 -10.491 -21.742  0.00  0.00    +0.158 HD
BRANCH  21  24
ATOM     24  C   UNL     1      31.860  -8.577 -22.346  0.00  0.00    +0.053 C 
ATOM     25  C   UNL     1      32.392  -7.726 -21.377  0.00  0.00    +0.015 C 
ATOM     26  C   UNL     1      31.087  -8.056 -23.384  0.00  0.00    +0.015 C 
ATOM     27  C   UNL     1      31.379  -5.833 -22.486  0.00  0.00    +0.055 C 
ATOM     28  C   UNL     1      32.152  -6.353 -21.447  0.00  0.00    +0.006 C 
ATOM     29  C   UNL     1      30.847  -6.684 -23.454  0.00  0.00    +0.006 C 
BRANCH  27  32
ATOM     30  O   UNL     1      31.854  -3.662 -23.248  0.00  0.00    -0.268 OA
ATOM     31  N   UNL     1      30.062  -3.909 -21.821  0.00  0.00    -0.193 N 
ATOM     32  C   UNL     1      31.128  -4.402 -22.558  0.00  0.00    +0.268 C 
ATOM     33  H   UNL     1      29.492  -4.501 -21.278  0.00  0.00    +0.183 HD
BRANCH  31  34
ATOM     34  O   UNL     1      29.833  -2.527 -21.884  0.00  0.00    -0.295 OA
ATOM     35  H   UNL     1      28.909  -2.340 -21.654  0.00  0.00    +0.241 HD
ENDBRANCH  31  34
ENDBRANCH  27  32
ENDBRANCH  21  24
ENDBRANCH  19  22
ENDBRANCH   1  19
TORSDOF 10
ENDMDL
MODEL 9
REMARK VINA RESULT:     -10.6      4.163     13.056
REMARK  Name = 9804992
REMARK  10 active torsions:
REMARK  status: ('A' for Active; 'I' for Inactive)
REMARK    1  A    between atoms: C_1  and  C_9
REMARK    2  A    between atoms: C_1  and  O_19
REMARK    3  A    between atoms: C_2  and  C_12
REMARK    4  A    between atoms: C_12  and  N_13
REMARK    5  A    between atoms: N_13  and  C_15
REMARK    6  A    between atoms: N_13  and  C_17
REMARK    7  A    between atoms: O_19  and  C_22
REMARK    8  A    between atoms: N_21  and  C_24
REMARK    9  A    between atoms: C_27  and  C_32
REMARK   10  A    between atoms: N_31  and  O_34
REMARK                            x       y       z     vdW  Elec       q    Type
REMARK                         _______ _______ _______ _____ _____    ______ ____
ROOT
ATOM      1  C   UNL     1      34.170 -15.855 -23.514  0.00  0.00    +0.237 C 
ENDROOT
BRANCH   1   9
ATOM      2  C   UNL     1      31.989  -9.978 -21.730  0.00  0.00    -0.043 C 
ATOM      3  C   UNL     1      33.122 -11.716 -22.999  0.00  0.00    -0.000 C 
ATOM      4  C   UNL     1      32.673 -12.681 -22.066  0.00  0.00    -0.000 C 
ATOM      5  C   UNL     1      32.772 -10.369 -22.816  0.00  0.00    -0.006 C 
ATOM      6  C   UNL     1      31.547 -10.927 -20.813  0.00  0.00    -0.006 C 
ATOM      7  C   UNL     1      31.886 -12.270 -20.978  0.00  0.00    -0.000 C 
ATOM      8  C   UNL     1      33.023 -14.028 -22.249  0.00  0.00    -0.001 C 
ATOM      9  C   UNL     1      33.807 -14.420 -23.336  0.00  0.00    +0.021 C 
ATOM     10  C   UNL     1      33.910 -12.127 -24.087  0.00  0.00    -0.000 C 
ATOM     11  C   UNL     1      34.248 -13.471 -24.254  0.00  0.00    -0.001 C 
BRANCH   2  12
ATOM     12  C   UNL     1      31.626  -8.542 -21.551  0.00  0.00    -0.050 C 
BRANCH  12  13
ATOM     13  N   UNL     1      31.979  -7.729 -22.715  0.00  0.00    +0.390 N 
ATOM     14  H   UNL     1      32.132  -8.349 -23.510  0.00  0.00    -0.079 HD
BRANCH  13  15
ATOM     15  C   UNL     1      30.888  -6.813 -23.046  0.00  0.00    -0.077 C 
ATOM     16  C   UNL     1      30.571  -5.893 -21.881  0.00  0.00    -0.025 C 
ENDBRANCH  13  15
BRANCH  13  17
ATOM     17  C   UNL     1      33.213  -6.987 -22.463  0.00  0.00    -0.077 C 
ATOM     18  C   UNL     1      33.748  -6.362 -23.741  0.00  0.00    -0.025 C 
ENDBRANCH  13  17
ENDBRANCH  12  13
ENDBRANCH   2  12
ENDBRANCH   1   9
BRANCH   1  19
ATOM     19  O   UNL     1      35.259 -16.177 -22.659  0.00  0.00    -0.429 OA
BRANCH  19  22
ATOM     20  O   UNL     1      34.628 -16.504 -20.485  0.00  0.00    -0.226 OA
ATOM     21  N   UNL     1      35.128 -18.290 -21.914  0.00  0.00    -0.250 N 
ATOM     22  C   UNL     1      34.970 -16.962 -21.569  0.00  0.00    +0.406 C 
ATOM     23  H   UNL     1      35.411 -18.464 -22.842  0.00  0.00    +0.158 HD
BRANCH  21  24
ATOM     24  C   UNL     1      34.935 -19.430 -21.101  0.00  0.00    +0.053 C 
ATOM     25  C   UNL     1      36.037 -20.143 -20.627  0.00  0.00    +0.015 C 
ATOM     26  C   UNL     1      33.644 -19.843 -20.774  0.00  0.00    +0.015 C 
ATOM     27  C   UNL     1      34.555 -21.681 -19.498  0.00  0.00    +0.055 C 
ATOM     28  C   UNL     1      35.847 -21.268 -19.826  0.00  0.00    +0.006 C 
ATOM     29  C   UNL     1      33.454 -20.968 -19.972  0.00  0.00    +0.006 C 
BRANCH  27  32
ATOM     30  O   UNL     1      33.653 -23.804 -19.054  0.00  0.00    -0.268 OA
ATOM     31  N   UNL     1      34.975 -22.859 -17.421  0.00  0.00    -0.193 N 
ATOM     32  C   UNL     1      34.357 -22.855 -18.663  0.00  0.00    +0.268 C 
ATOM     33  H   UNL     1      35.531 -22.104 -17.119  0.00  0.00    +0.183 HD
BRANCH  31  34
ATOM     34  O   UNL     1      34.770 -23.988 -16.615  0.00  0.00    -0.295 OA
ATOM     35  H   UNL     1      34.796 -24.787 -17.164  0.00  0.00    +0.241 HD
ENDBRANCH  31  34
ENDBRANCH  27  32
ENDBRANCH  21  24
ENDBRANCH  19  22
ENDBRANCH   1  19
TORSDOF 10
ENDMDL
