MODEL 1
REMARK VINA RESULT:     -11.4      0.000      0.000
REMARK  Name = 24812758
REMARK  9 active torsions:
REMARK  status: ('A' for Active; 'I' for Inactive)
REMARK    1  A    between atoms: C_1  and  C_11
REMARK    2  A    between atoms: C_4  and  C_23
REMARK    3  A    between atoms: C_9  and  O_14
REMARK    4  A    between atoms: C_10  and  O_16
REMARK    5  A    between atoms: C_12  and  O_18
REMARK    6  A    between atoms: C_13  and  C_20
REMARK    7  A    between atoms: C_20  and  O_21
REMARK    8  A    between atoms: C_23  and  C_25
REMARK    9  A    between atoms: C_27  and  C_30
REMARK                            x       y       z     vdW  Elec       q    Type
REMARK                         _______ _______ _______ _____ _____    ______ ____
ROOT
ATOM      1  C   UNL     1      34.659 -24.011 -14.873  0.00  0.00    +0.007 C 
ATOM      2  C   UNL     1      34.375 -23.858 -16.230  0.00  0.00    -0.006 C 
ATOM      3  C   UNL     1      33.663 -23.789 -13.922  0.00  0.00    -0.002 C 
ATOM      4  C   UNL     1      33.096 -23.482 -16.637  0.00  0.00    -0.021 C 
ATOM      5  C   UNL     1      32.099 -23.260 -15.686  0.00  0.00    -0.025 C 
ATOM      6  C   UNL     1      32.383 -23.413 -14.330  0.00  0.00    -0.005 C 
ATOM      7  C   UNL     1      30.721 -22.857 -16.097  0.00  0.00    +0.031 C 
ENDROOT
BRANCH   1  11
ATOM      8  O   UNL     1      36.234 -25.794 -14.787  0.00  0.00    -0.347 OA
ATOM      9  C   UNL     1      36.259 -24.213 -12.923  0.00  0.00    +0.171 C 
ATOM     10  C   UNL     1      37.608 -24.780 -12.472  0.00  0.00    +0.169 C 
ATOM     11  C   UNL     1      36.051 -24.420 -14.431  0.00  0.00    +0.167 C 
ATOM     12  C   UNL     1      37.817 -26.200 -12.996  0.00  0.00    +0.169 C 
ATOM     13  C   UNL     1      37.550 -26.268 -14.501  0.00  0.00    +0.174 C 
BRANCH   9  14
ATOM     14  O   UNL     1      36.227 -22.814 -12.645  0.00  0.00    -0.379 OA
ATOM     15  H   UNL     1      36.057 -22.676 -11.700  0.00  0.00    +0.211 HD
ENDBRANCH   9  14
BRANCH  10  16
ATOM     16  O   UNL     1      37.651 -24.825 -11.045  0.00  0.00    -0.379 OA
ATOM     17  H   UNL     1      37.427 -23.952 -10.687  0.00  0.00    +0.211 HD
ENDBRANCH  10  16
BRANCH  12  18
ATOM     18  O   UNL     1      39.160 -26.603 -12.739  0.00  0.00    -0.379 OA
ATOM     19  H   UNL     1      39.647 -26.658 -13.577  0.00  0.00    +0.211 HD
ENDBRANCH  12  18
BRANCH  13  20
ATOM     20  C   UNL     1      37.646 -27.697 -15.028  0.00  0.00    +0.169 C 
BRANCH  20  21
ATOM     21  O   UNL     1      36.792 -27.821 -16.151  0.00  0.00    -0.379 OA
ATOM     22  H   UNL     1      37.303 -28.141 -16.911  0.00  0.00    +0.211 HD
ENDBRANCH  20  21
ENDBRANCH  13  20
ENDBRANCH   1  11
BRANCH   4  23
ATOM     23  C   UNL     1      32.815 -23.325 -18.095  0.00  0.00    +0.059 C 
BRANCH  23  25
ATOM     24  S   UNL     1      33.167 -21.242 -19.917  0.00  0.00    -0.091 S 
ATOM     25  C   UNL     1      33.776 -22.395 -18.807  0.00  0.00    +0.012 C 
ATOM     26  C   UNL     1      35.147 -22.328 -18.691  0.00  0.00    +0.003 C 
ATOM     27  C   UNL     1      34.739 -20.650 -20.246  0.00  0.00    +0.029 C 
ATOM     28  C   UNL     1      35.705 -21.316 -19.525  0.00  0.00    +0.007 C 
BRANCH  27  30
ATOM     29  F   UNL     1      35.340 -16.488 -23.904  0.00  0.00    -0.204 F 
ATOM     30  C   UNL     1      34.895 -19.571 -21.194  0.00  0.00    +0.006 C 
ATOM     31  C   UNL     1      35.043 -18.260 -20.741  0.00  0.00    +0.003 C 
ATOM     32  C   UNL     1      34.897 -19.840 -22.563  0.00  0.00    +0.003 C 
ATOM     33  C   UNL     1      35.193 -17.219 -21.656  0.00  0.00    +0.030 C 
ATOM     34  C   UNL     1      35.048 -18.799 -23.478  0.00  0.00    +0.030 C 
ATOM     35  C   UNL     1      35.196 -17.488 -23.025  0.00  0.00    +0.140 C 
ENDBRANCH  27  30
ENDBRANCH  23  25
ENDBRANCH   4  23
TORSDOF 9
ENDMDL
MODEL 2
REMARK VINA RESULT:     -11.1      1.205      2.474
REMARK  Name = 24812758
REMARK  9 active torsions:
REMARK  status: ('A' for Active; 'I' for Inactive)
REMARK    1  A    between atoms: C_1  and  C_11
REMARK    2  A    between atoms: C_4  and  C_23
REMARK    3  A    between atoms: C_9  and  O_14
REMARK    4  A    between atoms: C_10  and  O_16
REMARK    5  A    between atoms: C_12  and  O_18
REMARK    6  A    between atoms: C_13  and  C_20
REMARK    7  A    between atoms: C_20  and  O_21
REMARK    8  A    between atoms: C_23  and  C_25
REMARK    9  A    between atoms: C_27  and  C_30
REMARK                            x       y       z     vdW  Elec       q    Type
REMARK                         _______ _______ _______ _____ _____    ______ ____
ROOT
ATOM      1  C   UNL     1      34.324 -24.529 -14.001  0.00  0.00    +0.007 C 
ATOM      2  C   UNL     1      34.098 -24.369 -15.368  0.00  0.00    -0.006 C 
ATOM      3  C   UNL     1      33.346 -24.145 -13.082  0.00  0.00    -0.002 C 
ATOM      4  C   UNL     1      32.895 -23.826 -15.817  0.00  0.00    -0.021 C 
ATOM      5  C   UNL     1      31.917 -23.442 -14.898  0.00  0.00    -0.025 C 
ATOM      6  C   UNL     1      32.143 -23.602 -13.532  0.00  0.00    -0.005 C 
ATOM      7  C   UNL     1      30.620 -22.858 -15.355  0.00  0.00    +0.031 C 
ENDROOT
BRANCH   1  11
ATOM      8  O   UNL     1      36.379 -24.068 -12.891  0.00  0.00    -0.347 OA
ATOM      9  C   UNL     1      36.436 -25.759 -14.655  0.00  0.00    +0.171 C 
ATOM     10  C   UNL     1      37.819 -26.203 -14.171  0.00  0.00    +0.169 C 
ATOM     11  C   UNL     1      35.632 -25.119 -13.513  0.00  0.00    +0.167 C 
ATOM     12  C   UNL     1      38.519 -25.092 -13.391  0.00  0.00    +0.169 C 
ATOM     13  C   UNL     1      37.599 -24.526 -12.308  0.00  0.00    +0.174 C 
BRANCH   9  14
ATOM     14  O   UNL     1      35.723 -26.899 -15.133  0.00  0.00    -0.379 OA
ATOM     15  H   UNL     1      35.101 -27.200 -14.453  0.00  0.00    +0.211 HD
ENDBRANCH   9  14
BRANCH  10  16
ATOM     16  O   UNL     1      38.634 -26.532 -15.298  0.00  0.00    -0.379 OA
ATOM     17  H   UNL     1      39.558 -26.612 -15.017  0.00  0.00    +0.211 HD
ENDBRANCH  10  16
BRANCH  12  18
ATOM     18  O   UNL     1      39.697 -25.614 -12.781  0.00  0.00    -0.379 OA
ATOM     19  H   UNL     1      39.872 -25.135 -11.956  0.00  0.00    +0.211 HD
ENDBRANCH  12  18
BRANCH  13  20
ATOM     20  C   UNL     1      38.235 -23.342 -11.587  0.00  0.00    +0.169 C 
BRANCH  20  21
ATOM     21  O   UNL     1      37.205 -22.559 -11.010  0.00  0.00    -0.379 OA
ATOM     22  H   UNL     1      37.597 -21.860 -10.463  0.00  0.00    +0.211 HD
ENDBRANCH  20  21
ENDBRANCH  13  20
ENDBRANCH   1  11
BRANCH   4  23
ATOM     23  C   UNL     1      32.674 -23.665 -17.285  0.00  0.00    +0.059 C 
BRANCH  23  25
ATOM     24  S   UNL     1      33.322 -21.798 -19.254  0.00  0.00    -0.091 S 
ATOM     25  C   UNL     1      33.753 -22.861 -17.981  0.00  0.00    +0.012 C 
ATOM     26  C   UNL     1      35.107 -22.848 -17.733  0.00  0.00    +0.003 C 
ATOM     27  C   UNL     1      34.951 -21.319 -19.477  0.00  0.00    +0.029 C 
ATOM     28  C   UNL     1      35.802 -21.955 -18.600  0.00  0.00    +0.007 C 
BRANCH  27  30
ATOM     29  F   UNL     1      36.144 -17.588 -23.441  0.00  0.00    -0.204 F 
ATOM     30  C   UNL     1      35.260 -20.352 -20.504  0.00  0.00    +0.006 C 
ATOM     31  C   UNL     1      36.526 -19.769 -20.555  0.00  0.00    +0.003 C 
ATOM     32  C   UNL     1      34.292 -20.001 -21.446  0.00  0.00    +0.003 C 
ATOM     33  C   UNL     1      36.825 -18.835 -21.546  0.00  0.00    +0.030 C 
ATOM     34  C   UNL     1      34.591 -19.068 -22.438  0.00  0.00    +0.030 C 
ATOM     35  C   UNL     1      35.858 -18.485 -22.488  0.00  0.00    +0.140 C 
ENDBRANCH  27  30
ENDBRANCH  23  25
ENDBRANCH   4  23
TORSDOF 9
ENDMDL
MODEL 3
REMARK VINA RESULT:     -10.8     10.415     13.972
REMARK  Name = 24812758
REMARK  9 active torsions:
REMARK  status: ('A' for Active; 'I' for Inactive)
REMARK    1  A    between atoms: C_1  and  C_11
REMARK    2  A    between atoms: C_4  and  C_23
REMARK    3  A    between atoms: C_9  and  O_14
REMARK    4  A    between atoms: C_10  and  O_16
REMARK    5  A    between atoms: C_12  and  O_18
REMARK    6  A    between atoms: C_13  and  C_20
REMARK    7  A    between atoms: C_20  and  O_21
REMARK    8  A    between atoms: C_23  and  C_25
REMARK    9  A    between atoms: C_27  and  C_30
REMARK                            x       y       z     vdW  Elec       q    Type
REMARK                         _______ _______ _______ _____ _____    ______ ____
ROOT
ATOM      1  C   UNL     1      32.924 -13.289 -21.705  0.00  0.00    +0.007 C 
ATOM      2  C   UNL     1      32.270 -12.144 -22.160  0.00  0.00    -0.006 C 
ATOM      3  C   UNL     1      32.782 -13.692 -20.377  0.00  0.00    -0.002 C 
ATOM      4  C   UNL     1      31.475 -11.402 -21.288  0.00  0.00    -0.021 C 
ATOM      5  C   UNL     1      31.333 -11.805 -19.960  0.00  0.00    -0.025 C 
ATOM      6  C   UNL     1      31.987 -12.950 -19.505  0.00  0.00    -0.005 C 
ATOM      7  C   UNL     1      30.486 -11.027 -19.006  0.00  0.00    +0.031 C 
ENDROOT
BRANCH   1  11
ATOM      8  O   UNL     1      33.077 -14.223 -23.889  0.00  0.00    -0.347 OA
ATOM      9  C   UNL     1      34.139 -15.477 -22.080  0.00  0.00    +0.171 C 
ATOM     10  C   UNL     1      34.873 -16.332 -23.116  0.00  0.00    +0.169 C 
ATOM     11  C   UNL     1      33.789 -14.096 -22.654  0.00  0.00    +0.167 C 
ATOM     12  C   UNL     1      34.148 -16.322 -24.460  0.00  0.00    +0.169 C 
ATOM     13  C   UNL     1      33.836 -14.890 -24.899  0.00  0.00    +0.174 C 
BRANCH   9  14
ATOM     14  O   UNL     1      34.983 -15.299 -20.942  0.00  0.00    -0.379 OA
ATOM     15  H   UNL     1      35.202 -16.164 -20.564  0.00  0.00    +0.211 HD
ENDBRANCH   9  14
BRANCH  10  16
ATOM     16  O   UNL     1      34.936 -17.684 -22.658  0.00  0.00    -0.379 OA
ATOM     17  H   UNL     1      35.840 -18.019 -22.761  0.00  0.00    +0.211 HD
ENDBRANCH  10  16
BRANCH  12  18
ATOM     18  O   UNL     1      34.969 -16.946 -25.444  0.00  0.00    -0.379 OA
ATOM     19  H   UNL     1      34.988 -17.904 -25.289  0.00  0.00    +0.211 HD
ENDBRANCH  12  18
BRANCH  13  20
ATOM     20  C   UNL     1      33.015 -14.858 -26.184  0.00  0.00    +0.169 C 
BRANCH  20  21
ATOM     21  O   UNL     1      32.442 -16.138 -26.385  0.00  0.00    -0.379 OA
ATOM     22  H   UNL     1      31.637 -16.220 -25.850  0.00  0.00    +0.211 HD
ENDBRANCH  20  21
ENDBRANCH  13  20
ENDBRANCH   1  11
BRANCH   4  23
ATOM     23  C   UNL     1      30.784 -10.180 -21.797  0.00  0.00    +0.059 C 
BRANCH  23  25
ATOM     24  S   UNL     1      31.387  -8.066 -23.514  0.00  0.00    -0.091 S 
ATOM     25  C   UNL     1      31.725  -9.047 -22.152  0.00  0.00    +0.012 C 
ATOM     26  C   UNL     1      32.879  -8.659 -21.508  0.00  0.00    +0.003 C 
ATOM     27  C   UNL     1      32.787  -7.118 -23.245  0.00  0.00    +0.029 C 
ATOM     28  C   UNL     1      33.495  -7.540 -22.142  0.00  0.00    +0.007 C 
BRANCH  27  30
ATOM     29  F   UNL     1      33.906  -2.917 -26.733  0.00  0.00    -0.204 F 
ATOM     30  C   UNL     1      33.077  -6.029 -24.149  0.00  0.00    +0.006 C 
ATOM     31  C   UNL     1      32.239  -4.914 -24.191  0.00  0.00    +0.003 C 
ATOM     32  C   UNL     1      34.195  -6.092 -24.981  0.00  0.00    +0.003 C 
ATOM     33  C   UNL     1      32.519  -3.863 -25.063  0.00  0.00    +0.030 C 
ATOM     34  C   UNL     1      34.475  -5.041 -25.853  0.00  0.00    +0.030 C 
ATOM     35  C   UNL     1      33.637  -3.926 -25.895  0.00  0.00    +0.140 C 
ENDBRANCH  27  30
ENDBRANCH  23  25
ENDBRANCH   4  23
TORSDOF 9
ENDMDL
MODEL 4
REMARK VINA RESULT:     -10.8     11.643     16.634
REMARK  Name = 24812758
REMARK  9 active torsions:
REMARK  status: ('A' for Active; 'I' for Inactive)
REMARK    1  A    between atoms: C_1  and  C_11
REMARK    2  A    between atoms: C_4  and  C_23
REMARK    3  A    between atoms: C_9  and  O_14
REMARK    4  A    between atoms: C_10  and  O_16
REMARK    5  A    between atoms: C_12  and  O_18
REMARK    6  A    between atoms: C_13  and  C_20
REMARK    7  A    between atoms: C_20  and  O_21
REMARK    8  A    between atoms: C_23  and  C_25
REMARK    9  A    between atoms: C_27  and  C_30
REMARK                            x       y       z     vdW  Elec       q    Type
REMARK                         _______ _______ _______ _____ _____    ______ ____
ROOT
ATOM      1  C   UNL     1      31.667  -7.674 -21.763  0.00  0.00    +0.007 C 
ATOM      2  C   UNL     1      31.274  -8.988 -22.017  0.00  0.00    -0.006 C 
ATOM      3  C   UNL     1      32.246  -7.344 -20.538  0.00  0.00    -0.002 C 
ATOM      4  C   UNL     1      31.459  -9.972 -21.046  0.00  0.00    -0.021 C 
ATOM      5  C   UNL     1      32.039  -9.642 -19.821  0.00  0.00    -0.025 C 
ATOM      6  C   UNL     1      32.432  -8.328 -19.567  0.00  0.00    -0.005 C 
ATOM      7  C   UNL     1      32.249 -10.677 -18.765  0.00  0.00    +0.031 C 
ENDROOT
BRANCH   1  11
ATOM      8  O   UNL     1      32.699  -6.455 -23.527  0.00  0.00    -0.347 OA
ATOM      9  C   UNL     1      31.020  -5.269 -22.206  0.00  0.00    +0.171 C 
ATOM     10  C   UNL     1      30.978  -4.165 -23.266  0.00  0.00    +0.169 C 
ATOM     11  C   UNL     1      31.464  -6.605 -22.819  0.00  0.00    +0.167 C 
ATOM     12  C   UNL     1      32.264  -4.137 -24.090  0.00  0.00    +0.169 C 
ATOM     13  C   UNL     1      32.605  -5.534 -24.614  0.00  0.00    +0.174 C 
BRANCH   9  14
ATOM     14  O   UNL     1      29.714  -5.432 -21.653  0.00  0.00    -0.379 OA
ATOM     15  H   UNL     1      29.049  -5.176 -22.312  0.00  0.00    +0.211 HD
ENDBRANCH   9  14
BRANCH  10  16
ATOM     16  O   UNL     1      30.836  -2.896 -22.626  0.00  0.00    -0.379 OA
ATOM     17  H   UNL     1      31.448  -2.260 -23.028  0.00  0.00    +0.211 HD
ENDBRANCH  10  16
BRANCH  12  18
ATOM     18  O   UNL     1      32.098  -3.250 -25.193  0.00  0.00    -0.379 OA
ATOM     19  H   UNL     1      31.559  -3.680 -25.876  0.00  0.00    +0.211 HD
ENDBRANCH  12  18
BRANCH  13  20
ATOM     20  C   UNL     1      33.942  -5.552 -25.347  0.00  0.00    +0.169 C 
BRANCH  20  21
ATOM     21  O   UNL     1      33.725  -5.164 -26.692  0.00  0.00    -0.379 OA
ATOM     22  H   UNL     1      32.774  -5.045 -26.845  0.00  0.00    +0.211 HD
ENDBRANCH  20  21
ENDBRANCH  13  20
ENDBRANCH   1  11
BRANCH   4  23
ATOM     23  C   UNL     1      31.031 -11.372 -21.340  0.00  0.00    +0.059 C 
BRANCH  23  25
ATOM     24  S   UNL     1      32.305 -13.853 -21.325  0.00  0.00    -0.091 S 
ATOM     25  C   UNL     1      32.136 -12.247 -21.895  0.00  0.00    +0.012 C 
ATOM     26  C   UNL     1      33.082 -11.933 -22.845  0.00  0.00    +0.003 C 
ATOM     27  C   UNL     1      33.648 -14.132 -22.351  0.00  0.00    +0.029 C 
ATOM     28  C   UNL     1      33.958 -13.026 -23.110  0.00  0.00    +0.007 C 
BRANCH  27  30
ATOM     29  F   UNL     1      36.127 -19.122 -22.243  0.00  0.00    -0.204 F 
ATOM     30  C   UNL     1      34.290 -15.425 -22.323  0.00  0.00    +0.006 C 
ATOM     31  C   UNL     1      34.512 -16.068 -21.105  0.00  0.00    +0.003 C 
ATOM     32  C   UNL     1      34.689 -16.032 -23.514  0.00  0.00    +0.003 C 
ATOM     33  C   UNL     1      35.132 -17.317 -21.078  0.00  0.00    +0.030 C 
ATOM     34  C   UNL     1      35.310 -17.280 -23.487  0.00  0.00    +0.030 C 
ATOM     35  C   UNL     1      35.531 -17.923 -22.269  0.00  0.00    +0.140 C 
ENDBRANCH  27  30
ENDBRANCH  23  25
ENDBRANCH   4  23
TORSDOF 9
ENDMDL
MODEL 5
REMARK VINA RESULT:     -10.5     11.405     16.509
REMARK  Name = 24812758
REMARK  9 active torsions:
REMARK  status: ('A' for Active; 'I' for Inactive)
REMARK    1  A    between atoms: C_1  and  C_11
REMARK    2  A    between atoms: C_4  and  C_23
REMARK    3  A    between atoms: C_9  and  O_14
REMARK    4  A    between atoms: C_10  and  O_16
REMARK    5  A    between atoms: C_12  and  O_18
REMARK    6  A    between atoms: C_13  and  C_20
REMARK    7  A    between atoms: C_20  and  O_21
REMARK    8  A    between atoms: C_23  and  C_25
REMARK    9  A    between atoms: C_27  and  C_30
REMARK                            x       y       z     vdW  Elec       q    Type
REMARK                         _______ _______ _______ _____ _____    ______ ____
ROOT
ATOM      1  C   UNL     1      32.419  -7.593 -21.329  0.00  0.00    +0.007 C 
ATOM      2  C   UNL     1      31.940  -8.776 -21.892  0.00  0.00    -0.006 C 
ATOM      3  C   UNL     1      32.612  -7.506 -19.950  0.00  0.00    -0.002 C 
ATOM      4  C   UNL     1      31.654  -9.872 -21.077  0.00  0.00    -0.021 C 
ATOM      5  C   UNL     1      31.847  -9.784 -19.698  0.00  0.00    -0.025 C 
ATOM      6  C   UNL     1      32.326  -8.601 -19.135  0.00  0.00    -0.005 C 
ATOM      7  C   UNL     1      31.549 -10.943 -18.805  0.00  0.00    +0.031 C 
ENDROOT
BRANCH   1  11
ATOM      8  O   UNL     1      31.613  -5.510 -22.150  0.00  0.00    -0.347 OA
ATOM      9  C   UNL     1      33.009  -6.824 -23.666  0.00  0.00    +0.171 C 
ATOM     10  C   UNL     1      33.160  -5.599 -24.572  0.00  0.00    +0.169 C 
ATOM     11  C   UNL     1      32.729  -6.403 -22.215  0.00  0.00    +0.167 C 
ATOM     12  C   UNL     1      32.017  -4.608 -24.364  0.00  0.00    +0.169 C 
ATOM     13  C   UNL     1      31.829  -4.300 -22.877  0.00  0.00    +0.174 C 
BRANCH   9  14
ATOM     14  O   UNL     1      34.220  -7.578 -23.697  0.00  0.00    -0.379 OA
ATOM     15  H   UNL     1      34.890  -7.138 -23.150  0.00  0.00    +0.211 HD
ENDBRANCH   9  14
BRANCH  10  16
ATOM     16  O   UNL     1      33.140  -6.015 -25.939  0.00  0.00    -0.379 OA
ATOM     17  H   UNL     1      32.909  -5.261 -26.503  0.00  0.00    +0.211 HD
ENDBRANCH  10  16
BRANCH  12  18
ATOM     18  O   UNL     1      32.308  -3.399 -25.060  0.00  0.00    -0.379 OA
ATOM     19  H   UNL     1      32.539  -2.706 -24.421  0.00  0.00    +0.211 HD
ENDBRANCH  12  18
BRANCH  13  20
ATOM     20  C   UNL     1      30.623  -3.398 -22.634  0.00  0.00    +0.169 C 
BRANCH  20  21
ATOM     21  O   UNL     1      29.843  -3.960 -21.594  0.00  0.00    -0.379 OA
ATOM     22  H   UNL     1      29.326  -3.260 -21.164  0.00  0.00    +0.211 HD
ENDBRANCH  20  21
ENDBRANCH  13  20
ENDBRANCH   1  11
BRANCH   4  23
ATOM     23  C   UNL     1      31.143 -11.128 -21.703  0.00  0.00    +0.059 C 
BRANCH  23  25
ATOM     24  S   UNL     1      32.323 -13.649 -21.524  0.00  0.00    -0.091 S 
ATOM     25  C   UNL     1      32.236 -12.066 -22.172  0.00  0.00    +0.012 C 
ATOM     26  C   UNL     1      33.228 -11.831 -23.098  0.00  0.00    +0.003 C 
ATOM     27  C   UNL     1      33.692 -14.023 -22.481  0.00  0.00    +0.029 C 
ATOM     28  C   UNL     1      34.073 -12.965 -23.276  0.00  0.00    +0.007 C 
BRANCH  27  30
ATOM     29  F   UNL     1      35.979 -19.087 -22.046  0.00  0.00    -0.204 F 
ATOM     30  C   UNL     1      34.285 -15.335 -22.368  0.00  0.00    +0.006 C 
ATOM     31  C   UNL     1      34.448 -15.922 -21.113  0.00  0.00    +0.003 C 
ATOM     32  C   UNL     1      34.695 -16.017 -23.515  0.00  0.00    +0.003 C 
ATOM     33  C   UNL     1      35.020 -17.189 -21.004  0.00  0.00    +0.030 C 
ATOM     34  C   UNL     1      35.267 -17.283 -23.406  0.00  0.00    +0.030 C 
ATOM     35  C   UNL     1      35.430 -17.870 -22.150  0.00  0.00    +0.140 C 
ENDBRANCH  27  30
ENDBRANCH  23  25
ENDBRANCH   4  23
TORSDOF 9
ENDMDL
MODEL 6
REMARK VINA RESULT:     -10.2      5.944     10.438
REMARK  Name = 24812758
REMARK  9 active torsions:
REMARK  status: ('A' for Active; 'I' for Inactive)
REMARK    1  A    between atoms: C_1  and  C_11
REMARK    2  A    between atoms: C_4  and  C_23
REMARK    3  A    between atoms: C_9  and  O_14
REMARK    4  A    between atoms: C_10  and  O_16
REMARK    5  A    between atoms: C_12  and  O_18
REMARK    6  A    between atoms: C_13  and  C_20
REMARK    7  A    between atoms: C_20  and  O_21
REMARK    8  A    between atoms: C_23  and  C_25
REMARK    9  A    between atoms: C_27  and  C_30
REMARK                            x       y       z     vdW  Elec       q    Type
REMARK                         _______ _______ _______ _____ _____    ______ ____
ROOT
ATOM      1  C   UNL     1      34.674 -19.589 -20.758  0.00  0.00    +0.007 C 
ATOM      2  C   UNL     1      35.634 -20.477 -20.272  0.00  0.00    -0.006 C 
ATOM      3  C   UNL     1      33.321 -19.823 -20.513  0.00  0.00    -0.002 C 
ATOM      4  C   UNL     1      35.241 -21.599 -19.542  0.00  0.00    -0.021 C 
ATOM      5  C   UNL     1      33.888 -21.832 -19.297  0.00  0.00    -0.025 C 
ATOM      6  C   UNL     1      32.928 -20.944 -19.783  0.00  0.00    -0.005 C 
ATOM      7  C   UNL     1      33.442 -23.025 -18.517  0.00  0.00    +0.031 C 
ENDROOT
BRANCH   1  11
ATOM      8  O   UNL     1      34.460 -17.229 -20.975  0.00  0.00    -0.347 OA
ATOM      9  C   UNL     1      34.747 -18.501 -23.041  0.00  0.00    +0.171 C 
ATOM     10  C   UNL     1      35.041 -17.199 -23.792  0.00  0.00    +0.169 C 
ATOM     11  C   UNL     1      35.102 -18.371 -21.552  0.00  0.00    +0.167 C 
ATOM     12  C   UNL     1      34.455 -15.993 -23.060  0.00  0.00    +0.169 C 
ATOM     13  C   UNL     1      34.861 -16.002 -21.585  0.00  0.00    +0.174 C 
BRANCH   9  14
ATOM     14  O   UNL     1      35.533 -19.550 -23.607  0.00  0.00    -0.379 OA
ATOM     15  H   UNL     1      35.627 -20.268 -22.962  0.00  0.00    +0.211 HD
ENDBRANCH   9  14
BRANCH  10  16
ATOM     16  O   UNL     1      34.450 -17.257 -25.091  0.00  0.00    -0.379 OA
ATOM     17  H   UNL     1      34.894 -17.940 -25.618  0.00  0.00    +0.211 HD
ENDBRANCH  10  16
BRANCH  12  18
ATOM     18  O   UNL     1      34.931 -14.795 -23.671  0.00  0.00    -0.379 OA
ATOM     19  H   UNL     1      35.123 -14.965 -24.607  0.00  0.00    +0.211 HD
ENDBRANCH  12  18
BRANCH  13  20
ATOM     20  C   UNL     1      34.199 -14.867 -20.809  0.00  0.00    +0.169 C 
BRANCH  20  21
ATOM     21  O   UNL     1      32.960 -14.563 -21.425  0.00  0.00    -0.379 OA
ATOM     22  H   UNL     1      33.108 -13.956 -22.167  0.00  0.00    +0.211 HD
ENDBRANCH  20  21
ENDBRANCH  13  20
ENDBRANCH   1  11
BRANCH   4  23
ATOM     23  C   UNL     1      36.286 -22.535 -19.032  0.00  0.00    +0.059 C 
BRANCH  23  25
ATOM     24  S   UNL     1      35.784 -23.541 -16.479  0.00  0.00    -0.091 S 
ATOM     25  C   UNL     1      36.532 -22.425 -17.541  0.00  0.00    +0.012 C 
ATOM     26  C   UNL     1      37.313 -21.513 -16.866  0.00  0.00    +0.003 C 
ATOM     27  C   UNL     1      36.503 -22.804 -15.112  0.00  0.00    +0.029 C 
ATOM     28  C   UNL     1      37.296 -21.733 -15.458  0.00  0.00    +0.007 C 
BRANCH  27  30
ATOM     29  F   UNL     1      35.432 -24.887 -10.055  0.00  0.00    -0.204 F 
ATOM     30  C   UNL     1      36.226 -23.344 -13.801  0.00  0.00    +0.006 C 
ATOM     31  C   UNL     1      35.036 -24.036 -13.569  0.00  0.00    +0.003 C 
ATOM     32  C   UNL     1      37.146 -23.174 -12.767  0.00  0.00    +0.003 C 
ATOM     33  C   UNL     1      34.768 -24.557 -12.304  0.00  0.00    +0.030 C 
ATOM     34  C   UNL     1      36.878 -23.695 -11.502  0.00  0.00    +0.030 C 
ATOM     35  C   UNL     1      35.689 -24.387 -11.270  0.00  0.00    +0.140 C 
ENDBRANCH  27  30
ENDBRANCH  23  25
ENDBRANCH   4  23
TORSDOF 9
ENDMDL
MODEL 7
REMARK VINA RESULT:     -10.1      7.724     12.874
REMARK  Name = 24812758
REMARK  9 active torsions:
REMARK  status: ('A' for Active; 'I' for Inactive)
REMARK    1  A    between atoms: C_1  and  C_11
REMARK    2  A    between atoms: C_4  and  C_23
REMARK    3  A    between atoms: C_9  and  O_14
REMARK    4  A    between atoms: C_10  and  O_16
REMARK    5  A    between atoms: C_12  and  O_18
REMARK    6  A    between atoms: C_13  and  C_20
REMARK    7  A    between atoms: C_20  and  O_21
REMARK    8  A    between atoms: C_23  and  C_25
REMARK    9  A    between atoms: C_27  and  C_30
REMARK                            x       y       z     vdW  Elec       q    Type
REMARK                         _______ _______ _______ _____ _____    ______ ____
ROOT
ATOM      1  C   UNL     1      33.535 -13.483 -23.254  0.00  0.00    +0.007 C 
ATOM      2  C   UNL     1      34.552 -14.365 -22.890  0.00  0.00    -0.006 C 
ATOM      3  C   UNL     1      32.736 -13.759 -24.364  0.00  0.00    -0.002 C 
ATOM      4  C   UNL     1      34.772 -15.523 -23.635  0.00  0.00    -0.021 C 
ATOM      5  C   UNL     1      33.973 -15.800 -24.745  0.00  0.00    -0.025 C 
ATOM      6  C   UNL     1      32.956 -14.918 -25.109  0.00  0.00    -0.005 C 
ATOM      7  C   UNL     1      34.188 -17.034 -25.559  0.00  0.00    +0.031 C 
ENDROOT
BRANCH   1  11
ATOM      8  O   UNL     1      32.028 -12.357 -21.797  0.00  0.00    -0.347 OA
ATOM      9  C   UNL     1      33.334 -10.962 -23.319  0.00  0.00    +0.171 C 
ATOM     10  C   UNL     1      32.934  -9.723 -22.513  0.00  0.00    +0.169 C 
ATOM     11  C   UNL     1      33.297 -12.224 -22.444  0.00  0.00    +0.167 C 
ATOM     12  C   UNL     1      31.646  -9.964 -21.727  0.00  0.00    +0.169 C 
ATOM     13  C   UNL     1      31.733 -11.265 -20.926  0.00  0.00    +0.174 C 
BRANCH   9  14
ATOM     14  O   UNL     1      34.662 -10.786 -23.811  0.00  0.00    -0.379 OA
ATOM     15  H   UNL     1      34.637 -10.658 -24.772  0.00  0.00    +0.211 HD
ENDBRANCH   9  14
BRANCH  10  16
ATOM     16  O   UNL     1      32.709  -8.629 -23.403  0.00  0.00    -0.379 OA
ATOM     17  H   UNL     1      32.648  -7.805 -22.895  0.00  0.00    +0.211 HD
ENDBRANCH  10  16
BRANCH  12  18
ATOM     18  O   UNL     1      31.429  -8.876 -20.833  0.00  0.00    -0.379 OA
ATOM     19  H   UNL     1      30.508  -8.889 -20.525  0.00  0.00    +0.211 HD
ENDBRANCH  12  18
BRANCH  13  20
ATOM     20  C   UNL     1      30.420 -11.583 -20.219  0.00  0.00    +0.169 C 
BRANCH  20  21
ATOM     21  O   UNL     1      30.472 -11.050 -18.908  0.00  0.00    -0.379 OA
ATOM     22  H   UNL     1      29.738 -10.428 -18.782  0.00  0.00    +0.211 HD
ENDBRANCH  20  21
ENDBRANCH  13  20
ENDBRANCH   1  11
BRANCH   4  23
ATOM     23  C   UNL     1      35.866 -16.453 -23.226  0.00  0.00    +0.059 C 
BRANCH  23  25
ATOM     24  S   UNL     1      35.378 -18.246 -21.146  0.00  0.00    -0.091 S 
ATOM     25  C   UNL     1      35.379 -17.825 -22.806  0.00  0.00    +0.012 C 
ATOM     26  C   UNL     1      34.905 -18.846 -23.599  0.00  0.00    +0.003 C 
ATOM     27  C   UNL     1      34.744 -19.800 -21.486  0.00  0.00    +0.029 C 
ATOM     28  C   UNL     1      34.537 -19.991 -22.834  0.00  0.00    +0.007 C 
BRANCH  27  30
ATOM     29  F   UNL     1      33.806 -23.311 -17.261  0.00  0.00    -0.204 F 
ATOM     30  C   UNL     1      34.501 -20.710 -20.391  0.00  0.00    +0.006 C 
ATOM     31  C   UNL     1      33.199 -20.927 -19.940  0.00  0.00    +0.003 C 
ATOM     32  C   UNL     1      35.568 -21.372 -19.784  0.00  0.00    +0.003 C 
ATOM     33  C   UNL     1      32.964 -21.805 -18.883  0.00  0.00    +0.030 C 
ATOM     34  C   UNL     1      35.334 -22.250 -18.727  0.00  0.00    +0.030 C 
ATOM     35  C   UNL     1      34.031 -22.467 -18.276  0.00  0.00    +0.140 C 
ENDBRANCH  27  30
ENDBRANCH  23  25
ENDBRANCH   4  23
TORSDOF 9
ENDMDL
MODEL 8
REMARK VINA RESULT:      -9.9      1.558      1.989
REMARK  Name = 24812758
REMARK  9 active torsions:
REMARK  status: ('A' for Active; 'I' for Inactive)
REMARK    1  A    between atoms: C_1  and  C_11
REMARK    2  A    between atoms: C_4  and  C_23
REMARK    3  A    between atoms: C_9  and  O_14
REMARK    4  A    between atoms: C_10  and  O_16
REMARK    5  A    between atoms: C_12  and  O_18
REMARK    6  A    between atoms: C_13  and  C_20
REMARK    7  A    between atoms: C_20  and  O_21
REMARK    8  A    between atoms: C_23  and  C_25
REMARK    9  A    between atoms: C_27  and  C_30
REMARK                            x       y       z     vdW  Elec       q    Type
REMARK                         _______ _______ _______ _____ _____    ______ ____
ROOT
ATOM      1  C   UNL     1      34.185 -23.885 -14.111  0.00  0.00    +0.007 C 
ATOM      2  C   UNL     1      33.829 -23.618 -15.433  0.00  0.00    -0.006 C 
ATOM      3  C   UNL     1      33.197 -24.025 -13.137  0.00  0.00    -0.002 C 
ATOM      4  C   UNL     1      32.485 -23.491 -15.782  0.00  0.00    -0.021 C 
ATOM      5  C   UNL     1      31.496 -23.631 -14.807  0.00  0.00    -0.025 C 
ATOM      6  C   UNL     1      31.852 -23.898 -13.486  0.00  0.00    -0.005 C 
ATOM      7  C   UNL     1      30.050 -23.500 -15.156  0.00  0.00    +0.031 C 
ENDROOT
BRANCH   1  11
ATOM      8  O   UNL     1      36.428 -23.695 -14.887  0.00  0.00    -0.347 OA
ATOM      9  C   UNL     1      35.980 -25.436 -13.231  0.00  0.00    +0.171 C 
ATOM     10  C   UNL     1      37.486 -25.599 -13.009  0.00  0.00    +0.169 C 
ATOM     11  C   UNL     1      35.647 -24.023 -13.733  0.00  0.00    +0.167 C 
ATOM     12  C   UNL     1      38.283 -25.104 -14.215  0.00  0.00    +0.169 C 
ATOM     13  C   UNL     1      37.831 -23.701 -14.625  0.00  0.00    +0.174 C 
BRANCH   9  14
ATOM     14  O   UNL     1      35.302 -25.654 -11.994  0.00  0.00    -0.379 OA
ATOM     15  H   UNL     1      34.355 -25.481 -12.110  0.00  0.00    +0.211 HD
ENDBRANCH   9  14
BRANCH  10  16
ATOM     16  O   UNL     1      37.791 -26.981 -12.816  0.00  0.00    -0.379 OA
ATOM     17  H   UNL     1      38.100 -27.121 -11.907  0.00  0.00    +0.211 HD
ENDBRANCH  10  16
BRANCH  12  18
ATOM     18  O   UNL     1      39.669 -25.072 -13.883  0.00  0.00    -0.379 OA
ATOM     19  H   UNL     1      39.811 -25.538 -13.043  0.00  0.00    +0.211 HD
ENDBRANCH  12  18
BRANCH  13  20
ATOM     20  C   UNL     1      38.535 -23.228 -15.893  0.00  0.00    +0.169 C 
BRANCH  20  21
ATOM     21  O   UNL     1      37.804 -22.145 -16.438  0.00  0.00    -0.379 OA
ATOM     22  H   UNL     1      38.277 -21.788 -17.206  0.00  0.00    +0.211 HD
ENDBRANCH  20  21
ENDBRANCH  13  20
ENDBRANCH   1  11
BRANCH   4  23
ATOM     23  C   UNL     1      32.127 -23.205 -17.203  0.00  0.00    +0.059 C 
BRANCH  23  25
ATOM     24  S   UNL     1      32.916 -21.433 -19.207  0.00  0.00    -0.091 S 
ATOM     25  C   UNL     1      33.261 -22.610 -18.012  0.00  0.00    +0.012 C 
ATOM     26  C   UNL     1      34.609 -22.881 -17.928  0.00  0.00    +0.003 C 
ATOM     27  C   UNL     1      34.572 -21.286 -19.617  0.00  0.00    +0.029 C 
ATOM     28  C   UNL     1      35.369 -22.114 -18.858  0.00  0.00    +0.007 C 
BRANCH  27  30
ATOM     29  F   UNL     1      36.047 -17.721 -23.639  0.00  0.00    -0.204 F 
ATOM     30  C   UNL     1      34.954 -20.362 -20.659  0.00  0.00    +0.006 C 
ATOM     31  C   UNL     1      36.198 -19.732 -20.611  0.00  0.00    +0.003 C 
ATOM     32  C   UNL     1      34.080 -20.100 -21.714  0.00  0.00    +0.003 C 
ATOM     33  C   UNL     1      36.567 -18.840 -21.618  0.00  0.00    +0.030 C 
ATOM     34  C   UNL     1      34.449 -19.208 -22.720  0.00  0.00    +0.030 C 
ATOM     35  C   UNL     1      35.693 -18.578 -22.672  0.00  0.00    +0.140 C 
ENDBRANCH  27  30
ENDBRANCH  23  25
ENDBRANCH   4  23
TORSDOF 9
ENDMDL
MODEL 9
REMARK VINA RESULT:      -9.7      1.648      2.639
REMARK  Name = 24812758
REMARK  9 active torsions:
REMARK  status: ('A' for Active; 'I' for Inactive)
REMARK    1  A    between atoms: C_1  and  C_11
REMARK    2  A    between atoms: C_4  and  C_23
REMARK    3  A    between atoms: C_9  and  O_14
REMARK    4  A    between atoms: C_10  and  O_16
REMARK    5  A    between atoms: C_12  and  O_18
REMARK    6  A    between atoms: C_13  and  C_20
REMARK    7  A    between atoms: C_20  and  O_21
REMARK    8  A    between atoms: C_23  and  C_25
REMARK    9  A    between atoms: C_27  and  C_30
REMARK                            x       y       z     vdW  Elec       q    Type
REMARK                         _______ _______ _______ _____ _____    ______ ____
ROOT
ATOM      1  C   UNL     1      35.072 -23.123 -16.168  0.00  0.00    +0.007 C 
ATOM      2  C   UNL     1      35.699 -22.924 -17.398  0.00  0.00    -0.006 C 
ATOM      3  C   UNL     1      33.683 -23.030 -16.070  0.00  0.00    -0.002 C 
ATOM      4  C   UNL     1      34.939 -22.632 -18.530  0.00  0.00    -0.021 C 
ATOM      5  C   UNL     1      33.550 -22.539 -18.432  0.00  0.00    -0.025 C 
ATOM      6  C   UNL     1      32.923 -22.738 -17.203  0.00  0.00    -0.005 C 
ATOM      7  C   UNL     1      32.714 -22.229 -19.630  0.00  0.00    +0.031 C 
ENDROOT
BRANCH   1  11
ATOM      8  O   UNL     1      37.084 -24.115 -15.373  0.00  0.00    -0.347 OA
ATOM      9  C   UNL     1      35.121 -24.298 -13.928  0.00  0.00    +0.171 C 
ATOM     10  C   UNL     1      36.024 -24.739 -12.773  0.00  0.00    +0.169 C 
ATOM     11  C   UNL     1      35.898 -23.440 -14.938  0.00  0.00    +0.167 C 
ATOM     12  C   UNL     1      37.338 -25.324 -13.287  0.00  0.00    +0.169 C 
ATOM     13  C   UNL     1      37.991 -24.385 -14.303  0.00  0.00    +0.174 C 
BRANCH   9  14
ATOM     14  O   UNL     1      34.043 -23.522 -13.404  0.00  0.00    -0.379 OA
ATOM     15  H   UNL     1      34.286 -23.180 -12.530  0.00  0.00    +0.211 HD
ENDBRANCH   9  14
BRANCH  10  16
ATOM     16  O   UNL     1      35.360 -25.748 -12.010  0.00  0.00    -0.379 OA
ATOM     17  H   UNL     1      35.996 -26.437 -11.761  0.00  0.00    +0.211 HD
ENDBRANCH  10  16
BRANCH  12  18
ATOM     18  O   UNL     1      38.228 -25.520 -12.191  0.00  0.00    -0.379 OA
ATOM     19  H   UNL     1      39.052 -25.034 -12.353  0.00  0.00    +0.211 HD
ENDBRANCH  12  18
BRANCH  13  20
ATOM     20  C   UNL     1      39.248 -24.996 -14.913  0.00  0.00    +0.169 C 
BRANCH  20  21
ATOM     21  O   UNL     1      39.090 -26.403 -14.957  0.00  0.00    -0.379 OA
ATOM     22  H   UNL     1      38.829 -26.727 -14.080  0.00  0.00    +0.211 HD
ENDBRANCH  20  21
ENDBRANCH  13  20
ENDBRANCH   1  11
BRANCH   4  23
ATOM     23  C   UNL     1      35.632 -22.424 -19.836  0.00  0.00    +0.059 C 
BRANCH  23  25
ATOM     24  S   UNL     1      34.730 -20.054 -20.998  0.00  0.00    -0.091 S 
ATOM     25  C   UNL     1      35.908 -20.970 -20.157  0.00  0.00    +0.012 C 
ATOM     26  C   UNL     1      37.026 -20.224 -19.858  0.00  0.00    +0.003 C 
ATOM     27  C   UNL     1      35.716 -18.654 -20.963  0.00  0.00    +0.029 C 
ATOM     28  C   UNL     1      36.915 -18.882 -20.325  0.00  0.00    +0.007 C 
BRANCH  27  30
ATOM     29  F   UNL     1      33.827 -13.969 -23.317  0.00  0.00    -0.204 F 
ATOM     30  C   UNL     1      35.227 -17.440 -21.573  0.00  0.00    +0.006 C 
ATOM     31  C   UNL     1      35.349 -17.252 -22.950  0.00  0.00    +0.003 C 
ATOM     32  C   UNL     1      34.631 -16.455 -20.786  0.00  0.00    +0.003 C 
ATOM     33  C   UNL     1      34.876 -16.081 -23.539  0.00  0.00    +0.030 C 
ATOM     34  C   UNL     1      34.158 -15.283 -21.375  0.00  0.00    +0.030 C 
ATOM     35  C   UNL     1      34.281 -15.095 -22.752  0.00  0.00    +0.140 C 
ENDBRANCH  27  30
ENDBRANCH  23  25
ENDBRANCH   4  23
TORSDOF 9
ENDMDL
