MODEL 1
REMARK VINA RESULT:     -12.1      0.000      0.000
REMARK  Name = 119057475
REMARK  5 active torsions:
REMARK  status: ('A' for Active; 'I' for Inactive)
REMARK    1  A    between atoms: N_1  and  C_22
REMARK    2  A    between atoms: C_2  and  N_8
REMARK    3  A    between atoms: N_8  and  C_11
REMARK    4  A    between atoms: C_11  and  C_16
REMARK    5  A    between atoms: C_22  and  C_26
REMARK                            x       y       z     vdW  Elec       q    Type
REMARK                         _______ _______ _______ _____ _____    ______ ____
ROOT
ATOM      1  N   UNL     1      34.904 -21.757 -18.672  0.00  0.00    +0.387 N 
ATOM      2  C   UNL     1      34.872 -20.372 -21.250  0.00  0.00    -0.066 C 
ATOM      3  C   UNL     1      33.680 -21.724 -19.484  0.00  0.00    -0.079 C 
ATOM      4  C   UNL     1      36.105 -21.733 -19.520  0.00  0.00    -0.079 C 
ATOM      5  C   UNL     1      33.631 -20.468 -20.360  0.00  0.00    -0.044 C 
ATOM      6  C   UNL     1      36.139 -20.478 -20.396  0.00  0.00    -0.044 C 
ATOM      7  H   UNL     1      34.916 -20.921 -18.088  0.00  0.00    -0.080 HD
ENDROOT
BRANCH   2   8
ATOM      8  N   UNL     1      34.855 -19.123 -22.008  0.00  0.00    +0.389 N 
ATOM      9  H   UNL     1      33.887 -18.856 -22.190  0.00  0.00    -0.084 HD
ATOM     10  H   UNL     1      35.354 -19.266 -22.886  0.00  0.00    -0.084 HD
BRANCH   8  11
ATOM     11  C   UNL     1      35.512 -18.058 -21.266  0.00  0.00    -0.032 C 
BRANCH  11  16
ATOM     12  O   UNL     1      32.502 -14.417 -20.136  0.00  0.00    -0.467 OA
ATOM     13  O   UNL     1      33.351 -13.101 -22.550  0.00  0.00    -0.453 OA
ATOM     14  N   UNL     1      35.311 -16.071 -22.661  0.00  0.00    -0.151 NA
ATOM     15  N   UNL     1      34.780 -14.855 -22.964  0.00  0.00    -0.107 NA
ATOM     16  C   UNL     1      34.896 -16.714 -21.550  0.00  0.00    +0.062 C 
ATOM     17  C   UNL     1      33.955 -16.190 -20.688  0.00  0.00    +0.056 C 
ATOM     18  C   UNL     1      33.425 -14.947 -20.993  0.00  0.00    +0.194 C 
ATOM     19  C   UNL     1      33.848 -14.316 -22.150  0.00  0.00    +0.278 C 
ATOM     20  C   UNL     1      32.276 -13.027 -20.389  0.00  0.00    +0.253 C 
ATOM     21  C   UNL     1      32.131 -12.779 -21.878  0.00  0.00    +0.254 C 
ENDBRANCH  11  16
ENDBRANCH   8  11
ENDBRANCH   2   8
BRANCH   1  22
ATOM     22  C   UNL     1      34.913 -22.934 -17.806  0.00  0.00    -0.071 C 
BRANCH  22  26
ATOM     23  F   UNL     1      32.430 -22.823 -15.659  0.00  0.00    -0.204 F 
ATOM     24  O   UNL     1      39.195 -24.335 -14.860  0.00  0.00    -0.270 OA
ATOM     25  N   UNL     1      36.935 -23.884 -15.063  0.00  0.00    -0.255 N 
ATOM     26  C   UNL     1      35.389 -22.579 -16.404  0.00  0.00    +0.025 C 
ATOM     27  C   UNL     1      36.889 -22.941 -16.188  0.00  0.00    +0.101 C 
ATOM     28  C   UNL     1      34.709 -23.387 -15.334  0.00  0.00    +0.018 C 
ATOM     29  C   UNL     1      35.643 -24.101 -14.605  0.00  0.00    +0.052 C 
ATOM     30  C   UNL     1      35.345 -24.939 -13.550  0.00  0.00    +0.014 C 
ATOM     31  C   UNL     1      33.374 -23.499 -14.994  0.00  0.00    +0.137 C 
ATOM     32  C   UNL     1      38.033 -24.492 -14.496  0.00  0.00    +0.253 C 
ATOM     33  C   UNL     1      34.002 -25.060 -13.204  0.00  0.00    +0.004 C 
ATOM     34  C   UNL     1      33.025 -24.341 -13.924  0.00  0.00    +0.029 C 
ATOM     35  C   UNL     1      36.468 -25.613 -12.905  0.00  0.00    +0.006 C 
ATOM     36  C   UNL     1      37.722 -25.408 -13.343  0.00  0.00    +0.058 C 
ENDBRANCH  22  26
ENDBRANCH   1  22
TORSDOF 5
ENDMDL
MODEL 2
REMARK VINA RESULT:     -12.0      1.688      2.379
REMARK  Name = 119057475
REMARK  5 active torsions:
REMARK  status: ('A' for Active; 'I' for Inactive)
REMARK    1  A    between atoms: N_1  and  C_22
REMARK    2  A    between atoms: C_2  and  N_8
REMARK    3  A    between atoms: N_8  and  C_11
REMARK    4  A    between atoms: C_11  and  C_16
REMARK    5  A    between atoms: C_22  and  C_26
REMARK                            x       y       z     vdW  Elec       q    Type
REMARK                         _______ _______ _______ _____ _____    ______ ____
ROOT
ATOM      1  N   UNL     1      34.371 -22.815 -19.054  0.00  0.00    +0.387 N 
ATOM      2  C   UNL     1      34.789 -20.232 -20.366  0.00  0.00    -0.066 C 
ATOM      3  C   UNL     1      35.691 -22.169 -19.023  0.00  0.00    -0.079 C 
ATOM      4  C   UNL     1      33.292 -21.818 -19.096  0.00  0.00    -0.079 C 
ATOM      5  C   UNL     1      35.899 -21.279 -20.251  0.00  0.00    -0.044 C 
ATOM      6  C   UNL     1      33.419 -20.916 -20.326  0.00  0.00    -0.044 C 
ATOM      7  H   UNL     1      34.316 -23.373 -19.906  0.00  0.00    -0.080 HD
ENDROOT
BRANCH   2   8
ATOM      8  N   UNL     1      34.951 -19.454 -21.592  0.00  0.00    +0.389 N 
ATOM      9  H   UNL     1      34.032 -19.282 -22.001  0.00  0.00    -0.084 HD
ATOM     10  H   UNL     1      35.534 -19.983 -22.240  0.00  0.00    -0.084 HD
BRANCH   8  11
ATOM     11  C   UNL     1      35.597 -18.180 -21.315  0.00  0.00    -0.032 C 
BRANCH  11  16
ATOM     12  O   UNL     1      34.282 -16.146 -25.525  0.00  0.00    -0.467 OA
ATOM     13  O   UNL     1      33.324 -13.890 -24.019  0.00  0.00    -0.453 OA
ATOM     14  N   UNL     1      34.500 -16.008 -21.410  0.00  0.00    -0.151 NA
ATOM     15  N   UNL     1      33.940 -14.964 -22.081  0.00  0.00    -0.107 NA
ATOM     16  C   UNL     1      34.984 -17.057 -22.107  0.00  0.00    +0.062 C 
ATOM     17  C   UNL     1      34.930 -17.131 -23.484  0.00  0.00    +0.056 C 
ATOM     18  C   UNL     1      34.350 -16.073 -24.163  0.00  0.00    +0.194 C 
ATOM     19  C   UNL     1      33.881 -14.997 -23.430  0.00  0.00    +0.278 C 
ATOM     20  C   UNL     1      33.396 -15.163 -26.070  0.00  0.00    +0.253 C 
ATOM     21  C   UNL     1      33.636 -13.818 -25.413  0.00  0.00    +0.254 C 
ENDBRANCH  11  16
ENDBRANCH   8  11
ENDBRANCH   2   8
BRANCH   1  22
ATOM     22  C   UNL     1      34.206 -23.700 -17.902  0.00  0.00    -0.071 C 
BRANCH  22  26
ATOM     23  F   UNL     1      31.282 -23.292 -16.464  0.00  0.00    -0.204 F 
ATOM     24  O   UNL     1      37.728 -23.750 -13.830  0.00  0.00    -0.270 OA
ATOM     25  N   UNL     1      35.562 -23.631 -14.635  0.00  0.00    -0.255 N 
ATOM     26  C   UNL     1      34.318 -22.925 -16.596  0.00  0.00    +0.025 C 
ATOM     27  C   UNL     1      35.739 -23.042 -15.968  0.00  0.00    +0.101 C 
ATOM     28  C   UNL     1      33.443 -23.484 -15.509  0.00  0.00    +0.018 C 
ATOM     29  C   UNL     1      34.210 -23.862 -14.422  0.00  0.00    +0.052 C 
ATOM     30  C   UNL     1      33.710 -24.409 -13.258  0.00  0.00    +0.014 C 
ATOM     31  C   UNL     1      32.072 -23.650 -15.445  0.00  0.00    +0.137 C 
ATOM     32  C   UNL     1      36.521 -23.933 -13.694  0.00  0.00    +0.253 C 
ATOM     33  C   UNL     1      32.331 -24.583 -13.187  0.00  0.00    +0.004 C 
ATOM     34  C   UNL     1      31.520 -24.204 -14.277  0.00  0.00    +0.029 C 
ATOM     35  C   UNL     1      34.679 -24.749 -12.220  0.00  0.00    +0.006 C 
ATOM     36  C   UNL     1      35.990 -24.530 -12.419  0.00  0.00    +0.058 C 
ENDBRANCH  22  26
ENDBRANCH   1  22
TORSDOF 5
ENDMDL
MODEL 3
REMARK VINA RESULT:     -11.9      1.777      2.353
REMARK  Name = 119057475
REMARK  5 active torsions:
REMARK  status: ('A' for Active; 'I' for Inactive)
REMARK    1  A    between atoms: N_1  and  C_22
REMARK    2  A    between atoms: C_2  and  N_8
REMARK    3  A    between atoms: N_8  and  C_11
REMARK    4  A    between atoms: C_11  and  C_16
REMARK    5  A    between atoms: C_22  and  C_26
REMARK                            x       y       z     vdW  Elec       q    Type
REMARK                         _______ _______ _______ _____ _____    ______ ____
ROOT
ATOM      1  N   UNL     1      34.729 -22.628 -19.209  0.00  0.00    +0.387 N 
ATOM      2  C   UNL     1      35.326 -20.035 -20.427  0.00  0.00    -0.066 C 
ATOM      3  C   UNL     1      36.050 -22.009 -19.033  0.00  0.00    -0.079 C 
ATOM      4  C   UNL     1      33.678 -21.609 -19.343  0.00  0.00    -0.079 C 
ATOM      5  C   UNL     1      36.399 -21.105 -20.218  0.00  0.00    -0.044 C 
ATOM      6  C   UNL     1      33.947 -20.692 -20.539  0.00  0.00    -0.044 C 
ATOM      7  H   UNL     1      34.750 -23.172 -20.071  0.00  0.00    -0.080 HD
ENDROOT
BRANCH   2   8
ATOM      8  N   UNL     1      35.625 -19.242 -21.617  0.00  0.00    +0.389 N 
ATOM      9  H   UNL     1      35.058 -19.580 -22.395  0.00  0.00    -0.084 HD
ATOM     10  H   UNL     1      36.617 -19.339 -21.834  0.00  0.00    -0.084 HD
BRANCH   8  11
ATOM     11  C   UNL     1      35.333 -17.835 -21.389  0.00  0.00    -0.032 C 
BRANCH  11  16
ATOM     12  O   UNL     1      33.816 -13.895 -23.790  0.00  0.00    -0.467 OA
ATOM     13  O   UNL     1      33.780 -15.491 -26.183  0.00  0.00    -0.453 OA
ATOM     14  N   UNL     1      34.924 -17.866 -23.790  0.00  0.00    -0.151 NA
ATOM     15  N   UNL     1      34.547 -17.281 -24.960  0.00  0.00    -0.107 NA
ATOM     16  C   UNL     1      34.913 -17.137 -22.655  0.00  0.00    +0.062 C 
ATOM     17  C   UNL     1      34.542 -15.808 -22.621  0.00  0.00    +0.056 C 
ATOM     18  C   UNL     1      34.170 -15.213 -23.815  0.00  0.00    +0.194 C 
ATOM     19  C   UNL     1      34.167 -15.986 -24.963  0.00  0.00    +0.278 C 
ATOM     20  C   UNL     1      33.763 -13.331 -25.104  0.00  0.00    +0.253 C 
ATOM     21  C   UNL     1      33.045 -14.272 -26.052  0.00  0.00    +0.254 C 
ENDBRANCH  11  16
ENDBRANCH   8  11
ENDBRANCH   2   8
BRANCH   1  22
ATOM     22  C   UNL     1      34.432 -23.526 -18.094  0.00  0.00    -0.071 C 
BRANCH  22  26
ATOM     23  F   UNL     1      31.458 -23.091 -16.772  0.00  0.00    -0.204 F 
ATOM     24  O   UNL     1      37.771 -23.769 -13.879  0.00  0.00    -0.270 OA
ATOM     25  N   UNL     1      35.645 -23.579 -14.771  0.00  0.00    -0.255 N 
ATOM     26  C   UNL     1      34.504 -22.790 -16.764  0.00  0.00    +0.025 C 
ATOM     27  C   UNL     1      35.893 -22.957 -16.079  0.00  0.00    +0.101 C 
ATOM     28  C   UNL     1      33.569 -23.358 -15.731  0.00  0.00    +0.018 C 
ATOM     29  C   UNL     1      34.281 -23.783 -14.623  0.00  0.00    +0.052 C 
ATOM     30  C   UNL     1      33.719 -24.351 -13.498  0.00  0.00    +0.014 C 
ATOM     31  C   UNL     1      32.195 -23.495 -15.730  0.00  0.00    +0.137 C 
ATOM     32  C   UNL     1      36.556 -23.928 -13.799  0.00  0.00    +0.253 C 
ATOM     33  C   UNL     1      32.335 -24.496 -13.491  0.00  0.00    +0.004 C 
ATOM     34  C   UNL     1      31.580 -24.068 -14.604  0.00  0.00    +0.029 C 
ATOM     35  C   UNL     1      34.634 -24.742 -12.430  0.00  0.00    +0.006 C 
ATOM     36  C   UNL     1      35.957 -24.547 -12.566  0.00  0.00    +0.058 C 
ENDBRANCH  22  26
ENDBRANCH   1  22
TORSDOF 5
ENDMDL
MODEL 4
REMARK VINA RESULT:     -11.9      1.107      1.514
REMARK  Name = 119057475
REMARK  5 active torsions:
REMARK  status: ('A' for Active; 'I' for Inactive)
REMARK    1  A    between atoms: N_1  and  C_22
REMARK    2  A    between atoms: C_2  and  N_8
REMARK    3  A    between atoms: N_8  and  C_11
REMARK    4  A    between atoms: C_11  and  C_16
REMARK    5  A    between atoms: C_22  and  C_26
REMARK                            x       y       z     vdW  Elec       q    Type
REMARK                         _______ _______ _______ _____ _____    ______ ____
ROOT
ATOM      1  N   UNL     1      34.807 -21.949 -18.418  0.00  0.00    +0.387 N 
ATOM      2  C   UNL     1      34.733 -20.660 -21.044  0.00  0.00    -0.066 C 
ATOM      3  C   UNL     1      33.574 -21.960 -19.218  0.00  0.00    -0.079 C 
ATOM      4  C   UNL     1      35.999 -21.942 -19.277  0.00  0.00    -0.079 C 
ATOM      5  C   UNL     1      33.503 -20.738 -20.138  0.00  0.00    -0.044 C 
ATOM      6  C   UNL     1      36.009 -20.720 -20.199  0.00  0.00    -0.044 C 
ATOM      7  H   UNL     1      34.813 -21.092 -17.864  0.00  0.00    -0.080 HD
ENDROOT
BRANCH   2   8
ATOM      8  N   UNL     1      34.695 -19.440 -21.847  0.00  0.00    +0.389 N 
ATOM      9  H   UNL     1      33.725 -19.140 -21.952  0.00  0.00    -0.084 HD
ATOM     10  H   UNL     1      35.106 -19.635 -22.759  0.00  0.00    -0.084 HD
BRANCH   8  11
ATOM     11  C   UNL     1      35.456 -18.376 -21.210  0.00  0.00    -0.032 C 
BRANCH  11  16
ATOM     12  O   UNL     1      34.208 -15.113 -24.584  0.00  0.00    -0.467 OA
ATOM     13  O   UNL     1      33.651 -13.268 -22.449  0.00  0.00    -0.453 OA
ATOM     14  N   UNL     1      34.664 -16.150 -20.620  0.00  0.00    -0.151 NA
ATOM     15  N   UNL     1      34.217 -14.902 -20.933  0.00  0.00    -0.107 NA
ATOM     16  C   UNL     1      34.961 -17.013 -21.613  0.00  0.00    +0.062 C 
ATOM     17  C   UNL     1      34.824 -16.695 -22.949  0.00  0.00    +0.056 C 
ATOM     18  C   UNL     1      34.359 -15.429 -23.264  0.00  0.00    +0.194 C 
ATOM     19  C   UNL     1      34.082 -14.552 -22.230  0.00  0.00    +0.278 C 
ATOM     20  C   UNL     1      33.438 -13.921 -24.764  0.00  0.00    +0.253 C 
ATOM     21  C   UNL     1      33.894 -12.849 -23.794  0.00  0.00    +0.254 C 
ENDBRANCH  11  16
ENDBRANCH   8  11
ENDBRANCH   2   8
BRANCH   1  22
ATOM     22  C   UNL     1      34.837 -23.094 -17.509  0.00  0.00    -0.071 C 
BRANCH  22  26
ATOM     23  F   UNL     1      32.469 -22.840 -15.249  0.00  0.00    -0.204 F 
ATOM     24  O   UNL     1      39.230 -24.486 -14.725  0.00  0.00    -0.270 OA
ATOM     25  N   UNL     1      36.973 -23.988 -14.834  0.00  0.00    -0.255 N 
ATOM     26  C   UNL     1      35.391 -22.698 -16.148  0.00  0.00    +0.025 C 
ATOM     27  C   UNL     1      36.891 -23.088 -15.992  0.00  0.00    +0.101 C 
ATOM     28  C   UNL     1      34.747 -23.448 -15.014  0.00  0.00    +0.018 C 
ATOM     29  C   UNL     1      35.701 -24.156 -14.305  0.00  0.00    +0.052 C 
ATOM     30  C   UNL     1      35.437 -24.946 -13.204  0.00  0.00    +0.014 C 
ATOM     31  C   UNL     1      33.429 -23.514 -14.604  0.00  0.00    +0.137 C 
ATOM     32  C   UNL     1      38.084 -24.601 -14.298  0.00  0.00    +0.253 C 
ATOM     33  C   UNL     1      34.111 -25.021 -12.788  0.00  0.00    +0.004 C 
ATOM     34  C   UNL     1      33.115 -24.306 -13.487  0.00  0.00    +0.029 C 
ATOM     35  C   UNL     1      36.576 -25.622 -12.590  0.00  0.00    +0.006 C 
ATOM     36  C   UNL     1      37.811 -25.464 -13.096  0.00  0.00    +0.058 C 
ENDBRANCH  22  26
ENDBRANCH   1  22
TORSDOF 5
ENDMDL
MODEL 5
REMARK VINA RESULT:     -11.8      1.071      1.602
REMARK  Name = 119057475
REMARK  5 active torsions:
REMARK  status: ('A' for Active; 'I' for Inactive)
REMARK    1  A    between atoms: N_1  and  C_22
REMARK    2  A    between atoms: C_2  and  N_8
REMARK    3  A    between atoms: N_8  and  C_11
REMARK    4  A    between atoms: C_11  and  C_16
REMARK    5  A    between atoms: C_22  and  C_26
REMARK                            x       y       z     vdW  Elec       q    Type
REMARK                         _______ _______ _______ _____ _____    ______ ____
ROOT
ATOM      1  N   UNL     1      33.990 -22.757 -19.188  0.00  0.00    +0.387 N 
ATOM      2  C   UNL     1      34.645 -20.185 -20.420  0.00  0.00    -0.066 C 
ATOM      3  C   UNL     1      35.381 -22.285 -19.230  0.00  0.00    -0.079 C 
ATOM      4  C   UNL     1      33.048 -21.631 -19.107  0.00  0.00    -0.079 C 
ATOM      5  C   UNL     1      35.616 -21.367 -20.433  0.00  0.00    -0.044 C 
ATOM      6  C   UNL     1      33.205 -20.692 -20.306  0.00  0.00    -0.044 C 
ATOM      7  H   UNL     1      33.804 -23.260 -20.056  0.00  0.00    -0.080 HD
ENDROOT
BRANCH   2   8
ATOM      8  N   UNL     1      34.821 -19.372 -21.622  0.00  0.00    +0.389 N 
ATOM      9  H   UNL     1      33.913 -19.007 -21.913  0.00  0.00    -0.084 HD
ATOM     10  H   UNL     1      35.220 -19.956 -22.356  0.00  0.00    -0.084 HD
BRANCH   8  11
ATOM     11  C   UNL     1      35.723 -18.259 -21.367  0.00  0.00    -0.032 C 
BRANCH  11  16
ATOM     12  O   UNL     1      32.694 -14.657 -20.167  0.00  0.00    -0.467 OA
ATOM     13  O   UNL     1      33.412 -13.367 -22.636  0.00  0.00    -0.453 OA
ATOM     14  N   UNL     1      35.423 -16.301 -22.784  0.00  0.00    -0.151 NA
ATOM     15  N   UNL     1      34.855 -15.100 -23.084  0.00  0.00    -0.107 NA
ATOM     16  C   UNL     1      35.069 -16.932 -21.646  0.00  0.00    +0.062 C 
ATOM     17  C   UNL     1      34.156 -16.411 -20.752  0.00  0.00    +0.056 C 
ATOM     18  C   UNL     1      33.589 -15.184 -21.054  0.00  0.00    +0.194 C 
ATOM     19  C   UNL     1      33.949 -14.566 -22.238  0.00  0.00    +0.278 C 
ATOM     20  C   UNL     1      32.430 -13.275 -20.432  0.00  0.00    +0.253 C 
ATOM     21  C   UNL     1      32.216 -13.056 -21.917  0.00  0.00    +0.254 C 
ENDBRANCH  11  16
ENDBRANCH   8  11
ENDBRANCH   2   8
BRANCH   1  22
ATOM     22  C   UNL     1      33.793 -23.671 -18.064  0.00  0.00    -0.071 C 
BRANCH  22  26
ATOM     23  F   UNL     1      30.874 -23.369 -16.589  0.00  0.00    -0.204 F 
ATOM     24  O   UNL     1      37.352 -23.779 -14.027  0.00  0.00    -0.270 OA
ATOM     25  N   UNL     1      35.177 -23.679 -14.808  0.00  0.00    -0.255 N 
ATOM     26  C   UNL     1      33.901 -22.936 -16.736  0.00  0.00    +0.025 C 
ATOM     27  C   UNL     1      35.330 -23.044 -16.124  0.00  0.00    +0.101 C 
ATOM     28  C   UNL     1      33.047 -23.547 -15.659  0.00  0.00    +0.018 C 
ATOM     29  C   UNL     1      33.832 -23.943 -14.591  0.00  0.00    +0.052 C 
ATOM     30  C   UNL     1      33.354 -24.538 -13.441  0.00  0.00    +0.014 C 
ATOM     31  C   UNL     1      31.681 -23.743 -15.589  0.00  0.00    +0.137 C 
ATOM     32  C   UNL     1      36.150 -23.991 -13.886  0.00  0.00    +0.253 C 
ATOM     33  C   UNL     1      31.979 -24.742 -13.364  0.00  0.00    +0.004 C 
ATOM     34  C   UNL     1      31.150 -24.345 -14.435  0.00  0.00    +0.029 C 
ATOM     35  C   UNL     1      34.339 -24.891 -12.423  0.00  0.00    +0.006 C 
ATOM     36  C   UNL     1      35.643 -24.639 -12.627  0.00  0.00    +0.058 C 
ENDBRANCH  22  26
ENDBRANCH   1  22
TORSDOF 5
ENDMDL
MODEL 6
REMARK VINA RESULT:     -11.7      3.477     11.663
REMARK  Name = 119057475
REMARK  5 active torsions:
REMARK  status: ('A' for Active; 'I' for Inactive)
REMARK    1  A    between atoms: N_1  and  C_22
REMARK    2  A    between atoms: C_2  and  N_8
REMARK    3  A    between atoms: N_8  and  C_11
REMARK    4  A    between atoms: C_11  and  C_16
REMARK    5  A    between atoms: C_22  and  C_26
REMARK                            x       y       z     vdW  Elec       q    Type
REMARK                         _______ _______ _______ _____ _____    ______ ____
ROOT
ATOM      1  N   UNL     1      34.287 -14.844 -22.587  0.00  0.00    +0.387 N 
ATOM      2  C   UNL     1      35.142 -17.642 -22.529  0.00  0.00    -0.066 C 
ATOM      3  C   UNL     1      34.820 -15.434 -21.351  0.00  0.00    -0.079 C 
ATOM      4  C   UNL     1      34.891 -15.462 -23.775  0.00  0.00    -0.079 C 
ATOM      5  C   UNL     1      34.557 -16.941 -21.301  0.00  0.00    -0.044 C 
ATOM      6  C   UNL     1      34.631 -16.971 -23.807  0.00  0.00    -0.044 C 
ATOM      7  H   UNL     1      33.284 -15.026 -22.614  0.00  0.00    -0.080 HD
ENDROOT
BRANCH   2   8
ATOM      8  N   UNL     1      34.801 -19.063 -22.512  0.00  0.00    +0.389 N 
ATOM      9  H   UNL     1      34.906 -19.442 -23.453  0.00  0.00    -0.084 HD
ATOM     10  H   UNL     1      33.837 -19.164 -22.194  0.00  0.00    -0.084 HD
BRANCH   8  11
ATOM     11  C   UNL     1      35.672 -19.793 -21.603  0.00  0.00    -0.032 C 
BRANCH  11  16
ATOM     12  O   UNL     1      35.427 -22.773 -17.776  0.00  0.00    -0.467 OA
ATOM     13  O   UNL     1      32.562 -22.693 -18.024  0.00  0.00    -0.453 OA
ATOM     14  N   UNL     1      33.543 -20.535 -20.681  0.00  0.00    -0.151 NA
ATOM     15  N   UNL     1      32.790 -21.245 -19.796  0.00  0.00    -0.107 NA
ATOM     16  C   UNL     1      34.888 -20.592 -20.596  0.00  0.00    +0.062 C 
ATOM     17  C   UNL     1      35.549 -21.335 -19.639  0.00  0.00    +0.056 C 
ATOM     18  C   UNL     1      34.779 -22.047 -18.734  0.00  0.00    +0.194 C 
ATOM     19  C   UNL     1      33.402 -21.993 -18.854  0.00  0.00    +0.278 C 
ATOM     20  C   UNL     1      34.540 -23.194 -16.734  0.00  0.00    +0.253 C 
ATOM     21  C   UNL     1      33.252 -23.731 -17.325  0.00  0.00    +0.254 C 
ENDBRANCH  11  16
ENDBRANCH   8  11
ENDBRANCH   2   8
BRANCH   1  22
ATOM     22  C   UNL     1      34.500 -13.397 -22.598  0.00  0.00    -0.071 C 
BRANCH  22  26
ATOM     23  F   UNL     1      32.101 -14.332 -20.560  0.00  0.00    -0.204 F 
ATOM     24  O   UNL     1      33.316  -8.295 -23.841  0.00  0.00    -0.270 OA
ATOM     25  N   UNL     1      32.878 -10.255 -22.693  0.00  0.00    -0.255 N 
ATOM     26  C   UNL     1      33.200 -12.654 -22.872  0.00  0.00    +0.025 C 
ATOM     27  C   UNL     1      33.447 -11.285 -23.572  0.00  0.00    +0.101 C 
ATOM     28  C   UNL     1      32.486 -12.245 -21.614  0.00  0.00    +0.018 C 
ATOM     29  C   UNL     1      32.330 -10.871 -21.576  0.00  0.00    +0.052 C 
ATOM     30  C   UNL     1      31.713 -10.176 -20.556  0.00  0.00    +0.014 C 
ATOM     31  C   UNL     1      31.987 -12.999 -20.569  0.00  0.00    +0.137 C 
ATOM     32  C   UNL     1      32.849  -8.890 -22.874  0.00  0.00    +0.253 C 
ATOM     33  C   UNL     1      31.211 -10.928 -19.498  0.00  0.00    +0.004 C 
ATOM     34  C   UNL     1      31.349 -12.333 -19.508  0.00  0.00    +0.029 C 
ATOM     35  C   UNL     1      31.648  -8.724 -20.692  0.00  0.00    +0.006 C 
ATOM     36  C   UNL     1      32.177  -8.121 -21.770  0.00  0.00    +0.058 C 
ENDBRANCH  22  26
ENDBRANCH   1  22
TORSDOF 5
ENDMDL
MODEL 7
REMARK VINA RESULT:     -11.7      2.733      3.913
REMARK  Name = 119057475
REMARK  5 active torsions:
REMARK  status: ('A' for Active; 'I' for Inactive)
REMARK    1  A    between atoms: N_1  and  C_22
REMARK    2  A    between atoms: C_2  and  N_8
REMARK    3  A    between atoms: N_8  and  C_11
REMARK    4  A    between atoms: C_11  and  C_16
REMARK    5  A    between atoms: C_22  and  C_26
REMARK                            x       y       z     vdW  Elec       q    Type
REMARK                         _______ _______ _______ _____ _____    ______ ____
ROOT
ATOM      1  N   UNL     1      34.960 -22.067 -18.866  0.00  0.00    +0.387 N 
ATOM      2  C   UNL     1      34.774 -20.058 -20.986  0.00  0.00    -0.066 C 
ATOM      3  C   UNL     1      36.141 -21.282 -19.253  0.00  0.00    -0.079 C 
ATOM      4  C   UNL     1      33.724 -21.295 -19.054  0.00  0.00    -0.079 C 
ATOM      5  C   UNL     1      36.058 -20.847 -20.719  0.00  0.00    -0.044 C 
ATOM      6  C   UNL     1      33.559 -20.861 -20.513  0.00  0.00    -0.044 C 
ATOM      7  H   UNL     1      34.915 -22.885 -19.473  0.00  0.00    -0.080 HD
ENDROOT
BRANCH   2   8
ATOM      8  N   UNL     1      34.666 -19.733 -22.407  0.00  0.00    +0.389 N 
ATOM      9  H   UNL     1      33.746 -19.328 -22.587  0.00  0.00    -0.084 HD
ATOM     10  H   UNL     1      34.789 -20.588 -22.949  0.00  0.00    -0.084 HD
BRANCH   8  11
ATOM     11  C   UNL     1      35.692 -18.780 -22.799  0.00  0.00    -0.032 C 
BRANCH  11  16
ATOM     12  O   UNL     1      33.870 -15.675 -26.060  0.00  0.00    -0.467 OA
ATOM     13  O   UNL     1      33.581 -13.764 -23.928  0.00  0.00    -0.453 OA
ATOM     14  N   UNL     1      34.932 -16.551 -22.174  0.00  0.00    -0.151 NA
ATOM     15  N   UNL     1      34.410 -15.327 -22.459  0.00  0.00    -0.107 NA
ATOM     16  C   UNL     1      35.105 -17.444 -23.170  0.00  0.00    +0.062 C 
ATOM     17  C   UNL     1      34.764 -17.179 -24.481  0.00  0.00    +0.056 C 
ATOM     18  C   UNL     1      34.221 -15.938 -24.766  0.00  0.00    +0.194 C 
ATOM     19  C   UNL     1      34.076 -15.029 -23.733  0.00  0.00    +0.278 C 
ATOM     20  C   UNL     1      33.048 -14.508 -26.163  0.00  0.00    +0.253 C 
ATOM     21  C   UNL     1      33.611 -13.390 -25.307  0.00  0.00    +0.254 C 
ENDBRANCH  11  16
ENDBRANCH   8  11
ENDBRANCH   2   8
BRANCH   1  22
ATOM     22  C   UNL     1      35.077 -22.517 -17.480  0.00  0.00    -0.071 C 
BRANCH  22  26
ATOM     23  F   UNL     1      36.311 -24.681 -15.340  0.00  0.00    -0.204 F 
ATOM     24  O   UNL     1      29.753 -22.734 -16.715  0.00  0.00    -0.270 OA
ATOM     25  N   UNL     1      31.905 -23.394 -16.182  0.00  0.00    -0.255 N 
ATOM     26  C   UNL     1      34.100 -23.647 -17.187  0.00  0.00    +0.025 C 
ATOM     27  C   UNL     1      32.624 -23.225 -17.452  0.00  0.00    +0.101 C 
ATOM     28  C   UNL     1      34.067 -24.029 -15.733  0.00  0.00    +0.018 C 
ATOM     29  C   UNL     1      32.790 -23.866 -15.224  0.00  0.00    +0.052 C 
ATOM     30  C   UNL     1      32.424 -24.132 -13.920  0.00  0.00    +0.014 C 
ATOM     31  C   UNL     1      35.062 -24.497 -14.896  0.00  0.00    +0.137 C 
ATOM     32  C   UNL     1      30.578 -23.150 -15.907  0.00  0.00    +0.253 C 
ATOM     33  C   UNL     1      33.422 -24.600 -13.070  0.00  0.00    +0.004 C 
ATOM     34  C   UNL     1      34.732 -24.781 -13.560  0.00  0.00    +0.029 C 
ATOM     35  C   UNL     1      31.028 -23.894 -13.567  0.00  0.00    +0.006 C 
ATOM     36  C   UNL     1      30.164 -23.437 -14.489  0.00  0.00    +0.058 C 
ENDBRANCH  22  26
ENDBRANCH   1  22
TORSDOF 5
ENDMDL
MODEL 8
REMARK VINA RESULT:     -11.7      2.822     10.941
REMARK  Name = 119057475
REMARK  5 active torsions:
REMARK  status: ('A' for Active; 'I' for Inactive)
REMARK    1  A    between atoms: N_1  and  C_22
REMARK    2  A    between atoms: C_2  and  N_8
REMARK    3  A    between atoms: N_8  and  C_11
REMARK    4  A    between atoms: C_11  and  C_16
REMARK    5  A    between atoms: C_22  and  C_26
REMARK                            x       y       z     vdW  Elec       q    Type
REMARK                         _______ _______ _______ _____ _____    ______ ____
ROOT
ATOM      1  N   UNL     1      34.360 -20.322 -20.176  0.00  0.00    +0.387 N 
ATOM      2  C   UNL     1      35.034 -22.634 -18.515  0.00  0.00    -0.066 C 
ATOM      3  C   UNL     1      35.687 -20.947 -20.273  0.00  0.00    -0.079 C 
ATOM      4  C   UNL     1      33.331 -21.310 -19.823  0.00  0.00    -0.079 C 
ATOM      5  C   UNL     1      36.083 -21.609 -18.951  0.00  0.00    -0.044 C 
ATOM      6  C   UNL     1      33.648 -21.985 -18.486  0.00  0.00    -0.044 C 
ATOM      7  H   UNL     1      34.395 -19.626 -19.432  0.00  0.00    -0.080 HD
ENDROOT
BRANCH   2   8
ATOM      8  N   UNL     1      35.380 -23.187 -17.207  0.00  0.00    +0.389 N 
ATOM      9  H   UNL     1      35.855 -22.471 -16.657  0.00  0.00    -0.084 HD
ATOM     10  H   UNL     1      35.990 -23.993 -17.343  0.00  0.00    -0.084 HD
BRANCH   8  11
ATOM     11  C   UNL     1      34.187 -23.621 -16.496  0.00  0.00    -0.032 C 
BRANCH  11  16
ATOM     12  O   UNL     1      37.077 -23.359 -12.602  0.00  0.00    -0.467 OA
ATOM     13  O   UNL     1      34.941 -24.522 -11.064  0.00  0.00    -0.453 OA
ATOM     14  N   UNL     1      33.447 -24.342 -14.291  0.00  0.00    -0.151 NA
ATOM     15  N   UNL     1      33.639 -24.554 -12.960  0.00  0.00    -0.107 NA
ATOM     16  C   UNL     1      34.452 -23.829 -15.029  0.00  0.00    +0.062 C 
ATOM     17  C   UNL     1      35.680 -23.494 -14.495  0.00  0.00    +0.056 C 
ATOM     18  C   UNL     1      35.869 -23.701 -13.139  0.00  0.00    +0.194 C 
ATOM     19  C   UNL     1      34.832 -24.250 -12.405  0.00  0.00    +0.278 C 
ATOM     20  C   UNL     1      37.035 -23.323 -11.172  0.00  0.00    +0.253 C 
ATOM     21  C   UNL     1      36.305 -24.540 -10.637  0.00  0.00    +0.254 C 
ENDBRANCH  11  16
ENDBRANCH   8  11
ENDBRANCH   2   8
BRANCH   1  22
ATOM     22  C   UNL     1      34.017 -19.651 -21.430  0.00  0.00    -0.071 C 
BRANCH  22  26
ATOM     23  F   UNL     1      34.846 -19.702 -24.607  0.00  0.00    -0.204 F 
ATOM     24  O   UNL     1      34.629 -14.512 -19.946  0.00  0.00    -0.270 OA
ATOM     25  N   UNL     1      34.684 -16.179 -21.550  0.00  0.00    -0.255 N 
ATOM     26  C   UNL     1      35.035 -18.571 -21.768  0.00  0.00    +0.025 C 
ATOM     27  C   UNL     1      34.981 -17.382 -20.763  0.00  0.00    +0.101 C 
ATOM     28  C   UNL     1      34.751 -17.892 -23.080  0.00  0.00    +0.018 C 
ATOM     29  C   UNL     1      34.566 -16.534 -22.886  0.00  0.00    +0.052 C 
ATOM     30  C   UNL     1      34.290 -15.627 -23.889  0.00  0.00    +0.014 C 
ATOM     31  C   UNL     1      34.666 -18.398 -24.363  0.00  0.00    +0.137 C 
ATOM     32  C   UNL     1      34.535 -14.881 -21.114  0.00  0.00    +0.253 C 
ATOM     33  C   UNL     1      34.200 -16.130 -25.184  0.00  0.00    +0.004 C 
ATOM     34  C   UNL     1      34.388 -17.509 -25.415  0.00  0.00    +0.029 C 
ATOM     35  C   UNL     1      34.123 -14.233 -23.489  0.00  0.00    +0.006 C 
ATOM     36  C   UNL     1      34.235 -13.881 -22.197  0.00  0.00    +0.058 C 
ENDBRANCH  22  26
ENDBRANCH   1  22
TORSDOF 5
ENDMDL
MODEL 9
REMARK VINA RESULT:     -11.6      2.457     11.211
REMARK  Name = 119057475
REMARK  5 active torsions:
REMARK  status: ('A' for Active; 'I' for Inactive)
REMARK    1  A    between atoms: N_1  and  C_22
REMARK    2  A    between atoms: C_2  and  N_8
REMARK    3  A    between atoms: N_8  and  C_11
REMARK    4  A    between atoms: C_11  and  C_16
REMARK    5  A    between atoms: C_22  and  C_26
REMARK                            x       y       z     vdW  Elec       q    Type
REMARK                         _______ _______ _______ _____ _____    ______ ____
ROOT
ATOM      1  N   UNL     1      35.843 -18.792 -20.998  0.00  0.00    +0.387 N 
ATOM      2  C   UNL     1      35.924 -21.482 -19.847  0.00  0.00    -0.066 C 
ATOM      3  C   UNL     1      37.128 -19.475 -20.790  0.00  0.00    -0.079 C 
ATOM      4  C   UNL     1      34.769 -19.755 -21.279  0.00  0.00    -0.079 C 
ATOM      5  C   UNL     1      37.046 -20.465 -19.625  0.00  0.00    -0.044 C 
ATOM      6  C   UNL     1      34.607 -20.754 -20.130  0.00  0.00    -0.044 C 
ATOM      7  H   UNL     1      35.607 -18.301 -20.136  0.00  0.00    -0.080 HD
ENDROOT
BRANCH   2   8
ATOM      8  N   UNL     1      35.798 -22.358 -18.684  0.00  0.00    +0.389 N 
ATOM      9  H   UNL     1      35.989 -23.319 -18.969  0.00  0.00    -0.084 HD
ATOM     10  H   UNL     1      34.851 -22.279 -18.316  0.00  0.00    -0.084 HD
BRANCH   8  11
ATOM     11  C   UNL     1      36.738 -21.974 -17.642  0.00  0.00    -0.032 C 
BRANCH  11  16
ATOM     12  O   UNL     1      38.431 -24.223 -13.683  0.00  0.00    -0.467 OA
ATOM     13  O   UNL     1      35.716 -24.930 -13.048  0.00  0.00    -0.453 OA
ATOM     14  N   UNL     1      35.257 -23.075 -16.052  0.00  0.00    -0.151 NA
ATOM     15  N   UNL     1      35.017 -23.795 -14.922  0.00  0.00    -0.107 NA
ATOM     16  C   UNL     1      36.529 -22.766 -16.379  0.00  0.00    +0.062 C 
ATOM     17  C   UNL     1      37.613 -23.140 -15.610  0.00  0.00    +0.056 C 
ATOM     18  C   UNL     1      37.364 -23.862 -14.455  0.00  0.00    +0.194 C 
ATOM     19  C   UNL     1      36.053 -24.188 -14.151  0.00  0.00    +0.278 C 
ATOM     20  C   UNL     1      38.025 -24.675 -12.388  0.00  0.00    +0.253 C 
ATOM     21  C   UNL     1      36.845 -25.620 -12.507  0.00  0.00    +0.254 C 
ENDBRANCH  11  16
ENDBRANCH   8  11
ENDBRANCH   2   8
BRANCH   1  22
ATOM     22  C   UNL     1      35.951 -17.815 -22.080  0.00  0.00    -0.071 C 
BRANCH  22  26
ATOM     23  F   UNL     1      34.383 -16.272 -19.642  0.00  0.00    -0.204 F 
ATOM     24  O   UNL     1      34.050 -15.541 -26.574  0.00  0.00    -0.270 OA
ATOM     25  N   UNL     1      34.143 -15.704 -24.268  0.00  0.00    -0.255 N 
ATOM     26  C   UNL     1      34.577 -17.322 -22.511  0.00  0.00    +0.025 C 
ATOM     27  C   UNL     1      34.489 -17.115 -24.052  0.00  0.00    +0.101 C 
ATOM     28  C   UNL     1      34.259 -15.949 -21.987  0.00  0.00    +0.018 C 
ATOM     29  C   UNL     1      34.018 -15.079 -23.035  0.00  0.00    +0.052 C 
ATOM     30  C   UNL     1      33.696 -13.745 -22.892  0.00  0.00    +0.014 C 
ATOM     31  C   UNL     1      34.169 -15.471 -20.693  0.00  0.00    +0.137 C 
ATOM     32  C   UNL     1      33.953 -15.037 -25.458  0.00  0.00    +0.253 C 
ATOM     33  C   UNL     1      33.607 -13.255 -21.593  0.00  0.00    +0.004 C 
ATOM     34  C   UNL     1      33.843 -14.118 -20.501  0.00  0.00    +0.029 C 
ATOM     35  C   UNL     1      33.481 -12.984 -24.120  0.00  0.00    +0.006 C 
ATOM     36  C   UNL     1      33.600 -13.582 -25.317  0.00  0.00    +0.058 C 
ENDBRANCH  22  26
ENDBRANCH   1  22
TORSDOF 5
ENDMDL
