MODEL 1
REMARK VINA RESULT:     -11.4      0.000      0.000
REMARK  Name = 11610526
REMARK  3 active torsions:
REMARK  status: ('A' for Active; 'I' for Inactive)
REMARK    1  A    between atoms: C_2  and  C_21
REMARK    2  A    between atoms: C_9  and  C_14
REMARK    3  A    between atoms: C_21  and  C_23
REMARK                            x       y       z     vdW  Elec       q    Type
REMARK                         _______ _______ _______ _____ _____    ______ ____
ROOT
ATOM      1  N   UNL     1      35.052 -17.144 -22.003  0.00  0.00    -0.388 NA
ATOM      2  C   UNL     1      35.427 -18.393 -22.295  0.00  0.00    +0.167 C 
ATOM      3  C   UNL     1      35.321 -19.018 -23.506  0.00  0.00    +0.031 C 
ATOM      4  C   UNL     1      34.515 -16.455 -23.034  0.00  0.00    +0.167 C 
ATOM      5  C   UNL     1      34.764 -18.277 -24.543  0.00  0.00    -0.015 C 
ATOM      6  C   UNL     1      34.351 -16.969 -24.310  0.00  0.00    +0.101 C 
ATOM      7  O   UNL     1      33.273 -14.471 -24.908  0.00  0.00    -0.270 OA
ATOM      8  N   UNL     1      34.097 -15.137 -22.810  0.00  0.00    -0.259 N 
ATOM      9  C   UNL     1      33.520 -14.253 -23.727  0.00  0.00    +0.255 C 
ATOM     10  H   UNL     1      34.223 -14.793 -21.897  0.00  0.00    +0.157 HD
ENDROOT
BRANCH   9  14
ATOM     11  F   UNL     1      31.837 -13.876 -21.515  0.00  0.00    -0.204 F 
ATOM     12  F   UNL     1      34.575 -11.917 -24.866  0.00  0.00    -0.204 F 
ATOM     13  F   UNL     1      32.345  -9.177 -21.720  0.00  0.00    -0.204 F 
ATOM     14  C   UNL     1      33.208 -12.902 -23.192  0.00  0.00    +0.109 C 
ATOM     15  C   UNL     1      32.371 -12.795 -22.101  0.00  0.00    +0.149 C 
ATOM     16  C   UNL     1      33.764 -11.799 -23.805  0.00  0.00    +0.149 C 
ATOM     17  C   UNL     1      32.077 -11.526 -21.600  0.00  0.00    +0.060 C 
ATOM     18  C   UNL     1      33.469 -10.530 -23.304  0.00  0.00    +0.060 C 
ATOM     19  C   UNL     1      32.626 -10.394 -22.202  0.00  0.00    +0.145 C 
ENDBRANCH   9  14
BRANCH   2  21
ATOM     20  O   UNL     1      36.985 -18.682 -20.548  0.00  0.00    -0.289 OA
ATOM     21  C   UNL     1      36.015 -19.140 -21.148  0.00  0.00    +0.202 C 
BRANCH  21  23
ATOM     22  N   UNL     1      34.142 -22.036 -18.640  0.00  0.00    +0.386 N 
ATOM     23  C   UNL     1      35.409 -20.448 -20.744  0.00  0.00    +0.060 C 
ATOM     24  C   UNL     1      33.956 -20.230 -20.321  0.00  0.00    -0.015 C 
ATOM     25  C   UNL     1      36.208 -21.069 -19.600  0.00  0.00    -0.015 C 
ATOM     26  C   UNL     1      33.344 -21.514 -19.758  0.00  0.00    -0.077 C 
ATOM     27  C   UNL     1      35.520 -22.325 -19.062  0.00  0.00    -0.077 C 
ATOM     28  C   UNL     1      33.516 -23.233 -18.080  0.00  0.00    -0.101 C 
ATOM     29  H   UNL     1      34.179 -21.317 -17.917  0.00  0.00    -0.080 HD
ENDBRANCH  21  23
ENDBRANCH   2  21
TORSDOF 3
ENDMDL
MODEL 2
REMARK VINA RESULT:     -11.0      5.975     11.338
REMARK  Name = 11610526
REMARK  3 active torsions:
REMARK  status: ('A' for Active; 'I' for Inactive)
REMARK    1  A    between atoms: C_2  and  C_21
REMARK    2  A    between atoms: C_9  and  C_14
REMARK    3  A    between atoms: C_21  and  C_23
REMARK                            x       y       z     vdW  Elec       q    Type
REMARK                         _______ _______ _______ _____ _____    ______ ____
ROOT
ATOM      1  N   UNL     1      35.730 -21.721 -18.634  0.00  0.00    -0.388 NA
ATOM      2  C   UNL     1      35.010 -21.123 -19.586  0.00  0.00    +0.167 C 
ATOM      3  C   UNL     1      33.664 -21.250 -19.797  0.00  0.00    +0.031 C 
ATOM      4  C   UNL     1      35.027 -22.530 -17.811  0.00  0.00    +0.167 C 
ATOM      5  C   UNL     1      32.975 -22.090 -18.930  0.00  0.00    -0.015 C 
ATOM      6  C   UNL     1      33.663 -22.746 -17.914  0.00  0.00    +0.101 C 
ATOM      7  O   UNL     1      34.013 -24.419 -15.714  0.00  0.00    -0.270 OA
ATOM      8  N   UNL     1      35.710 -23.194 -16.785  0.00  0.00    -0.259 N 
ATOM      9  C   UNL     1      35.184 -24.070 -15.830  0.00  0.00    +0.255 C 
ATOM     10  H   UNL     1      36.678 -23.026 -16.730  0.00  0.00    +0.157 HD
ENDROOT
BRANCH   9  14
ATOM     11  F   UNL     1      35.671 -26.816 -15.537  0.00  0.00    -0.204 F 
ATOM     12  F   UNL     1      36.665 -22.384 -14.147  0.00  0.00    -0.204 F 
ATOM     13  F   UNL     1      38.866 -26.055 -12.132  0.00  0.00    -0.204 F 
ATOM     14  C   UNL     1      36.164 -24.598 -14.846  0.00  0.00    +0.109 C 
ATOM     15  C   UNL     1      36.350 -25.962 -14.759  0.00  0.00    +0.149 C 
ATOM     16  C   UNL     1      36.856 -23.708 -14.052  0.00  0.00    +0.149 C 
ATOM     17  C   UNL     1      37.270 -26.458 -13.834  0.00  0.00    +0.060 C 
ATOM     18  C   UNL     1      37.775 -24.204 -13.127  0.00  0.00    +0.060 C 
ATOM     19  C   UNL     1      37.982 -25.579 -13.019  0.00  0.00    +0.145 C 
ENDBRANCH   9  14
BRANCH   2  21
ATOM     20  O   UNL     1      37.027 -20.263 -20.455  0.00  0.00    -0.289 OA
ATOM     21  C   UNL     1      35.799 -20.236 -20.486  0.00  0.00    +0.202 C 
BRANCH  21  23
ATOM     22  N   UNL     1      35.227 -17.495 -23.703  0.00  0.00    +0.386 N 
ATOM     23  C   UNL     1      35.074 -19.318 -21.421  0.00  0.00    +0.060 C 
ATOM     24  C   UNL     1      35.232 -19.820 -22.856  0.00  0.00    -0.015 C 
ATOM     25  C   UNL     1      35.618 -17.896 -21.293  0.00  0.00    -0.015 C 
ATOM     26  C   UNL     1      34.634 -18.830 -23.859  0.00  0.00    -0.077 C 
ATOM     27  C   UNL     1      35.007 -16.972 -22.348  0.00  0.00    -0.077 C 
ATOM     28  C   UNL     1      34.684 -16.575 -24.702  0.00  0.00    -0.101 C 
ATOM     29  H   UNL     1      36.234 -17.579 -23.848  0.00  0.00    -0.080 HD
ENDBRANCH  21  23
ENDBRANCH   2  21
TORSDOF 3
ENDMDL
MODEL 3
REMARK VINA RESULT:     -10.9      3.437      8.195
REMARK  Name = 11610526
REMARK  3 active torsions:
REMARK  status: ('A' for Active; 'I' for Inactive)
REMARK    1  A    between atoms: C_2  and  C_21
REMARK    2  A    between atoms: C_9  and  C_14
REMARK    3  A    between atoms: C_21  and  C_23
REMARK                            x       y       z     vdW  Elec       q    Type
REMARK                         _______ _______ _______ _____ _____    ______ ____
ROOT
ATOM      1  N   UNL     1      34.243 -15.143 -22.888  0.00  0.00    -0.388 NA
ATOM      2  C   UNL     1      33.816 -14.263 -23.797  0.00  0.00    +0.167 C 
ATOM      3  C   UNL     1      33.555 -14.509 -25.117  0.00  0.00    +0.031 C 
ATOM      4  C   UNL     1      34.428 -16.399 -23.352  0.00  0.00    +0.167 C 
ATOM      5  C   UNL     1      33.757 -15.813 -25.558  0.00  0.00    -0.015 C 
ATOM      6  C   UNL     1      34.201 -16.782 -24.664  0.00  0.00    +0.101 C 
ATOM      7  O   UNL     1      35.007 -19.306 -23.804  0.00  0.00    -0.270 OA
ATOM      8  N   UNL     1      34.874 -17.381 -22.461  0.00  0.00    -0.259 N 
ATOM      9  C   UNL     1      35.130 -18.730 -22.728  0.00  0.00    +0.255 C 
ATOM     10  H   UNL     1      35.029 -17.087 -21.535  0.00  0.00    +0.157 HD
ENDROOT
BRANCH   9  14
ATOM     11  F   UNL     1      33.367 -20.382 -21.304  0.00  0.00    -0.204 F 
ATOM     12  F   UNL     1      37.779 -18.693 -21.805  0.00  0.00    -0.204 F 
ATOM     13  F   UNL     1      36.787 -21.753 -18.336  0.00  0.00    -0.204 F 
ATOM     14  C   UNL     1      35.571 -19.535 -21.559  0.00  0.00    +0.109 C 
ATOM     15  C   UNL     1      34.646 -20.325 -20.908  0.00  0.00    +0.149 C 
ATOM     16  C   UNL     1      36.890 -19.465 -21.163  0.00  0.00    +0.149 C 
ATOM     17  C   UNL     1      35.061 -21.080 -19.810  0.00  0.00    +0.060 C 
ATOM     18  C   UNL     1      37.304 -20.220 -20.065  0.00  0.00    +0.060 C 
ATOM     19  C   UNL     1      36.389 -21.028 -19.389  0.00  0.00    +0.145 C 
ENDBRANCH   9  14
BRANCH   2  21
ATOM     20  O   UNL     1      34.351 -11.971 -23.642  0.00  0.00    -0.289 OA
ATOM     21  C   UNL     1      33.618 -12.884 -23.269  0.00  0.00    +0.202 C 
BRANCH  21  23
ATOM     22  N   UNL     1      31.699 -11.405 -19.760  0.00  0.00    +0.386 N 
ATOM     23  C   UNL     1      32.518 -12.632 -22.285  0.00  0.00    +0.060 C 
ATOM     24  C   UNL     1      32.289 -11.127 -22.147  0.00  0.00    -0.015 C 
ATOM     25  C   UNL     1      32.873 -13.242 -20.929  0.00  0.00    -0.015 C 
ATOM     26  C   UNL     1      31.278 -10.820 -21.040  0.00  0.00    -0.077 C 
ATOM     27  C   UNL     1      31.842 -12.863 -19.865  0.00  0.00    -0.077 C 
ATOM     28  C   UNL     1      30.750 -11.057 -18.703  0.00  0.00    -0.101 C 
ATOM     29  H   UNL     1      32.612 -11.016 -19.521  0.00  0.00    -0.080 HD
ENDBRANCH  21  23
ENDBRANCH   2  21
TORSDOF 3
ENDMDL
MODEL 4
REMARK VINA RESULT:     -10.9      3.442      8.317
REMARK  Name = 11610526
REMARK  3 active torsions:
REMARK  status: ('A' for Active; 'I' for Inactive)
REMARK    1  A    between atoms: C_2  and  C_21
REMARK    2  A    between atoms: C_9  and  C_14
REMARK    3  A    between atoms: C_21  and  C_23
REMARK                            x       y       z     vdW  Elec       q    Type
REMARK                         _______ _______ _______ _____ _____    ______ ____
ROOT
ATOM      1  N   UNL     1      34.244 -15.157 -22.856  0.00  0.00    -0.388 NA
ATOM      2  C   UNL     1      33.818 -14.273 -23.761  0.00  0.00    +0.167 C 
ATOM      3  C   UNL     1      33.558 -14.514 -25.082  0.00  0.00    +0.031 C 
ATOM      4  C   UNL     1      34.430 -16.410 -23.325  0.00  0.00    +0.167 C 
ATOM      5  C   UNL     1      33.760 -15.816 -25.528  0.00  0.00    -0.015 C 
ATOM      6  C   UNL     1      34.204 -16.788 -24.639  0.00  0.00    +0.101 C 
ATOM      7  O   UNL     1      35.008 -19.316 -23.788  0.00  0.00    -0.270 OA
ATOM      8  N   UNL     1      34.876 -17.397 -22.437  0.00  0.00    -0.259 N 
ATOM      9  C   UNL     1      35.131 -18.744 -22.710  0.00  0.00    +0.255 C 
ATOM     10  H   UNL     1      35.030 -17.106 -21.510  0.00  0.00    +0.157 HD
ENDROOT
BRANCH   9  14
ATOM     11  F   UNL     1      37.785 -18.735 -21.804  0.00  0.00    -0.204 F 
ATOM     12  F   UNL     1      33.361 -20.379 -21.274  0.00  0.00    -0.204 F 
ATOM     13  F   UNL     1      36.785 -21.787 -18.330  0.00  0.00    -0.204 F 
ATOM     14  C   UNL     1      35.571 -19.554 -21.544  0.00  0.00    +0.109 C 
ATOM     15  C   UNL     1      36.894 -19.498 -21.156  0.00  0.00    +0.149 C 
ATOM     16  C   UNL     1      34.643 -20.334 -20.887  0.00  0.00    +0.149 C 
ATOM     17  C   UNL     1      37.307 -20.259 -20.062  0.00  0.00    +0.060 C 
ATOM     18  C   UNL     1      35.057 -21.095 -19.793  0.00  0.00    +0.060 C 
ATOM     19  C   UNL     1      36.389 -21.057 -19.381  0.00  0.00    +0.145 C 
ENDBRANCH   9  14
BRANCH   2  21
ATOM     20  O   UNL     1      34.361 -11.984 -23.588  0.00  0.00    -0.289 OA
ATOM     21  C   UNL     1      33.620 -12.896 -23.229  0.00  0.00    +0.202 C 
BRANCH  21  23
ATOM     22  N   UNL     1      31.667 -11.416 -19.739  0.00  0.00    +0.386 N 
ATOM     23  C   UNL     1      32.511 -12.645 -22.254  0.00  0.00    +0.060 C 
ATOM     24  C   UNL     1      32.278 -11.140 -22.120  0.00  0.00    -0.015 C 
ATOM     25  C   UNL     1      32.854 -13.253 -20.895  0.00  0.00    -0.015 C 
ATOM     26  C   UNL     1      31.257 -10.833 -21.023  0.00  0.00    -0.077 C 
ATOM     27  C   UNL     1      31.813 -12.875 -19.840  0.00  0.00    -0.077 C 
ATOM     28  C   UNL     1      30.708 -11.070 -18.690  0.00  0.00    -0.101 C 
ATOM     29  H   UNL     1      32.577 -11.026 -19.492  0.00  0.00    -0.080 HD
ENDBRANCH  21  23
ENDBRANCH   2  21
TORSDOF 3
ENDMDL
MODEL 5
REMARK VINA RESULT:     -10.8      3.644      6.302
REMARK  Name = 11610526
REMARK  3 active torsions:
REMARK  status: ('A' for Active; 'I' for Inactive)
REMARK    1  A    between atoms: C_2  and  C_21
REMARK    2  A    between atoms: C_9  and  C_14
REMARK    3  A    between atoms: C_21  and  C_23
REMARK                            x       y       z     vdW  Elec       q    Type
REMARK                         _______ _______ _______ _____ _____    ______ ____
ROOT
ATOM      1  N   UNL     1      34.429 -21.676 -19.438  0.00  0.00    -0.388 NA
ATOM      2  C   UNL     1      34.804 -22.450 -18.416  0.00  0.00    +0.167 C 
ATOM      3  C   UNL     1      36.035 -22.482 -17.821  0.00  0.00    +0.031 C 
ATOM      4  C   UNL     1      35.389 -20.852 -19.911  0.00  0.00    +0.167 C 
ATOM      5  C   UNL     1      36.997 -21.620 -18.335  0.00  0.00    -0.015 C 
ATOM      6  C   UNL     1      36.676 -20.786 -19.401  0.00  0.00    +0.101 C 
ATOM      7  O   UNL     1      37.084 -18.845 -21.357  0.00  0.00    -0.270 OA
ATOM      8  N   UNL     1      35.076 -20.008 -20.983  0.00  0.00    -0.259 N 
ATOM      9  C   UNL     1      35.911 -19.086 -21.622  0.00  0.00    +0.255 C 
ATOM     10  H   UNL     1      34.157 -20.072 -21.330  0.00  0.00    +0.157 HD
ENDROOT
BRANCH   9  14
ATOM     11  F   UNL     1      35.021 -20.301 -23.988  0.00  0.00    -0.204 F 
ATOM     12  F   UNL     1      35.525 -16.312 -21.459  0.00  0.00    -0.204 F 
ATOM     13  F   UNL     1      33.526 -16.170 -25.743  0.00  0.00    -0.204 F 
ATOM     14  C   UNL     1      35.276 -18.310 -22.719  0.00  0.00    +0.109 C 
ATOM     15  C   UNL     1      34.863 -18.977 -23.854  0.00  0.00    +0.149 C 
ATOM     16  C   UNL     1      35.120 -16.948 -22.567  0.00  0.00    +0.149 C 
ATOM     17  C   UNL     1      34.267 -18.248 -24.883  0.00  0.00    +0.060 C 
ATOM     18  C   UNL     1      34.524 -16.220 -23.597  0.00  0.00    +0.060 C 
ATOM     19  C   UNL     1      34.098 -16.870 -24.756  0.00  0.00    +0.145 C 
ENDBRANCH   9  14
BRANCH   2  21
ATOM     20  O   UNL     1      33.355 -24.303 -18.587  0.00  0.00    -0.289 OA
ATOM     21  C   UNL     1      33.734 -23.353 -17.906  0.00  0.00    +0.202 C 
BRANCH  21  23
ATOM     22  N   UNL     1      31.590 -24.107 -14.298  0.00  0.00    +0.386 N 
ATOM     23  C   UNL     1      33.135 -23.085 -16.560  0.00  0.00    +0.060 C 
ATOM     24  C   UNL     1      33.733 -24.046 -15.533  0.00  0.00    -0.015 C 
ATOM     25  C   UNL     1      31.617 -23.243 -16.616  0.00  0.00    -0.015 C 
ATOM     26  C   UNL     1      33.040 -23.908 -14.176  0.00  0.00    -0.077 C 
ATOM     27  C   UNL     1      30.996 -23.131 -15.223  0.00  0.00    -0.077 C 
ATOM     28  C   UNL     1      30.950 -24.024 -12.986  0.00  0.00    -0.101 C 
ATOM     29  H   UNL     1      31.431 -25.040 -14.681  0.00  0.00    -0.080 HD
ENDBRANCH  21  23
ENDBRANCH   2  21
TORSDOF 3
ENDMDL
MODEL 6
REMARK VINA RESULT:     -10.5      3.287      5.727
REMARK  Name = 11610526
REMARK  3 active torsions:
REMARK  status: ('A' for Active; 'I' for Inactive)
REMARK    1  A    between atoms: C_2  and  C_21
REMARK    2  A    between atoms: C_9  and  C_14
REMARK    3  A    between atoms: C_21  and  C_23
REMARK                            x       y       z     vdW  Elec       q    Type
REMARK                         _______ _______ _______ _____ _____    ______ ____
ROOT
ATOM      1  N   UNL     1      34.116 -21.115 -19.636  0.00  0.00    -0.388 NA
ATOM      2  C   UNL     1      34.487 -22.016 -18.723  0.00  0.00    +0.167 C 
ATOM      3  C   UNL     1      35.766 -22.379 -18.402  0.00  0.00    +0.031 C 
ATOM      4  C   UNL     1      35.134 -20.520 -20.296  0.00  0.00    +0.167 C 
ATOM      5  C   UNL     1      36.787 -21.744 -19.101  0.00  0.00    -0.015 C 
ATOM      6  C   UNL     1      36.473 -20.795 -20.068  0.00  0.00    +0.101 C 
ATOM      7  O   UNL     1      36.944 -18.896 -22.050  0.00  0.00    -0.270 OA
ATOM      8  N   UNL     1      34.829 -19.562 -21.270  0.00  0.00    -0.259 N 
ATOM      9  C   UNL     1      35.719 -18.831 -22.064  0.00  0.00    +0.255 C 
ATOM     10  H   UNL     1      33.872 -19.382 -21.415  0.00  0.00    +0.157 HD
ENDROOT
BRANCH   9  14
ATOM     11  F   UNL     1      35.388 -16.126 -21.402  0.00  0.00    -0.204 F 
ATOM     12  F   UNL     1      34.781 -19.589 -24.596  0.00  0.00    -0.204 F 
ATOM     13  F   UNL     1      33.344 -15.187 -25.565  0.00  0.00    -0.204 F 
ATOM     14  C   UNL     1      35.087 -17.861 -22.995  0.00  0.00    +0.109 C 
ATOM     15  C   UNL     1      34.958 -16.546 -22.600  0.00  0.00    +0.149 C 
ATOM     16  C   UNL     1      34.649 -18.308 -24.225  0.00  0.00    +0.149 C 
ATOM     17  C   UNL     1      34.364 -15.636 -23.476  0.00  0.00    +0.060 C 
ATOM     18  C   UNL     1      34.055 -17.397 -25.099  0.00  0.00    +0.060 C 
ATOM     19  C   UNL     1      33.913 -16.061 -24.724  0.00  0.00    +0.145 C 
ENDBRANCH   9  14
BRANCH   2  21
ATOM     20  O   UNL     1      32.198 -22.466 -18.374  0.00  0.00    -0.289 OA
ATOM     21  C   UNL     1      33.353 -22.665 -18.006  0.00  0.00    +0.202 C 
BRANCH  21  23
ATOM     22  N   UNL     1      33.979 -23.799 -13.943  0.00  0.00    +0.386 N 
ATOM     23  C   UNL     1      33.645 -23.555 -16.838  0.00  0.00    +0.060 C 
ATOM     24  C   UNL     1      32.456 -23.544 -15.876  0.00  0.00    -0.015 C 
ATOM     25  C   UNL     1      34.912 -23.090 -16.122  0.00  0.00    -0.015 C 
ATOM     26  C   UNL     1      32.772 -24.321 -14.597  0.00  0.00    -0.077 C 
ATOM     27  C   UNL     1      35.144 -23.884 -14.835  0.00  0.00    -0.077 C 
ATOM     28  C   UNL     1      34.236 -24.518 -12.695  0.00  0.00    -0.101 C 
ATOM     29  H   UNL     1      33.819 -22.814 -13.727  0.00  0.00    -0.080 HD
ENDBRANCH  21  23
ENDBRANCH   2  21
TORSDOF 3
ENDMDL
MODEL 7
REMARK VINA RESULT:     -10.3      4.488     10.269
REMARK  Name = 11610526
REMARK  3 active torsions:
REMARK  status: ('A' for Active; 'I' for Inactive)
REMARK    1  A    between atoms: C_2  and  C_21
REMARK    2  A    between atoms: C_9  and  C_14
REMARK    3  A    between atoms: C_21  and  C_23
REMARK                            x       y       z     vdW  Elec       q    Type
REMARK                         _______ _______ _______ _____ _____    ______ ____
ROOT
ATOM      1  N   UNL     1      32.556 -10.406 -20.827  0.00  0.00    -0.388 NA
ATOM      2  C   UNL     1      32.004  -9.555 -19.958  0.00  0.00    +0.167 C 
ATOM      3  C   UNL     1      31.214  -9.873 -18.888  0.00  0.00    +0.031 C 
ATOM      4  C   UNL     1      32.285 -11.710 -20.597  0.00  0.00    +0.167 C 
ATOM      5  C   UNL     1      30.959 -11.224 -18.684  0.00  0.00    -0.015 C 
ATOM      6  C   UNL     1      31.501 -12.167 -19.551  0.00  0.00    +0.101 C 
ATOM      7  O   UNL     1      32.034 -14.698 -20.586  0.00  0.00    -0.270 OA
ATOM      8  N   UNL     1      32.828 -12.667 -21.464  0.00  0.00    -0.259 N 
ATOM      9  C   UNL     1      32.676 -14.056 -21.411  0.00  0.00    +0.255 C 
ATOM     10  H   UNL     1      33.381 -12.320 -22.200  0.00  0.00    +0.157 HD
ENDROOT
BRANCH   9  14
ATOM     11  F   UNL     1      34.751 -15.841 -20.801  0.00  0.00    -0.204 F 
ATOM     12  F   UNL     1      32.060 -13.790 -24.135  0.00  0.00    -0.204 F 
ATOM     13  F   UNL     1      35.407 -16.899 -25.365  0.00  0.00    -0.204 F 
ATOM     14  C   UNL     1      33.403 -14.813 -22.463  0.00  0.00    +0.109 C 
ATOM     15  C   UNL     1      34.413 -15.673 -22.087  0.00  0.00    +0.149 C 
ATOM     16  C   UNL     1      33.044 -14.630 -23.782  0.00  0.00    +0.149 C 
ATOM     17  C   UNL     1      35.095 -16.383 -23.076  0.00  0.00    +0.060 C 
ATOM     18  C   UNL     1      33.727 -15.340 -24.770  0.00  0.00    +0.060 C 
ATOM     19  C   UNL     1      34.753 -16.217 -24.417  0.00  0.00    +0.145 C 
ENDBRANCH   9  14
BRANCH   2  21
ATOM     20  O   UNL     1      32.690  -7.392 -19.313  0.00  0.00    -0.289 OA
ATOM     21  C   UNL     1      32.310  -8.121 -20.226  0.00  0.00    +0.202 C 
BRANCH  21  23
ATOM     22  N   UNL     1      32.521  -5.354 -23.464  0.00  0.00    +0.386 N 
ATOM     23  C   UNL     1      32.147  -7.590 -21.617  0.00  0.00    +0.060 C 
ATOM     24  C   UNL     1      33.517  -7.226 -22.189  0.00  0.00    -0.015 C 
ATOM     25  C   UNL     1      31.232  -6.367 -21.611  0.00  0.00    -0.015 C 
ATOM     26  C   UNL     1      33.385  -6.539 -23.550  0.00  0.00    -0.077 C 
ATOM     27  C   UNL     1      31.176  -5.711 -22.992  0.00  0.00    -0.077 C 
ATOM     28  C   UNL     1      32.447  -4.680 -24.760  0.00  0.00    -0.101 C 
ATOM     29  H   UNL     1      32.933  -4.713 -22.785  0.00  0.00    -0.080 HD
ENDBRANCH  21  23
ENDBRANCH   2  21
TORSDOF 3
ENDMDL
MODEL 8
REMARK VINA RESULT:     -10.3      3.015      5.369
REMARK  Name = 11610526
REMARK  3 active torsions:
REMARK  status: ('A' for Active; 'I' for Inactive)
REMARK    1  A    between atoms: C_2  and  C_21
REMARK    2  A    between atoms: C_9  and  C_14
REMARK    3  A    between atoms: C_21  and  C_23
REMARK                            x       y       z     vdW  Elec       q    Type
REMARK                         _______ _______ _______ _____ _____    ______ ____
ROOT
ATOM      1  N   UNL     1      34.133 -20.944 -19.942  0.00  0.00    -0.388 NA
ATOM      2  C   UNL     1      34.526 -21.905 -19.101  0.00  0.00    +0.167 C 
ATOM      3  C   UNL     1      35.813 -22.263 -18.810  0.00  0.00    +0.031 C 
ATOM      4  C   UNL     1      35.136 -20.277 -20.554  0.00  0.00    +0.167 C 
ATOM      5  C   UNL     1      36.818 -21.554 -19.459  0.00  0.00    -0.015 C 
ATOM      6  C   UNL     1      36.481 -20.540 -20.350  0.00  0.00    +0.101 C 
ATOM      7  O   UNL     1      36.905 -18.484 -22.180  0.00  0.00    -0.270 OA
ATOM      8  N   UNL     1      34.808 -19.254 -21.452  0.00  0.00    -0.259 N 
ATOM      9  C   UNL     1      35.679 -18.446 -22.188  0.00  0.00    +0.255 C 
ATOM     10  H   UNL     1      33.847 -19.085 -21.582  0.00  0.00    +0.157 HD
ENDROOT
BRANCH   9  14
ATOM     11  F   UNL     1      34.839 -19.001 -24.805  0.00  0.00    -0.204 F 
ATOM     12  F   UNL     1      35.203 -15.833 -21.285  0.00  0.00    -0.204 F 
ATOM     13  F   UNL     1      33.217 -14.595 -25.396  0.00  0.00    -0.204 F 
ATOM     14  C   UNL     1      35.024 -17.421 -23.042  0.00  0.00    +0.109 C 
ATOM     15  C   UNL     1      34.637 -17.768 -24.320  0.00  0.00    +0.149 C 
ATOM     16  C   UNL     1      34.823 -16.157 -22.529  0.00  0.00    +0.149 C 
ATOM     17  C   UNL     1      34.023 -16.805 -25.121  0.00  0.00    +0.060 C 
ATOM     18  C   UNL     1      34.208 -15.195 -23.331  0.00  0.00    +0.060 C 
ATOM     19  C   UNL     1      33.808 -15.519 -24.627  0.00  0.00    +0.145 C 
ENDBRANCH   9  14
BRANCH   2  21
ATOM     20  O   UNL     1      32.264 -22.535 -18.873  0.00  0.00    -0.289 OA
ATOM     21  C   UNL     1      33.408 -22.631 -18.435  0.00  0.00    +0.202 C 
BRANCH  21  23
ATOM     22  N   UNL     1      34.059 -23.597 -14.333  0.00  0.00    +0.386 N 
ATOM     23  C   UNL     1      33.702 -23.474 -17.233  0.00  0.00    +0.060 C 
ATOM     24  C   UNL     1      32.523 -23.411 -16.263  0.00  0.00    -0.015 C 
ATOM     25  C   UNL     1      34.980 -22.990 -16.548  0.00  0.00    -0.015 C 
ATOM     26  C   UNL     1      32.842 -24.136 -14.954  0.00  0.00    -0.077 C 
ATOM     27  C   UNL     1      35.216 -23.730 -15.230  0.00  0.00    -0.077 C 
ATOM     28  C   UNL     1      34.322 -24.264 -13.058  0.00  0.00    -0.101 C 
ATOM     29  H   UNL     1      33.910 -22.603 -14.158  0.00  0.00    -0.080 HD
ENDBRANCH  21  23
ENDBRANCH   2  21
TORSDOF 3
ENDMDL
MODEL 9
REMARK VINA RESULT:     -10.3      6.507      9.958
REMARK  Name = 11610526
REMARK  3 active torsions:
REMARK  status: ('A' for Active; 'I' for Inactive)
REMARK    1  A    between atoms: C_2  and  C_21
REMARK    2  A    between atoms: C_9  and  C_14
REMARK    3  A    between atoms: C_21  and  C_23
REMARK                            x       y       z     vdW  Elec       q    Type
REMARK                         _______ _______ _______ _____ _____    ______ ____
ROOT
ATOM      1  N   UNL     1      34.646 -23.675 -14.745  0.00  0.00    -0.388 NA
ATOM      2  C   UNL     1      34.123 -24.396 -13.750  0.00  0.00    +0.167 C 
ATOM      3  C   UNL     1      32.876 -24.956 -13.712  0.00  0.00    +0.031 C 
ATOM      4  C   UNL     1      33.834 -23.499 -15.810  0.00  0.00    +0.167 C 
ATOM      5  C   UNL     1      32.069 -24.754 -14.826  0.00  0.00    -0.015 C 
ATOM      6  C   UNL     1      32.550 -24.013 -15.900  0.00  0.00    +0.101 C 
ATOM      7  O   UNL     1      32.504 -22.790 -18.403  0.00  0.00    -0.270 OA
ATOM      8  N   UNL     1      34.309 -22.755 -16.897  0.00  0.00    -0.259 N 
ATOM      9  C   UNL     1      33.641 -22.453 -18.088  0.00  0.00    +0.255 C 
ATOM     10  H   UNL     1      35.223 -22.400 -16.812  0.00  0.00    +0.157 HD
ENDROOT
BRANCH   9  14
ATOM     11  F   UNL     1      36.439 -22.592 -18.222  0.00  0.00    -0.204 F 
ATOM     12  F   UNL     1      32.418 -20.724 -19.926  0.00  0.00    -0.204 F 
ATOM     13  F   UNL     1      36.587 -19.476 -21.779  0.00  0.00    -0.204 F 
ATOM     14  C   UNL     1      34.425 -21.661 -19.070  0.00  0.00    +0.109 C 
ATOM     15  C   UNL     1      35.800 -21.781 -19.077  0.00  0.00    +0.149 C 
ATOM     16  C   UNL     1      33.754 -20.831 -19.943  0.00  0.00    +0.149 C 
ATOM     17  C   UNL     1      36.535 -21.036 -20.000  0.00  0.00    +0.060 C 
ATOM     18  C   UNL     1      34.491 -20.087 -20.865  0.00  0.00    +0.060 C 
ATOM     19  C   UNL     1      35.881 -20.189 -20.893  0.00  0.00    +0.145 C 
ENDBRANCH   9  14
BRANCH   2  21
ATOM     20  O   UNL     1      34.730 -24.107 -11.489  0.00  0.00    -0.289 OA
ATOM     21  C   UNL     1      35.030 -24.580 -12.583  0.00  0.00    +0.202 C 
BRANCH  21  23
ATOM     22  N   UNL     1      38.845 -25.602 -14.192  0.00  0.00    +0.386 N 
ATOM     23  C   UNL     1      36.305 -25.344 -12.766  0.00  0.00    +0.060 C 
ATOM     24  C   UNL     1      37.496 -24.428 -12.483  0.00  0.00    -0.015 C 
ATOM     25  C   UNL     1      36.389 -25.900 -14.186  0.00  0.00    -0.015 C 
ATOM     26  C   UNL     1      38.820 -25.125 -12.803  0.00  0.00    -0.077 C 
ATOM     27  C   UNL     1      37.750 -26.548 -14.448  0.00  0.00    -0.077 C 
ATOM     28  C   UNL     1      40.135 -26.219 -14.497  0.00  0.00    -0.101 C 
ATOM     29  H   UNL     1      38.714 -24.797 -14.804  0.00  0.00    -0.080 HD
ENDBRANCH  21  23
ENDBRANCH   2  21
TORSDOF 3
ENDMDL
