MODEL 1
REMARK VINA RESULT:     -12.6      0.000      0.000
REMARK  Name = 44141871
REMARK  6 active torsions:
REMARK  status: ('A' for Active; 'I' for Inactive)
REMARK    1  A    between atoms: C_1  and  C_10
REMARK    2  A    between atoms: C_4  and  O_20
REMARK    3  A    between atoms: C_9  and  C_13
REMARK    4  A    between atoms: C_13  and  C_15
REMARK    5  A    between atoms: O_20  and  C_21
REMARK    6  A    between atoms: C_21  and  C_23
REMARK                            x       y       z     vdW  Elec       q    Type
REMARK                         _______ _______ _______ _____ _____    ______ ____
ROOT
ATOM      1  C   UNL     1      34.530 -23.052 -17.165  0.00  0.00    +0.015 C 
ATOM      2  C   UNL     1      33.382 -22.819 -17.921  0.00  0.00    +0.004 C 
ATOM      3  C   UNL     1      35.754 -22.522 -17.575  0.00  0.00    +0.004 C 
ATOM      4  C   UNL     1      34.679 -21.527 -19.497  0.00  0.00    +0.139 C 
ATOM      5  C   UNL     1      33.456 -22.056 -19.086  0.00  0.00    +0.037 C 
ATOM      6  C   UNL     1      35.828 -21.760 -18.741  0.00  0.00    +0.037 C 
ENDROOT
BRANCH   1  10
ATOM      7  N   UNL     1      35.355 -24.818 -15.661  0.00  0.00    -0.236 N 
ATOM      8  N   UNL     1      35.114 -25.442 -14.495  0.00  0.00    -0.180 NA
ATOM      9  C   UNL     1      33.559 -23.821 -14.916  0.00  0.00    +0.018 C 
ATOM     10  C   UNL     1      34.453 -23.840 -15.959  0.00  0.00    +0.063 C 
ATOM     11  C   UNL     1      34.016 -24.829 -14.044  0.00  0.00    +0.115 C 
ATOM     12  H   UNL     1      36.113 -25.046 -16.246  0.00  0.00    +0.174 HD
BRANCH   9  13
ATOM     13  C   UNL     1      32.384 -22.951 -14.738  0.00  0.00    +0.056 C 
BRANCH  13  15
ATOM     14  N   UNL     1      28.607 -24.820 -15.684  0.00  0.00    -0.242 NA
ATOM     15  C   UNL     1      31.052 -23.610 -15.071  0.00  0.00    -0.015 C 
ATOM     16  C   UNL     1      30.225 -23.058 -16.044  0.00  0.00    +0.017 C 
ATOM     17  C   UNL     1      30.659 -24.766 -14.406  0.00  0.00    +0.017 C 
ATOM     18  C   UNL     1      29.024 -23.695 -16.310  0.00  0.00    +0.099 C 
ATOM     19  C   UNL     1      29.438 -25.327 -14.746  0.00  0.00    +0.099 C 
ENDBRANCH  13  15
ENDBRANCH   9  13
ENDBRANCH   1  10
BRANCH   4  20
ATOM     20  O   UNL     1      34.752 -20.776 -20.640  0.00  0.00    -0.468 OA
BRANCH  20  21
ATOM     21  C   UNL     1      35.902 -19.954 -20.794  0.00  0.00    +0.264 C 
BRANCH  21  23
ATOM     22  N   UNL     1      35.095 -17.674 -20.704  0.00  0.00    -0.406 NA
ATOM     23  C   UNL     1      35.519 -18.690 -21.489  0.00  0.00    +0.152 C 
ATOM     24  C   UNL     1      34.800 -16.348 -22.694  0.00  0.00    +0.026 C 
ATOM     25  C   UNL     1      34.740 -16.518 -21.295  0.00  0.00    +0.113 C 
ATOM     26  C   UNL     1      35.610 -18.619 -22.864  0.00  0.00    +0.031 C 
ATOM     27  C   UNL     1      35.244 -17.426 -23.471  0.00  0.00    +0.005 C 
ATOM     28  C   UNL     1      34.422 -15.126 -23.277  0.00  0.00    +0.002 C 
ATOM     29  C   UNL     1      34.299 -15.445 -20.524  0.00  0.00    +0.085 C 
ATOM     30  C   UNL     1      33.984 -14.071 -22.482  0.00  0.00    -0.004 C 
ATOM     31  C   UNL     1      33.923 -14.231 -21.103  0.00  0.00    -0.019 C 
ENDBRANCH  21  23
ENDBRANCH  20  21
ENDBRANCH   4  20
TORSDOF 6
ENDMDL
MODEL 2
REMARK VINA RESULT:     -12.2      1.948      9.684
REMARK  Name = 44141871
REMARK  6 active torsions:
REMARK  status: ('A' for Active; 'I' for Inactive)
REMARK    1  A    between atoms: C_1  and  C_10
REMARK    2  A    between atoms: C_4  and  O_20
REMARK    3  A    between atoms: C_9  and  C_13
REMARK    4  A    between atoms: C_13  and  C_15
REMARK    5  A    between atoms: O_20  and  C_21
REMARK    6  A    between atoms: C_21  and  C_23
REMARK                            x       y       z     vdW  Elec       q    Type
REMARK                         _______ _______ _______ _____ _____    ______ ____
ROOT
ATOM      1  C   UNL     1      34.886 -19.290 -21.906  0.00  0.00    +0.015 C 
ATOM      2  C   UNL     1      33.742 -19.863 -21.350  0.00  0.00    +0.004 C 
ATOM      3  C   UNL     1      36.145 -19.617 -21.400  0.00  0.00    +0.004 C 
ATOM      4  C   UNL     1      35.115 -21.089 -19.785  0.00  0.00    +0.139 C 
ATOM      5  C   UNL     1      33.856 -20.762 -20.291  0.00  0.00    +0.037 C 
ATOM      6  C   UNL     1      36.259 -20.516 -20.340  0.00  0.00    +0.037 C 
ENDROOT
BRANCH   1  10
ATOM      7  N   UNL     1      34.479 -18.758 -24.274  0.00  0.00    -0.236 N 
ATOM      8  N   UNL     1      34.412 -17.746 -25.157  0.00  0.00    -0.180 NA
ATOM      9  C   UNL     1      34.901 -16.995 -23.055  0.00  0.00    +0.018 C 
ATOM     10  C   UNL     1      34.768 -18.361 -23.002  0.00  0.00    +0.063 C 
ATOM     11  C   UNL     1      34.670 -16.671 -24.407  0.00  0.00    +0.115 C 
ATOM     12  H   UNL     1      34.331 -19.699 -24.523  0.00  0.00    +0.174 HD
BRANCH   9  13
ATOM     13  C   UNL     1      35.213 -16.066 -21.956  0.00  0.00    +0.056 C 
BRANCH  13  15
ATOM     14  N   UNL     1      31.981 -13.411 -20.880  0.00  0.00    -0.242 NA
ATOM     15  C   UNL     1      34.073 -15.129 -21.576  0.00  0.00    -0.015 C 
ATOM     16  C   UNL     1      33.318 -15.376 -20.435  0.00  0.00    +0.017 C 
ATOM     17  C   UNL     1      33.784 -14.025 -22.369  0.00  0.00    +0.017 C 
ATOM     18  C   UNL     1      32.293 -14.495 -20.134  0.00  0.00    +0.099 C 
ATOM     19  C   UNL     1      32.737 -13.204 -21.981  0.00  0.00    +0.099 C 
ENDBRANCH  13  15
ENDBRANCH   9  13
ENDBRANCH   1  10
BRANCH   4  20
ATOM     20  O   UNL     1      35.227 -21.974 -18.746  0.00  0.00    -0.468 OA
BRANCH  20  21
ATOM     21  C   UNL     1      34.339 -23.084 -18.751  0.00  0.00    +0.264 C 
BRANCH  21  23
ATOM     22  N   UNL     1      32.368 -23.200 -17.351  0.00  0.00    -0.406 NA
ATOM     23  C   UNL     1      33.719 -23.230 -17.401  0.00  0.00    +0.152 C 
ATOM     24  C   UNL     1      32.517 -23.489 -14.964  0.00  0.00    +0.026 C 
ATOM     25  C   UNL     1      31.772 -23.327 -16.151  0.00  0.00    +0.113 C 
ATOM     26  C   UNL     1      34.531 -23.382 -16.297  0.00  0.00    +0.031 C 
ATOM     27  C   UNL     1      33.915 -23.514 -15.060  0.00  0.00    +0.005 C 
ATOM     28  C   UNL     1      31.862 -23.620 -13.728  0.00  0.00    +0.002 C 
ATOM     29  C   UNL     1      30.383 -23.302 -16.054  0.00  0.00    +0.085 C 
ATOM     30  C   UNL     1      30.472 -23.591 -13.660  0.00  0.00    -0.004 C 
ATOM     31  C   UNL     1      29.732 -23.432 -14.825  0.00  0.00    -0.019 C 
ENDBRANCH  21  23
ENDBRANCH  20  21
ENDBRANCH   4  20
TORSDOF 6
ENDMDL
MODEL 3
REMARK VINA RESULT:     -11.9      1.967      3.988
REMARK  Name = 44141871
REMARK  6 active torsions:
REMARK  status: ('A' for Active; 'I' for Inactive)
REMARK    1  A    between atoms: C_1  and  C_10
REMARK    2  A    between atoms: C_4  and  O_20
REMARK    3  A    between atoms: C_9  and  C_13
REMARK    4  A    between atoms: C_13  and  C_15
REMARK    5  A    between atoms: O_20  and  C_21
REMARK    6  A    between atoms: C_21  and  C_23
REMARK                            x       y       z     vdW  Elec       q    Type
REMARK                         _______ _______ _______ _____ _____    ______ ____
ROOT
ATOM      1  C   UNL     1      34.198 -23.056 -17.037  0.00  0.00    +0.015 C 
ATOM      2  C   UNL     1      35.524 -22.690 -17.268  0.00  0.00    +0.004 C 
ATOM      3  C   UNL     1      33.220 -22.764 -17.988  0.00  0.00    +0.004 C 
ATOM      4  C   UNL     1      34.894 -21.743 -19.399  0.00  0.00    +0.139 C 
ATOM      5  C   UNL     1      35.872 -22.034 -18.448  0.00  0.00    +0.037 C 
ATOM      6  C   UNL     1      33.568 -22.108 -19.169  0.00  0.00    +0.037 C 
ENDROOT
BRANCH   1  10
ATOM      7  N   UNL     1      32.562 -23.762 -15.339  0.00  0.00    -0.236 N 
ATOM      8  N   UNL     1      32.427 -24.443 -14.188  0.00  0.00    -0.180 NA
ATOM      9  C   UNL     1      34.593 -24.446 -14.916  0.00  0.00    +0.018 C 
ATOM     10  C   UNL     1      33.839 -23.735 -15.817  0.00  0.00    +0.063 C 
ATOM     11  C   UNL     1      33.670 -24.859 -13.934  0.00  0.00    +0.115 C 
ATOM     12  H   UNL     1      31.808 -23.324 -15.796  0.00  0.00    +0.174 HD
BRANCH   9  13
ATOM     13  C   UNL     1      36.039 -24.723 -14.955  0.00  0.00    +0.056 C 
BRANCH  13  15
ATOM     14  N   UNL     1      37.909 -25.043 -11.075  0.00  0.00    -0.242 NA
ATOM     15  C   UNL     1      36.698 -24.836 -13.586  0.00  0.00    -0.015 C 
ATOM     16  C   UNL     1      37.010 -23.689 -12.865  0.00  0.00    +0.017 C 
ATOM     17  C   UNL     1      36.991 -26.086 -13.054  0.00  0.00    +0.017 C 
ATOM     18  C   UNL     1      37.609 -23.845 -11.626  0.00  0.00    +0.099 C 
ATOM     19  C   UNL     1      37.591 -26.136 -11.806  0.00  0.00    +0.099 C 
ENDBRANCH  13  15
ENDBRANCH   9  13
ENDBRANCH   1  10
BRANCH   4  20
ATOM     20  O   UNL     1      35.236 -21.101 -20.560  0.00  0.00    -0.468 OA
BRANCH  20  21
ATOM     21  C   UNL     1      36.173 -20.038 -20.452  0.00  0.00    +0.264 C 
BRANCH  21  23
ATOM     22  N   UNL     1      35.348 -17.773 -20.670  0.00  0.00    -0.406 NA
ATOM     23  C   UNL     1      35.733 -18.900 -21.312  0.00  0.00    +0.152 C 
ATOM     24  C   UNL     1      34.913 -16.777 -22.820  0.00  0.00    +0.026 C 
ATOM     25  C   UNL     1      34.944 -16.724 -21.412  0.00  0.00    +0.113 C 
ATOM     26  C   UNL     1      35.736 -19.046 -22.683  0.00  0.00    +0.031 C 
ATOM     27  C   UNL     1      35.319 -17.964 -23.445  0.00  0.00    +0.005 C 
ATOM     28  C   UNL     1      34.486 -15.663 -23.563  0.00  0.00    +0.002 C 
ATOM     29  C   UNL     1      34.541 -15.545 -20.792  0.00  0.00    +0.085 C 
ATOM     30  C   UNL     1      34.087 -14.497 -22.917  0.00  0.00    -0.004 C 
ATOM     31  C   UNL     1      34.116 -14.437 -21.530  0.00  0.00    -0.019 C 
ENDBRANCH  21  23
ENDBRANCH  20  21
ENDBRANCH   4  20
TORSDOF 6
ENDMDL
MODEL 4
REMARK VINA RESULT:     -11.9      1.893      3.766
REMARK  Name = 44141871
REMARK  6 active torsions:
REMARK  status: ('A' for Active; 'I' for Inactive)
REMARK    1  A    between atoms: C_1  and  C_10
REMARK    2  A    between atoms: C_4  and  O_20
REMARK    3  A    between atoms: C_9  and  C_13
REMARK    4  A    between atoms: C_13  and  C_15
REMARK    5  A    between atoms: O_20  and  C_21
REMARK    6  A    between atoms: C_21  and  C_23
REMARK                            x       y       z     vdW  Elec       q    Type
REMARK                         _______ _______ _______ _____ _____    ______ ____
ROOT
ATOM      1  C   UNL     1      34.131 -22.853 -17.227  0.00  0.00    +0.015 C 
ATOM      2  C   UNL     1      33.196 -22.427 -18.171  0.00  0.00    +0.004 C 
ATOM      3  C   UNL     1      35.492 -22.652 -17.455  0.00  0.00    +0.004 C 
ATOM      4  C   UNL     1      34.984 -21.597 -19.569  0.00  0.00    +0.139 C 
ATOM      5  C   UNL     1      33.622 -21.798 -19.341  0.00  0.00    +0.037 C 
ATOM      6  C   UNL     1      35.919 -22.024 -18.625  0.00  0.00    +0.037 C 
ENDROOT
BRANCH   1  10
ATOM      7  N   UNL     1      32.397 -23.888 -15.820  0.00  0.00    -0.236 N 
ATOM      8  N   UNL     1      32.180 -24.475 -14.630  0.00  0.00    -0.180 NA
ATOM      9  C   UNL     1      34.367 -23.860 -14.877  0.00  0.00    +0.018 C 
ATOM     10  C   UNL     1      33.689 -23.502 -16.017  0.00  0.00    +0.063 C 
ATOM     11  C   UNL     1      33.388 -24.455 -14.058  0.00  0.00    +0.115 C 
ATOM     12  H   UNL     1      31.686 -23.751 -16.488  0.00  0.00    +0.174 HD
BRANCH   9  13
ATOM     13  C   UNL     1      35.795 -23.670 -14.568  0.00  0.00    +0.056 C 
BRANCH  13  15
ATOM     14  N   UNL     1      38.098 -27.321 -14.426  0.00  0.00    -0.242 NA
ATOM     15  C   UNL     1      36.607 -24.958 -14.518  0.00  0.00    -0.015 C 
ATOM     16  C   UNL     1      36.063 -26.145 -14.995  0.00  0.00    +0.017 C 
ATOM     17  C   UNL     1      37.895 -24.950 -13.995  0.00  0.00    +0.017 C 
ATOM     18  C   UNL     1      36.842 -27.288 -14.926  0.00  0.00    +0.099 C 
ATOM     19  C   UNL     1      38.593 -26.147 -13.972  0.00  0.00    +0.099 C 
ENDBRANCH  13  15
ENDBRANCH   9  13
ENDBRANCH   1  10
BRANCH   4  20
ATOM     20  O   UNL     1      35.403 -20.978 -20.716  0.00  0.00    -0.468 OA
BRANCH  20  21
ATOM     21  C   UNL     1      36.248 -19.845 -20.561  0.00  0.00    +0.264 C 
BRANCH  21  23
ATOM     22  N   UNL     1      35.324 -17.616 -20.746  0.00  0.00    -0.406 NA
ATOM     23  C   UNL     1      35.735 -18.725 -21.402  0.00  0.00    +0.152 C 
ATOM     24  C   UNL     1      34.785 -16.635 -22.879  0.00  0.00    +0.026 C 
ATOM     25  C   UNL     1      34.855 -16.584 -21.472  0.00  0.00    +0.113 C 
ATOM     26  C   UNL     1      35.704 -18.868 -22.774  0.00  0.00    +0.031 C 
ATOM     27  C   UNL     1      35.220 -17.803 -23.520  0.00  0.00    +0.005 C 
ATOM     28  C   UNL     1      34.289 -15.538 -23.605  0.00  0.00    +0.002 C 
ATOM     29  C   UNL     1      34.421 -15.423 -20.836  0.00  0.00    +0.085 C 
ATOM     30  C   UNL     1      33.862 -14.390 -22.944  0.00  0.00    -0.004 C 
ATOM     31  C   UNL     1      33.929 -14.332 -21.558  0.00  0.00    -0.019 C 
ENDBRANCH  21  23
ENDBRANCH  20  21
ENDBRANCH   4  20
TORSDOF 6
ENDMDL
MODEL 5
REMARK VINA RESULT:     -11.8      4.355     11.786
REMARK  Name = 44141871
REMARK  6 active torsions:
REMARK  status: ('A' for Active; 'I' for Inactive)
REMARK    1  A    between atoms: C_1  and  C_10
REMARK    2  A    between atoms: C_4  and  O_20
REMARK    3  A    between atoms: C_9  and  C_13
REMARK    4  A    between atoms: C_13  and  C_15
REMARK    5  A    between atoms: O_20  and  C_21
REMARK    6  A    between atoms: C_21  and  C_23
REMARK                            x       y       z     vdW  Elec       q    Type
REMARK                         _______ _______ _______ _____ _____    ______ ____
ROOT
ATOM      1  C   UNL     1      32.997 -13.473 -21.799  0.00  0.00    +0.015 C 
ATOM      2  C   UNL     1      33.668 -14.246 -20.852  0.00  0.00    +0.004 C 
ATOM      3  C   UNL     1      33.216 -13.692 -23.159  0.00  0.00    +0.004 C 
ATOM      4  C   UNL     1      34.775 -15.459 -22.624  0.00  0.00    +0.139 C 
ATOM      5  C   UNL     1      34.556 -15.239 -21.264  0.00  0.00    +0.037 C 
ATOM      6  C   UNL     1      34.105 -14.686 -23.571  0.00  0.00    +0.037 C 
ENDROOT
BRANCH   1  10
ATOM      7  N   UNL     1      31.108 -12.670 -20.441  0.00  0.00    -0.236 N 
ATOM      8  N   UNL     1      30.350 -11.591 -20.177  0.00  0.00    -0.180 NA
ATOM      9  C   UNL     1      31.947 -11.131 -21.746  0.00  0.00    +0.018 C 
ATOM     10  C   UNL     1      32.078 -12.446 -21.373  0.00  0.00    +0.063 C 
ATOM     11  C   UNL     1      30.867 -10.654 -20.976  0.00  0.00    +0.115 C 
ATOM     12  H   UNL     1      30.975 -13.540 -20.001  0.00  0.00    +0.174 HD
BRANCH   9  13
ATOM     13  C   UNL     1      32.746 -10.377 -22.726  0.00  0.00    +0.056 C 
BRANCH  13  15
ATOM     14  N   UNL     1      32.110  -6.106 -22.654  0.00  0.00    -0.242 NA
ATOM     15  C   UNL     1      32.522  -8.870 -22.700  0.00  0.00    -0.015 C 
ATOM     16  C   UNL     1      31.414  -8.319 -23.336  0.00  0.00    +0.017 C 
ATOM     17  C   UNL     1      33.422  -8.041 -22.042  0.00  0.00    +0.017 C 
ATOM     18  C   UNL     1      31.256  -6.944 -23.284  0.00  0.00    +0.099 C 
ATOM     19  C   UNL     1      33.174  -6.678 -22.048  0.00  0.00    +0.099 C 
ENDBRANCH  13  15
ENDBRANCH   9  13
ENDBRANCH   1  10
BRANCH   4  20
ATOM     20  O   UNL     1      35.645 -16.436 -23.029  0.00  0.00    -0.468 OA
BRANCH  20  21
ATOM     21  C   UNL     1      35.084 -17.705 -23.339  0.00  0.00    +0.264 C 
BRANCH  21  23
ATOM     22  N   UNL     1      34.383 -19.371 -21.729  0.00  0.00    -0.406 NA
ATOM     23  C   UNL     1      35.416 -18.674 -22.254  0.00  0.00    +0.152 C 
ATOM     24  C   UNL     1      35.951 -20.463 -20.263  0.00  0.00    +0.026 C 
ATOM     25  C   UNL     1      34.644 -20.254 -20.747  0.00  0.00    +0.113 C 
ATOM     26  C   UNL     1      36.727 -18.809 -21.846  0.00  0.00    +0.031 C 
ATOM     27  C   UNL     1      36.993 -19.720 -20.834  0.00  0.00    +0.005 C 
ATOM     28  C   UNL     1      36.187 -21.394 -19.237  0.00  0.00    +0.002 C 
ATOM     29  C   UNL     1      33.609 -20.993 -20.180  0.00  0.00    +0.085 C 
ATOM     30  C   UNL     1      35.134 -22.119 -18.687  0.00  0.00    -0.004 C 
ATOM     31  C   UNL     1      33.843 -21.919 -19.160  0.00  0.00    -0.019 C 
ENDBRANCH  21  23
ENDBRANCH  20  21
ENDBRANCH   4  20
TORSDOF 6
ENDMDL
MODEL 6
REMARK VINA RESULT:     -11.8      1.419      2.181
REMARK  Name = 44141871
REMARK  6 active torsions:
REMARK  status: ('A' for Active; 'I' for Inactive)
REMARK    1  A    between atoms: C_1  and  C_10
REMARK    2  A    between atoms: C_4  and  O_20
REMARK    3  A    between atoms: C_9  and  C_13
REMARK    4  A    between atoms: C_13  and  C_15
REMARK    5  A    between atoms: O_20  and  C_21
REMARK    6  A    between atoms: C_21  and  C_23
REMARK                            x       y       z     vdW  Elec       q    Type
REMARK                         _______ _______ _______ _____ _____    ______ ____
ROOT
ATOM      1  C   UNL     1      34.904 -22.307 -18.140  0.00  0.00    +0.015 C 
ATOM      2  C   UNL     1      33.696 -21.986 -18.759  0.00  0.00    +0.004 C 
ATOM      3  C   UNL     1      36.107 -21.855 -18.683  0.00  0.00    +0.004 C 
ATOM      4  C   UNL     1      34.893 -20.761 -20.463  0.00  0.00    +0.139 C 
ATOM      5  C   UNL     1      33.690 -21.213 -19.920  0.00  0.00    +0.037 C 
ATOM      6  C   UNL     1      36.101 -21.082 -19.844  0.00  0.00    +0.037 C 
ENDROOT
BRANCH   1  10
ATOM      7  N   UNL     1      36.059 -23.477 -16.309  0.00  0.00    -0.236 N 
ATOM      8  N   UNL     1      35.859 -24.221 -15.207  0.00  0.00    -0.180 NA
ATOM      9  C   UNL     1      33.884 -23.644 -16.200  0.00  0.00    +0.018 C 
ATOM     10  C   UNL     1      34.909 -23.106 -16.939  0.00  0.00    +0.063 C 
ATOM     11  C   UNL     1      34.528 -24.319 -15.145  0.00  0.00    +0.115 C 
ATOM     12  H   UNL     1      36.955 -23.224 -16.630  0.00  0.00    +0.174 HD
BRANCH   9  13
ATOM     13  C   UNL     1      32.435 -23.544 -16.444  0.00  0.00    +0.056 C 
BRANCH  13  15
ATOM     14  N   UNL     1      29.970 -24.719 -13.098  0.00  0.00    -0.242 NA
ATOM     15  C   UNL     1      31.565 -23.959 -15.264  0.00  0.00    -0.015 C 
ATOM     16  C   UNL     1      31.780 -23.399 -14.008  0.00  0.00    +0.017 C 
ATOM     17  C   UNL     1      30.554 -24.897 -15.437  0.00  0.00    +0.017 C 
ATOM     18  C   UNL     1      30.962 -23.810 -12.968  0.00  0.00    +0.099 C 
ATOM     19  C   UNL     1      29.791 -25.240 -14.332  0.00  0.00    +0.099 C 
ENDBRANCH  13  15
ENDBRANCH   9  13
ENDBRANCH   1  10
BRANCH   4  20
ATOM     20  O   UNL     1      34.888 -19.999 -21.601  0.00  0.00    -0.468 OA
BRANCH  20  21
ATOM     21  C   UNL     1      35.895 -19.001 -21.709  0.00  0.00    +0.264 C 
BRANCH  21  23
ATOM     22  N   UNL     1      35.024 -17.573 -23.459  0.00  0.00    -0.406 NA
ATOM     23  C   UNL     1      35.273 -17.714 -22.137  0.00  0.00    +0.152 C 
ATOM     24  C   UNL     1      34.137 -15.383 -22.992  0.00  0.00    +0.026 C 
ATOM     25  C   UNL     1      34.464 -16.425 -23.883  0.00  0.00    +0.113 C 
ATOM     26  C   UNL     1      34.989 -16.751 -21.190  0.00  0.00    +0.031 C 
ATOM     27  C   UNL     1      34.411 -15.569 -21.630  0.00  0.00    +0.005 C 
ATOM     28  C   UNL     1      33.552 -14.198 -23.469  0.00  0.00    +0.002 C 
ATOM     29  C   UNL     1      34.191 -16.240 -25.236  0.00  0.00    +0.085 C 
ATOM     30  C   UNL     1      33.290 -14.039 -24.827  0.00  0.00    -0.004 C 
ATOM     31  C   UNL     1      33.609 -15.061 -25.712  0.00  0.00    -0.019 C 
ENDBRANCH  21  23
ENDBRANCH  20  21
ENDBRANCH   4  20
TORSDOF 6
ENDMDL
MODEL 7
REMARK VINA RESULT:     -11.8      2.776     10.068
REMARK  Name = 44141871
REMARK  6 active torsions:
REMARK  status: ('A' for Active; 'I' for Inactive)
REMARK    1  A    between atoms: C_1  and  C_10
REMARK    2  A    between atoms: C_4  and  O_20
REMARK    3  A    between atoms: C_9  and  C_13
REMARK    4  A    between atoms: C_13  and  C_15
REMARK    5  A    between atoms: O_20  and  C_21
REMARK    6  A    between atoms: C_21  and  C_23
REMARK                            x       y       z     vdW  Elec       q    Type
REMARK                         _______ _______ _______ _____ _____    ______ ____
ROOT
ATOM      1  C   UNL     1      34.887 -20.107 -21.101  0.00  0.00    +0.015 C 
ATOM      2  C   UNL     1      36.113 -20.523 -20.582  0.00  0.00    +0.004 C 
ATOM      3  C   UNL     1      33.698 -20.556 -20.524  0.00  0.00    +0.004 C 
ATOM      4  C   UNL     1      34.963 -21.834 -18.910  0.00  0.00    +0.139 C 
ATOM      5  C   UNL     1      36.151 -21.385 -19.487  0.00  0.00    +0.037 C 
ATOM      6  C   UNL     1      33.736 -21.418 -19.428  0.00  0.00    +0.037 C 
ENDROOT
BRANCH   1  10
ATOM      7  N   UNL     1      34.680 -19.657 -23.512  0.00  0.00    -0.236 N 
ATOM      8  N   UNL     1      34.673 -18.675 -24.430  0.00  0.00    -0.180 NA
ATOM      9  C   UNL     1      34.958 -17.848 -22.319  0.00  0.00    +0.018 C 
ATOM     10  C   UNL     1      34.848 -19.215 -22.233  0.00  0.00    +0.063 C 
ATOM     11  C   UNL     1      34.842 -17.572 -23.695  0.00  0.00    +0.115 C 
ATOM     12  H   UNL     1      34.574 -20.609 -23.742  0.00  0.00    +0.174 HD
BRANCH   9  13
ATOM     13  C   UNL     1      35.153 -16.879 -21.227  0.00  0.00    +0.056 C 
BRANCH  13  15
ATOM     14  N   UNL     1      32.561 -13.429 -21.407  0.00  0.00    -0.242 NA
ATOM     15  C   UNL     1      34.239 -15.662 -21.290  0.00  0.00    -0.015 C 
ATOM     16  C   UNL     1      33.203 -15.519 -20.373  0.00  0.00    +0.017 C 
ATOM     17  C   UNL     1      34.436 -14.691 -22.265  0.00  0.00    +0.017 C 
ATOM     18  C   UNL     1      32.400 -14.395 -20.474  0.00  0.00    +0.099 C 
ATOM     19  C   UNL     1      33.578 -13.603 -22.281  0.00  0.00    +0.099 C 
ENDBRANCH  13  15
ENDBRANCH   9  13
ENDBRANCH   1  10
BRANCH   4  20
ATOM     20  O   UNL     1      35.000 -22.678 -17.832  0.00  0.00    -0.468 OA
BRANCH  20  21
ATOM     21  C   UNL     1      36.092 -22.525 -16.935  0.00  0.00    +0.264 C 
BRANCH  21  23
ATOM     22  N   UNL     1      36.718 -23.147 -14.681  0.00  0.00    -0.406 NA
ATOM     23  C   UNL     1      35.748 -23.147 -15.623  0.00  0.00    +0.152 C 
ATOM     24  C   UNL     1      35.187 -24.269 -13.198  0.00  0.00    +0.026 C 
ATOM     25  C   UNL     1      36.445 -23.700 -13.485  0.00  0.00    +0.113 C 
ATOM     26  C   UNL     1      34.489 -23.680 -15.437  0.00  0.00    +0.031 C 
ATOM     27  C   UNL     1      34.209 -24.249 -14.202  0.00  0.00    +0.005 C 
ATOM     28  C   UNL     1      34.936 -24.837 -11.938  0.00  0.00    +0.002 C 
ATOM     29  C   UNL     1      37.416 -23.721 -12.487  0.00  0.00    +0.085 C 
ATOM     30  C   UNL     1      35.925 -24.845 -10.958  0.00  0.00    -0.004 C 
ATOM     31  C   UNL     1      37.166 -24.285 -11.233  0.00  0.00    -0.019 C 
ENDBRANCH  21  23
ENDBRANCH  20  21
ENDBRANCH   4  20
TORSDOF 6
ENDMDL
MODEL 8
REMARK VINA RESULT:     -11.3      3.945      7.870
REMARK  Name = 44141871
REMARK  6 active torsions:
REMARK  status: ('A' for Active; 'I' for Inactive)
REMARK    1  A    between atoms: C_1  and  C_10
REMARK    2  A    between atoms: C_4  and  O_20
REMARK    3  A    between atoms: C_9  and  C_13
REMARK    4  A    between atoms: C_13  and  C_15
REMARK    5  A    between atoms: O_20  and  C_21
REMARK    6  A    between atoms: C_21  and  C_23
REMARK                            x       y       z     vdW  Elec       q    Type
REMARK                         _______ _______ _______ _____ _____    ______ ____
ROOT
ATOM      1  C   UNL     1      34.934 -16.759 -21.715  0.00  0.00    +0.015 C 
ATOM      2  C   UNL     1      34.305 -16.262 -20.574  0.00  0.00    +0.004 C 
ATOM      3  C   UNL     1      34.725 -16.143 -22.949  0.00  0.00    +0.004 C 
ATOM      4  C   UNL     1      33.259 -14.535 -21.900  0.00  0.00    +0.139 C 
ATOM      5  C   UNL     1      33.468 -15.151 -20.666  0.00  0.00    +0.037 C 
ATOM      6  C   UNL     1      33.888 -15.031 -23.042  0.00  0.00    +0.037 C 
ENDROOT
BRANCH   1  10
ATOM      7  N   UNL     1      37.143 -17.837 -21.846  0.00  0.00    -0.236 N 
ATOM      8  N   UNL     1      37.780 -19.013 -21.710  0.00  0.00    -0.180 NA
ATOM      9  C   UNL     1      35.539 -19.221 -21.314  0.00  0.00    +0.018 C 
ATOM     10  C   UNL     1      35.800 -17.908 -21.619  0.00  0.00    +0.063 C 
ATOM     11  C   UNL     1      36.795 -19.855 -21.384  0.00  0.00    +0.115 C 
ATOM     12  H   UNL     1      37.604 -17.001 -22.087  0.00  0.00    +0.174 HD
BRANCH   9  13
ATOM     13  C   UNL     1      34.244 -19.840 -20.985  0.00  0.00    +0.056 C 
BRANCH  13  15
ATOM     14  N   UNL     1      34.437 -22.893 -17.937  0.00  0.00    -0.242 NA
ATOM     15  C   UNL     1      34.312 -20.917 -19.910  0.00  0.00    -0.015 C 
ATOM     16  C   UNL     1      33.141 -21.428 -19.359  0.00  0.00    +0.017 C 
ATOM     17  C   UNL     1      35.544 -21.392 -19.475  0.00  0.00    +0.017 C 
ATOM     18  C   UNL     1      33.258 -22.406 -18.385  0.00  0.00    +0.099 C 
ATOM     19  C   UNL     1      35.552 -22.372 -18.495  0.00  0.00    +0.099 C 
ENDBRANCH  13  15
ENDBRANCH   9  13
ENDBRANCH   1  10
BRANCH   4  20
ATOM     20  O   UNL     1      32.439 -13.441 -21.990  0.00  0.00    -0.468 OA
BRANCH  20  21
ATOM     21  C   UNL     1      31.717 -13.083 -20.819  0.00  0.00    +0.264 C 
BRANCH  21  23
ATOM     22  N   UNL     1      31.900 -10.842 -21.714  0.00  0.00    -0.406 NA
ATOM     23  C   UNL     1      31.820 -11.610 -20.604  0.00  0.00    +0.152 C 
ATOM     24  C   UNL     1      32.011  -8.906 -20.286  0.00  0.00    +0.026 C 
ATOM     25  C   UNL     1      31.994  -9.508 -21.560  0.00  0.00    +0.113 C 
ATOM     26  C   UNL     1      31.829 -11.113 -19.317  0.00  0.00    +0.031 C 
ATOM     27  C   UNL     1      31.926  -9.738 -19.161  0.00  0.00    +0.005 C 
ATOM     28  C   UNL     1      32.109  -7.509 -20.162  0.00  0.00    +0.002 C 
ATOM     29  C   UNL     1      32.078  -8.680 -22.677  0.00  0.00    +0.085 C 
ATOM     30  C   UNL     1      32.193  -6.705 -21.295  0.00  0.00    -0.004 C 
ATOM     31  C   UNL     1      32.176  -7.292 -22.554  0.00  0.00    -0.019 C 
ENDBRANCH  21  23
ENDBRANCH  20  21
ENDBRANCH   4  20
TORSDOF 6
ENDMDL
MODEL 9
REMARK VINA RESULT:     -11.1      7.966     12.388
REMARK  Name = 44141871
REMARK  6 active torsions:
REMARK  status: ('A' for Active; 'I' for Inactive)
REMARK    1  A    between atoms: C_1  and  C_10
REMARK    2  A    between atoms: C_4  and  O_20
REMARK    3  A    between atoms: C_9  and  C_13
REMARK    4  A    between atoms: C_13  and  C_15
REMARK    5  A    between atoms: O_20  and  C_21
REMARK    6  A    between atoms: C_21  and  C_23
REMARK                            x       y       z     vdW  Elec       q    Type
REMARK                         _______ _______ _______ _____ _____    ______ ____
ROOT
ATOM      1  C   UNL     1      32.267 -12.063 -20.709  0.00  0.00    +0.015 C 
ATOM      2  C   UNL     1      32.281 -11.480 -21.976  0.00  0.00    +0.004 C 
ATOM      3  C   UNL     1      31.994 -11.281 -19.586  0.00  0.00    +0.004 C 
ATOM      4  C   UNL     1      31.749  -9.336 -20.998  0.00  0.00    +0.139 C 
ATOM      5  C   UNL     1      32.022 -10.118 -22.121  0.00  0.00    +0.037 C 
ATOM      6  C   UNL     1      31.735  -9.918 -19.731  0.00  0.00    +0.037 C 
ENDROOT
BRANCH   1  10
ATOM      7  N   UNL     1      31.875 -14.254 -19.658  0.00  0.00    -0.236 N 
ATOM      8  N   UNL     1      32.265 -15.541 -19.668  0.00  0.00    -0.180 NA
ATOM      9  C   UNL     1      33.417 -14.304 -21.204  0.00  0.00    +0.018 C 
ATOM     10  C   UNL     1      32.534 -13.472 -20.560  0.00  0.00    +0.063 C 
ATOM     11  C   UNL     1      33.207 -15.565 -20.614  0.00  0.00    +0.115 C 
ATOM     12  H   UNL     1      31.177 -13.908 -19.056  0.00  0.00    +0.174 HD
BRANCH   9  13
ATOM     13  C   UNL     1      34.374 -13.966 -22.272  0.00  0.00    +0.056 C 
BRANCH  13  15
ATOM     14  N   UNL     1      33.877 -16.242 -25.909  0.00  0.00    -0.242 NA
ATOM     15  C   UNL     1      34.199 -14.769 -23.555  0.00  0.00    -0.015 C 
ATOM     16  C   UNL     1      33.322 -14.327 -24.540  0.00  0.00    +0.017 C 
ATOM     17  C   UNL     1      34.915 -15.945 -23.745  0.00  0.00    +0.017 C 
ATOM     18  C   UNL     1      33.198 -15.094 -25.687  0.00  0.00    +0.099 C 
ATOM     19  C   UNL     1      34.720 -16.639 -24.929  0.00  0.00    +0.099 C 
ENDBRANCH  13  15
ENDBRANCH   9  13
ENDBRANCH   1  10
BRANCH   4  20
ATOM     20  O   UNL     1      31.492  -7.999 -21.140  0.00  0.00    -0.468 OA
BRANCH  20  21
ATOM     21  C   UNL     1      32.608  -7.121 -21.079  0.00  0.00    +0.264 C 
BRANCH  21  23
ATOM     22  N   UNL     1      31.973  -5.344 -22.596  0.00  0.00    -0.406 NA
ATOM     23  C   UNL     1      32.762  -6.423 -22.390  0.00  0.00    +0.152 C 
ATOM     24  C   UNL     1      32.991  -5.097 -24.765  0.00  0.00    +0.026 C 
ATOM     25  C   UNL     1      32.084  -4.688 -23.766  0.00  0.00    +0.113 C 
ATOM     26  C   UNL     1      33.677  -6.898 -23.306  0.00  0.00    +0.031 C 
ATOM     27  C   UNL     1      33.789  -6.221 -24.512  0.00  0.00    +0.005 C 
ATOM     28  C   UNL     1      33.080  -4.389 -25.976  0.00  0.00    +0.002 C 
ATOM     29  C   UNL     1      31.290  -3.572 -24.019  0.00  0.00    +0.085 C 
ATOM     30  C   UNL     1      32.274  -3.276 -26.202  0.00  0.00    -0.004 C 
ATOM     31  C   UNL     1      31.379  -2.867 -25.222  0.00  0.00    -0.019 C 
ENDBRANCH  21  23
ENDBRANCH  20  21
ENDBRANCH   4  20
TORSDOF 6
ENDMDL
