MODEL 1
REMARK VINA RESULT:     -12.4      0.000      0.000
REMARK  Name = 9998128
REMARK  2 active torsions:
REMARK  status: ('A' for Active; 'I' for Inactive)
REMARK    1  A    between atoms: N_1  and  C_15
REMARK    2  A    between atoms: C_7  and  C_24
REMARK                            x       y       z     vdW  Elec       q    Type
REMARK                         _______ _______ _______ _____ _____    ______ ____
ROOT
ATOM      1  N   UNL     1      35.907 -23.279 -15.988  0.00  0.00    -0.290 N 
ATOM      2  N   UNL     1      33.559 -23.402 -16.070  0.00  0.00    -0.327 NA
ATOM      3  N   UNL     1      32.347 -22.529 -17.961  0.00  0.00    -0.342 NA
ATOM      4  C   UNL     1      34.740 -22.383 -17.916  0.00  0.00    +0.143 C 
ATOM      5  C   UNL     1      34.697 -23.014 -16.676  0.00  0.00    +0.184 C 
ATOM      6  C   UNL     1      33.502 -22.155 -18.539  0.00  0.00    +0.133 C 
ATOM      7  C   UNL     1      32.438 -23.132 -16.758  0.00  0.00    +0.165 C 
ATOM      8  C   UNL     1      35.942 -21.986 -18.529  0.00  0.00    -0.011 C 
ATOM      9  C   UNL     1      33.505 -21.524 -19.781  0.00  0.00    +0.029 C 
ATOM     10  C   UNL     1      35.916 -21.359 -19.770  0.00  0.00    -0.004 C 
ATOM     11  C   UNL     1      34.696 -21.128 -20.397  0.00  0.00    +0.002 C 
ATOM     12  H   UNL     1      36.621 -22.626 -16.175  0.00  0.00    +0.154 HD
ENDROOT
BRANCH   1  15
ATOM     13  N   UNL     1      37.505 -27.043 -12.299  0.00  0.00    -0.236 N 
ATOM     14  N   UNL     1      38.090 -26.320 -11.329  0.00  0.00    -0.180 NA
ATOM     15  C   UNL     1      36.285 -24.290 -15.091  0.00  0.00    +0.050 C 
ATOM     16  C   UNL     1      37.323 -24.979 -13.017  0.00  0.00    +0.037 C 
ATOM     17  C   UNL     1      37.023 -26.298 -13.340  0.00  0.00    +0.067 C 
ATOM     18  C   UNL     1      36.951 -23.952 -13.901  0.00  0.00    +0.018 C 
ATOM     19  C   UNL     1      36.000 -25.629 -15.386  0.00  0.00    +0.016 C 
ATOM     20  C   UNL     1      36.363 -26.662 -14.516  0.00  0.00    +0.017 C 
ATOM     21  C   UNL     1      37.977 -25.065 -11.770  0.00  0.00    +0.119 C 
ATOM     22  H   UNL     1      37.429 -28.024 -12.262  0.00  0.00    +0.174 HD
ENDBRANCH   1  15
BRANCH   7  24
ATOM     23  N   UNL     1      30.086 -22.990 -16.697  0.00  0.00    -0.398 NA
ATOM     24  C   UNL     1      31.197 -23.530 -16.146  0.00  0.00    +0.197 C 
ATOM     25  C   UNL     1      31.177 -24.407 -15.071  0.00  0.00    +0.098 C 
ATOM     26  C   UNL     1      28.904 -23.345 -16.144  0.00  0.00    +0.110 C 
ATOM     27  C   UNL     1      29.943 -24.747 -14.528  0.00  0.00    -0.016 C 
ATOM     28  C   UNL     1      28.779 -24.211 -15.070  0.00  0.00    +0.023 C 
ATOM     29  C   UNL     1      27.677 -22.749 -16.749  0.00  0.00    +0.066 C 
ENDBRANCH   7  24
TORSDOF 2
ENDMDL
MODEL 2
REMARK VINA RESULT:     -12.3      1.369      4.811
REMARK  Name = 9998128
REMARK  2 active torsions:
REMARK  status: ('A' for Active; 'I' for Inactive)
REMARK    1  A    between atoms: N_1  and  C_15
REMARK    2  A    between atoms: C_7  and  C_24
REMARK                            x       y       z     vdW  Elec       q    Type
REMARK                         _______ _______ _______ _____ _____    ______ ____
ROOT
ATOM      1  N   UNL     1      33.791 -25.141 -14.266  0.00  0.00    -0.290 N 
ATOM      2  N   UNL     1      33.799 -23.773 -16.180  0.00  0.00    -0.327 NA
ATOM      3  N   UNL     1      31.739 -22.905 -17.079  0.00  0.00    -0.342 NA
ATOM      4  C   UNL     1      31.687 -24.297 -15.127  0.00  0.00    +0.143 C 
ATOM      5  C   UNL     1      33.074 -24.380 -15.222  0.00  0.00    +0.184 C 
ATOM      6  C   UNL     1      31.045 -23.525 -16.108  0.00  0.00    +0.133 C 
ATOM      7  C   UNL     1      33.078 -23.063 -17.063  0.00  0.00    +0.165 C 
ATOM      8  C   UNL     1      30.952 -24.940 -14.116  0.00  0.00    -0.011 C 
ATOM      9  C   UNL     1      29.657 -23.418 -16.047  0.00  0.00    +0.029 C 
ATOM     10  C   UNL     1      29.567 -24.817 -14.078  0.00  0.00    -0.004 C 
ATOM     11  C   UNL     1      28.919 -24.054 -15.045  0.00  0.00    +0.002 C 
ATOM     12  H   UNL     1      33.284 -25.904 -13.903  0.00  0.00    +0.154 HD
ENDROOT
BRANCH   1  15
ATOM     13  N   UNL     1      38.775 -24.450 -12.025  0.00  0.00    -0.236 N 
ATOM     14  N   UNL     1      38.601 -23.446 -11.149  0.00  0.00    -0.180 NA
ATOM     15  C   UNL     1      35.086 -25.020 -13.737  0.00  0.00    +0.050 C 
ATOM     16  C   UNL     1      36.652 -23.945 -12.238  0.00  0.00    +0.037 C 
ATOM     17  C   UNL     1      37.643 -24.798 -12.711  0.00  0.00    +0.067 C 
ATOM     18  C   UNL     1      35.349 -24.051 -12.754  0.00  0.00    +0.018 C 
ATOM     19  C   UNL     1      36.108 -25.863 -14.191  0.00  0.00    +0.016 C 
ATOM     20  C   UNL     1      37.410 -25.770 -13.687  0.00  0.00    +0.017 C 
ATOM     21  C   UNL     1      37.308 -23.142 -11.282  0.00  0.00    +0.119 C 
ATOM     22  H   UNL     1      39.642 -24.897 -12.160  0.00  0.00    +0.174 HD
ENDBRANCH   1  15
BRANCH   7  24
ATOM     23  N   UNL     1      33.065 -21.654 -18.952  0.00  0.00    -0.398 NA
ATOM     24  C   UNL     1      33.814 -22.397 -18.105  0.00  0.00    +0.197 C 
ATOM     25  C   UNL     1      35.191 -22.530 -18.207  0.00  0.00    +0.098 C 
ATOM     26  C   UNL     1      33.728 -21.016 -19.943  0.00  0.00    +0.110 C 
ATOM     27  C   UNL     1      35.838 -21.859 -19.239  0.00  0.00    -0.016 C 
ATOM     28  C   UNL     1      35.099 -21.085 -20.128  0.00  0.00    +0.023 C 
ATOM     29  C   UNL     1      32.904 -20.195 -20.878  0.00  0.00    +0.066 C 
ENDBRANCH   7  24
TORSDOF 2
ENDMDL
MODEL 3
REMARK VINA RESULT:     -11.8      1.887      6.970
REMARK  Name = 9998128
REMARK  2 active torsions:
REMARK  status: ('A' for Active; 'I' for Inactive)
REMARK    1  A    between atoms: N_1  and  C_15
REMARK    2  A    between atoms: C_7  and  C_24
REMARK                            x       y       z     vdW  Elec       q    Type
REMARK                         _______ _______ _______ _____ _____    ______ ____
ROOT
ATOM      1  N   UNL     1      33.282 -24.115 -13.584  0.00  0.00    -0.290 N 
ATOM      2  N   UNL     1      34.489 -23.334 -15.447  0.00  0.00    -0.327 NA
ATOM      3  N   UNL     1      36.885 -23.572 -15.547  0.00  0.00    -0.342 NA
ATOM      4  C   UNL     1      35.692 -24.381 -13.630  0.00  0.00    +0.143 C 
ATOM      5  C   UNL     1      34.523 -23.935 -14.243  0.00  0.00    +0.184 C 
ATOM      6  C   UNL     1      36.884 -24.170 -14.342  0.00  0.00    +0.133 C 
ATOM      7  C   UNL     1      35.688 -23.186 -16.034  0.00  0.00    +0.165 C 
ATOM      8  C   UNL     1      35.703 -25.007 -12.372  0.00  0.00    -0.011 C 
ATOM      9  C   UNL     1      38.074 -24.601 -13.761  0.00  0.00    +0.029 C 
ATOM     10  C   UNL     1      36.905 -25.428 -11.814  0.00  0.00    -0.004 C 
ATOM     11  C   UNL     1      38.093 -25.225 -12.510  0.00  0.00    +0.002 C 
ATOM     12  H   UNL     1      33.348 -24.104 -12.601  0.00  0.00    +0.154 HD
ENDROOT
BRANCH   1  15
ATOM     13  N   UNL     1      28.175 -24.603 -15.588  0.00  0.00    -0.236 N 
ATOM     14  N   UNL     1      27.999 -23.481 -16.307  0.00  0.00    -0.180 NA
ATOM     15  C   UNL     1      31.975 -24.304 -14.061  0.00  0.00    +0.050 C 
ATOM     16  C   UNL     1      30.075 -23.536 -15.347  0.00  0.00    +0.037 C 
ATOM     17  C   UNL     1      29.400 -24.697 -14.987  0.00  0.00    +0.067 C 
ATOM     18  C   UNL     1      31.384 -23.328 -14.881  0.00  0.00    +0.018 C 
ATOM     19  C   UNL     1      31.266 -25.462 -13.717  0.00  0.00    +0.016 C 
ATOM     20  C   UNL     1      29.963 -25.683 -14.173  0.00  0.00    +0.017 C 
ATOM     21  C   UNL     1      29.157 -22.835 -16.158  0.00  0.00    +0.119 C 
ATOM     22  H   UNL     1      27.482 -25.297 -15.503  0.00  0.00    +0.174 HD
ENDBRANCH   1  15
BRANCH   7  24
ATOM     23  N   UNL     1      34.481 -22.391 -17.896  0.00  0.00    -0.398 NA
ATOM     24  C   UNL     1      35.697 -22.546 -17.323  0.00  0.00    +0.197 C 
ATOM     25  C   UNL     1      36.884 -22.132 -17.910  0.00  0.00    +0.098 C 
ATOM     26  C   UNL     1      34.457 -21.793 -19.109  0.00  0.00    +0.110 C 
ATOM     27  C   UNL     1      36.819 -21.523 -19.157  0.00  0.00    -0.016 C 
ATOM     28  C   UNL     1      35.586 -21.346 -19.775  0.00  0.00    +0.023 C 
ATOM     29  C   UNL     1      33.117 -21.621 -19.742  0.00  0.00    +0.066 C 
ENDBRANCH   7  24
TORSDOF 2
ENDMDL
MODEL 4
REMARK VINA RESULT:     -11.5      1.945      6.061
REMARK  Name = 9998128
REMARK  2 active torsions:
REMARK  status: ('A' for Active; 'I' for Inactive)
REMARK    1  A    between atoms: N_1  and  C_15
REMARK    2  A    between atoms: C_7  and  C_24
REMARK                            x       y       z     vdW  Elec       q    Type
REMARK                         _______ _______ _______ _____ _____    ______ ____
ROOT
ATOM      1  N   UNL     1      35.428 -23.269 -16.855  0.00  0.00    -0.290 N 
ATOM      2  N   UNL     1      33.415 -23.881 -15.803  0.00  0.00    -0.327 NA
ATOM      3  N   UNL     1      33.384 -24.504 -13.476  0.00  0.00    -0.342 NA
ATOM      4  C   UNL     1      35.457 -23.887 -14.510  0.00  0.00    +0.143 C 
ATOM      5  C   UNL     1      34.743 -23.692 -15.690  0.00  0.00    +0.184 C 
ATOM      6  C   UNL     1      34.711 -24.306 -13.397  0.00  0.00    +0.133 C 
ATOM      7  C   UNL     1      32.807 -24.281 -14.675  0.00  0.00    +0.165 C 
ATOM      8  C   UNL     1      36.845 -23.683 -14.417  0.00  0.00    -0.011 C 
ATOM      9  C   UNL     1      35.391 -24.512 -12.199  0.00  0.00    +0.029 C 
ATOM     10  C   UNL     1      37.499 -23.896 -13.208  0.00  0.00    -0.004 C 
ATOM     11  C   UNL     1      36.771 -24.311 -12.097  0.00  0.00    +0.002 C 
ATOM     12  H   UNL     1      36.363 -23.575 -16.900  0.00  0.00    +0.154 HD
ENDROOT
BRANCH   1  15
ATOM     13  N   UNL     1      34.151 -20.164 -21.222  0.00  0.00    -0.236 N 
ATOM     14  N   UNL     1      35.332 -19.664 -21.623  0.00  0.00    -0.180 NA
ATOM     15  C   UNL     1      35.032 -22.497 -17.959  0.00  0.00    +0.050 C 
ATOM     16  C   UNL     1      35.579 -21.014 -19.791  0.00  0.00    +0.037 C 
ATOM     17  C   UNL     1      34.230 -20.982 -20.128  0.00  0.00    +0.067 C 
ATOM     18  C   UNL     1      35.995 -21.781 -18.691  0.00  0.00    +0.018 C 
ATOM     19  C   UNL     1      33.682 -22.442 -18.326  0.00  0.00    +0.016 C 
ATOM     20  C   UNL     1      33.251 -21.683 -19.419  0.00  0.00    +0.017 C 
ATOM     21  C   UNL     1      36.198 -20.184 -20.750  0.00  0.00    +0.119 C 
ATOM     22  H   UNL     1      33.302 -19.960 -21.678  0.00  0.00    +0.174 HD
ENDBRANCH   1  15
BRANCH   7  24
ATOM     23  N   UNL     1      30.714 -23.619 -15.533  0.00  0.00    -0.398 NA
ATOM     24  C   UNL     1      31.386 -24.495 -14.751  0.00  0.00    +0.197 C 
ATOM     25  C   UNL     1      30.779 -25.534 -14.060  0.00  0.00    +0.098 C 
ATOM     26  C   UNL     1      29.377 -23.793 -15.626  0.00  0.00    +0.110 C 
ATOM     27  C   UNL     1      29.402 -25.681 -14.179  0.00  0.00    -0.016 C 
ATOM     28  C   UNL     1      28.679 -24.798 -14.975  0.00  0.00    +0.023 C 
ATOM     29  C   UNL     1      28.634 -22.828 -16.487  0.00  0.00    +0.066 C 
ENDBRANCH   7  24
TORSDOF 2
ENDMDL
MODEL 5
REMARK VINA RESULT:     -11.5      1.948      6.037
REMARK  Name = 9998128
REMARK  2 active torsions:
REMARK  status: ('A' for Active; 'I' for Inactive)
REMARK    1  A    between atoms: N_1  and  C_15
REMARK    2  A    between atoms: C_7  and  C_24
REMARK                            x       y       z     vdW  Elec       q    Type
REMARK                         _______ _______ _______ _____ _____    ______ ____
ROOT
ATOM      1  N   UNL     1      35.968 -23.511 -16.077  0.00  0.00    -0.290 N 
ATOM      2  N   UNL     1      33.848 -24.048 -15.208  0.00  0.00    -0.327 NA
ATOM      3  N   UNL     1      33.580 -24.612 -12.881  0.00  0.00    -0.342 NA
ATOM      4  C   UNL     1      35.758 -24.071 -13.727  0.00  0.00    +0.143 C 
ATOM      5  C   UNL     1      35.164 -23.889 -14.973  0.00  0.00    +0.184 C 
ATOM      6  C   UNL     1      34.899 -24.443 -12.680  0.00  0.00    +0.133 C 
ATOM      7  C   UNL     1      33.126 -24.405 -14.134  0.00  0.00    +0.165 C 
ATOM      8  C   UNL     1      37.136 -23.898 -13.506  0.00  0.00    -0.011 C 
ATOM      9  C   UNL     1      35.457 -24.636 -11.418  0.00  0.00    +0.029 C 
ATOM     10  C   UNL     1      37.666 -24.096 -12.235  0.00  0.00    -0.004 C 
ATOM     11  C   UNL     1      36.825 -24.466 -11.190  0.00  0.00    +0.002 C 
ATOM     12  H   UNL     1      36.895 -23.841 -16.026  0.00  0.00    +0.154 HD
ENDROOT
BRANCH   1  15
ATOM     13  N   UNL     1      34.634 -20.619 -20.571  0.00  0.00    -0.236 N 
ATOM     14  N   UNL     1      33.298 -20.741 -20.652  0.00  0.00    -0.180 NA
ATOM     15  C   UNL     1      35.699 -22.758 -17.231  0.00  0.00    +0.050 C 
ATOM     16  C   UNL     1      34.128 -21.868 -18.841  0.00  0.00    +0.037 C 
ATOM     17  C   UNL     1      35.193 -21.272 -19.507  0.00  0.00    +0.067 C 
ATOM     18  C   UNL     1      34.376 -22.624 -17.683  0.00  0.00    +0.018 C 
ATOM     19  C   UNL     1      36.749 -22.145 -17.926  0.00  0.00    +0.016 C 
ATOM     20  C   UNL     1      36.518 -21.388 -19.080  0.00  0.00    +0.017 C 
ATOM     21  C   UNL     1      32.994 -21.501 -19.597  0.00  0.00    +0.119 C 
ATOM     22  H   UNL     1      35.164 -20.105 -21.222  0.00  0.00    +0.174 HD
ENDBRANCH   1  15
BRANCH   7  24
ATOM     23  N   UNL     1      31.134 -23.689 -15.171  0.00  0.00    -0.398 NA
ATOM     24  C   UNL     1      31.713 -24.587 -14.341  0.00  0.00    +0.197 C 
ATOM     25  C   UNL     1      31.024 -25.618 -13.719  0.00  0.00    +0.098 C 
ATOM     26  C   UNL     1      29.807 -23.833 -15.385  0.00  0.00    +0.110 C 
ATOM     27  C   UNL     1      29.661 -25.734 -13.963  0.00  0.00    -0.016 C 
ATOM     28  C   UNL     1      29.032 -24.828 -14.812  0.00  0.00    +0.023 C 
ATOM     29  C   UNL     1      29.166 -22.843 -16.300  0.00  0.00    +0.066 C 
ENDBRANCH   7  24
TORSDOF 2
ENDMDL
MODEL 6
REMARK VINA RESULT:     -10.5      2.088      7.362
REMARK  Name = 9998128
REMARK  2 active torsions:
REMARK  status: ('A' for Active; 'I' for Inactive)
REMARK    1  A    between atoms: N_1  and  C_15
REMARK    2  A    between atoms: C_7  and  C_24
REMARK                            x       y       z     vdW  Elec       q    Type
REMARK                         _______ _______ _______ _____ _____    ______ ____
ROOT
ATOM      1  N   UNL     1      32.201 -22.632 -17.044  0.00  0.00    -0.290 N 
ATOM      2  N   UNL     1      33.469 -23.429 -15.229  0.00  0.00    -0.327 NA
ATOM      3  N   UNL     1      32.509 -24.964 -13.639  0.00  0.00    -0.342 NA
ATOM      4  C   UNL     1      31.183 -24.175 -15.474  0.00  0.00    +0.143 C 
ATOM      5  C   UNL     1      32.290 -23.435 -15.880  0.00  0.00    +0.184 C 
ATOM      6  C   UNL     1      31.345 -24.947 -14.313  0.00  0.00    +0.133 C 
ATOM      7  C   UNL     1      33.507 -24.204 -14.134  0.00  0.00    +0.165 C 
ATOM      8  C   UNL     1      29.961 -24.164 -16.171  0.00  0.00    -0.011 C 
ATOM      9  C   UNL     1      30.259 -25.701 -13.875  0.00  0.00    +0.029 C 
ATOM     10  C   UNL     1      28.892 -24.927 -15.712  0.00  0.00    -0.004 C 
ATOM     11  C   UNL     1      29.042 -25.696 -14.562  0.00  0.00    +0.002 C 
ATOM     12  H   UNL     1      31.296 -22.285 -17.219  0.00  0.00    +0.154 HD
ENDROOT
BRANCH   1  15
ATOM     13  N   UNL     1      35.734 -20.911 -20.903  0.00  0.00    -0.236 N 
ATOM     14  N   UNL     1      35.004 -20.076 -21.663  0.00  0.00    -0.180 NA
ATOM     15  C   UNL     1      33.153 -22.235 -17.996  0.00  0.00    +0.050 C 
ATOM     16  C   UNL     1      33.757 -20.948 -19.954  0.00  0.00    +0.037 C 
ATOM     17  C   UNL     1      35.044 -21.468 -19.862  0.00  0.00    +0.067 C 
ATOM     18  C   UNL     1      32.790 -21.333 -19.010  0.00  0.00    +0.018 C 
ATOM     19  C   UNL     1      34.458 -22.739 -17.933  0.00  0.00    +0.016 C 
ATOM     20  C   UNL     1      35.432 -22.366 -18.864  0.00  0.00    +0.017 C 
ATOM     21  C   UNL     1      33.803 -20.101 -21.082  0.00  0.00    +0.119 C 
ATOM     22  H   UNL     1      36.682 -21.104 -21.082  0.00  0.00    +0.174 HD
ENDBRANCH   1  15
BRANCH   7  24
ATOM     23  N   UNL     1      34.635 -24.458 -12.079  0.00  0.00    -0.398 NA
ATOM     24  C   UNL     1      34.750 -24.228 -13.407  0.00  0.00    +0.197 C 
ATOM     25  C   UNL     1      35.962 -24.024 -14.052  0.00  0.00    +0.098 C 
ATOM     26  C   UNL     1      35.785 -24.485 -11.368  0.00  0.00    +0.110 C 
ATOM     27  C   UNL     1      37.122 -24.059 -13.288  0.00  0.00    -0.016 C 
ATOM     28  C   UNL     1      37.041 -24.294 -11.919  0.00  0.00    +0.023 C 
ATOM     29  C   UNL     1      35.660 -24.738  -9.903  0.00  0.00    +0.066 C 
ENDBRANCH   7  24
TORSDOF 2
ENDMDL
MODEL 7
REMARK VINA RESULT:     -10.3      1.583      6.890
REMARK  Name = 9998128
REMARK  2 active torsions:
REMARK  status: ('A' for Active; 'I' for Inactive)
REMARK    1  A    between atoms: N_1  and  C_15
REMARK    2  A    between atoms: C_7  and  C_24
REMARK                            x       y       z     vdW  Elec       q    Type
REMARK                         _______ _______ _______ _____ _____    ______ ____
ROOT
ATOM      1  N   UNL     1      32.281 -23.179 -17.154  0.00  0.00    -0.290 N 
ATOM      2  N   UNL     1      33.970 -23.729 -15.611  0.00  0.00    -0.327 NA
ATOM      3  N   UNL     1      36.274 -23.195 -16.069  0.00  0.00    -0.342 NA
ATOM      4  C   UNL     1      34.584 -22.618 -17.668  0.00  0.00    +0.143 C 
ATOM      5  C   UNL     1      33.652 -23.178 -16.797  0.00  0.00    +0.184 C 
ATOM      6  C   UNL     1      35.923 -22.652 -17.247  0.00  0.00    +0.133 C 
ATOM      7  C   UNL     1      35.279 -23.705 -15.315  0.00  0.00    +0.165 C 
ATOM      8  C   UNL     1      34.227 -22.047 -18.903  0.00  0.00    -0.011 C 
ATOM      9  C   UNL     1      36.884 -22.102 -18.092  0.00  0.00    +0.029 C 
ATOM     10  C   UNL     1      35.208 -21.505 -19.727  0.00  0.00    -0.004 C 
ATOM     11  C   UNL     1      36.538 -21.532 -19.321  0.00  0.00    +0.002 C 
ATOM     12  H   UNL     1      32.123 -23.222 -18.126  0.00  0.00    +0.154 HD
ENDROOT
BRANCH   1  15
ATOM     13  N   UNL     1      27.514 -22.949 -14.405  0.00  0.00    -0.236 N 
ATOM     14  N   UNL     1      26.595 -22.742 -15.363  0.00  0.00    -0.180 NA
ATOM     15  C   UNL     1      31.103 -23.132 -16.392  0.00  0.00    +0.050 C 
ATOM     16  C   UNL     1      28.701 -22.880 -16.247  0.00  0.00    +0.037 C 
ATOM     17  C   UNL     1      28.797 -23.041 -14.869  0.00  0.00    +0.067 C 
ATOM     18  C   UNL     1      29.868 -22.925 -17.028  0.00  0.00    +0.018 C 
ATOM     19  C   UNL     1      31.164 -23.289 -15.001  0.00  0.00    +0.016 C 
ATOM     20  C   UNL     1      30.011 -23.248 -14.210  0.00  0.00    +0.017 C 
ATOM     21  C   UNL     1      27.321 -22.701 -16.483  0.00  0.00    +0.119 C 
ATOM     22  H   UNL     1      27.282 -23.027 -13.451  0.00  0.00    +0.174 HD
ENDBRANCH   1  15
BRANCH   7  24
ATOM     23  N   UNL     1      36.919 -24.785 -14.011  0.00  0.00    -0.398 NA
ATOM     24  C   UNL     1      35.663 -24.285 -14.054  0.00  0.00    +0.197 C 
ATOM     25  C   UNL     1      34.784 -24.314 -12.981  0.00  0.00    +0.098 C 
ATOM     26  C   UNL     1      37.309 -25.337 -12.840  0.00  0.00    +0.110 C 
ATOM     27  C   UNL     1      35.220 -24.890 -11.794  0.00  0.00    -0.016 C 
ATOM     28  C   UNL     1      36.507 -25.414 -11.713  0.00  0.00    +0.023 C 
ATOM     29  C   UNL     1      38.694 -25.889 -12.790  0.00  0.00    +0.066 C 
ENDBRANCH   7  24
TORSDOF 2
ENDMDL
MODEL 8
REMARK VINA RESULT:      -9.9      1.828      6.317
REMARK  Name = 9998128
REMARK  2 active torsions:
REMARK  status: ('A' for Active; 'I' for Inactive)
REMARK    1  A    between atoms: N_1  and  C_15
REMARK    2  A    between atoms: C_7  and  C_24
REMARK                            x       y       z     vdW  Elec       q    Type
REMARK                         _______ _______ _______ _____ _____    ______ ____
ROOT
ATOM      1  N   UNL     1      33.172 -23.452 -17.130  0.00  0.00    -0.290 N 
ATOM      2  N   UNL     1      35.202 -23.613 -15.951  0.00  0.00    -0.327 NA
ATOM      3  N   UNL     1      37.190 -22.528 -16.773  0.00  0.00    -0.342 NA
ATOM      4  C   UNL     1      35.141 -22.340 -18.005  0.00  0.00    +0.143 C 
ATOM      5  C   UNL     1      34.547 -23.127 -17.022  0.00  0.00    +0.184 C 
ATOM      6  C   UNL     1      36.506 -22.059 -17.832  0.00  0.00    +0.133 C 
ATOM      7  C   UNL     1      36.501 -23.279 -15.890  0.00  0.00    +0.165 C 
ATOM      8  C   UNL     1      34.436 -21.845 -19.116  0.00  0.00    -0.011 C 
ATOM      9  C   UNL     1      37.136 -21.274 -18.795  0.00  0.00    +0.029 C 
ATOM     10  C   UNL     1      35.090 -21.063 -20.062  0.00  0.00    -0.004 C 
ATOM     11  C   UNL     1      36.442 -20.777 -19.902  0.00  0.00    +0.002 C 
ATOM     12  H   UNL     1      32.848 -23.510 -18.058  0.00  0.00    +0.154 HD
ENDROOT
BRANCH   1  15
ATOM     13  N   UNL     1      29.478 -24.611 -13.211  0.00  0.00    -0.236 N 
ATOM     14  N   UNL     1      30.163 -25.358 -12.330  0.00  0.00    -0.180 NA
ATOM     15  C   UNL     1      32.181 -23.708 -16.169  0.00  0.00    +0.050 C 
ATOM     16  C   UNL     1      31.485 -24.730 -14.089  0.00  0.00    +0.037 C 
ATOM     17  C   UNL     1      30.214 -24.202 -14.290  0.00  0.00    +0.067 C 
ATOM     18  C   UNL     1      32.490 -24.484 -15.039  0.00  0.00    +0.018 C 
ATOM     19  C   UNL     1      30.891 -23.192 -16.340  0.00  0.00    +0.016 C 
ATOM     20  C   UNL     1      29.879 -23.427 -15.403  0.00  0.00    +0.017 C 
ATOM     21  C   UNL     1      31.383 -25.429 -12.867  0.00  0.00    +0.119 C 
ATOM     22  H   UNL     1      28.530 -24.378 -13.091  0.00  0.00    +0.174 HD
ENDBRANCH   1  15
BRANCH   7  24
ATOM     23  N   UNL     1      38.341 -24.501 -15.067  0.00  0.00    -0.398 NA
ATOM     24  C   UNL     1      37.240 -23.778 -14.760  0.00  0.00    +0.197 C 
ATOM     25  C   UNL     1      36.826 -23.518 -13.461  0.00  0.00    +0.098 C 
ATOM     26  C   UNL     1      39.057 -24.984 -14.026  0.00  0.00    +0.110 C 
ATOM     27  C   UNL     1      37.587 -24.031 -12.417  0.00  0.00    -0.016 C 
ATOM     28  C   UNL     1      38.726 -24.779 -12.696  0.00  0.00    +0.023 C 
ATOM     29  C   UNL     1      40.271 -25.782 -14.363  0.00  0.00    +0.066 C 
ENDBRANCH   7  24
TORSDOF 2
ENDMDL
