MODEL 1
REMARK VINA RESULT:     -12.2      0.000      0.000
REMARK  Name = 445480
REMARK  5 active torsions:
REMARK  status: ('A' for Active; 'I' for Inactive)
REMARK    1  A    between atoms: N_2  and  C_21
REMARK    2  A    between atoms: C_3  and  N_7
REMARK    3  A    between atoms: N_7  and  S_9
REMARK    4  A    between atoms: S_9  and  C_14
REMARK    5  A    between atoms: C_21  and  C_24
REMARK                            x       y       z     vdW  Elec       q    Type
REMARK                         _______ _______ _______ _____ _____    ______ ____
ROOT
ATOM      1  O   UNL     1      36.170 -21.611 -20.040  0.00  0.00    -0.273 OA
ATOM      2  N   UNL     1      34.038 -22.219 -19.254  0.00  0.00    -0.274 N 
ATOM      3  C   UNL     1      34.251 -20.138 -20.282  0.00  0.00    +0.153 C 
ATOM      4  C   UNL     1      32.785 -20.552 -20.268  0.00  0.00    +0.048 C 
ATOM      5  C   UNL     1      32.726 -21.618 -19.191  0.00  0.00    +0.096 C 
ATOM      6  C   UNL     1      34.978 -21.396 -19.875  0.00  0.00    +0.242 C 
ENDROOT
BRANCH   3   7
ATOM      7  N   UNL     1      34.676 -19.744 -21.630  0.00  0.00    -0.171 NA
ATOM      8  H   UNL     1      35.097 -20.564 -22.067  0.00  0.00    +0.149 HD
BRANCH   7   9
ATOM      9  S   UNL     1      35.798 -18.456 -21.778  0.00  0.00    +0.066 S 
ATOM     10  O   UNL     1      37.009 -18.947 -22.408  0.00  0.00    -0.152 OA
ATOM     11  O   UNL     1      35.844 -17.720 -20.530  0.00  0.00    -0.152 OA
BRANCH   9  14
ATOM     12  S   UNL     1      34.690 -15.794 -22.234  0.00  0.00    -0.066 S 
ATOM     13  N   UNL     1      33.905 -15.912 -26.043  0.00  0.00    -0.243 NA
ATOM     14  C   UNL     1      35.100 -17.280 -22.937  0.00  0.00    +0.153 C 
ATOM     15  C   UNL     1      34.841 -17.359 -24.262  0.00  0.00    +0.046 C 
ATOM     16  C   UNL     1      34.274 -16.146 -24.753  0.00  0.00    +0.089 C 
ATOM     17  C   UNL     1      34.132 -15.192 -23.745  0.00  0.00    +0.048 C 
ATOM     18  C   UNL     1      33.591 -13.932 -24.041  0.00  0.00    +0.010 C 
ATOM     19  C   UNL     1      33.212 -13.688 -25.354  0.00  0.00    +0.021 C 
ATOM     20  C   UNL     1      33.388 -14.691 -26.290  0.00  0.00    +0.099 C 
ENDBRANCH   9  14
ENDBRANCH   7   9
ENDBRANCH   3   7
BRANCH   2  21
ATOM     21  C   UNL     1      34.323 -23.485 -18.615  0.00  0.00    +0.120 C 
BRANCH  21  24
ATOM     22  N   UNL     1      29.923 -23.352 -14.256  0.00  0.00    -0.230 NA
ATOM     23  N   UNL     1      29.581 -23.206 -16.581  0.00  0.00    -0.343 N 
ATOM     24  C   UNL     1      33.756 -23.512 -17.222  0.00  0.00    -0.002 C 
ATOM     25  C   UNL     1      32.384 -23.410 -17.039  0.00  0.00    +0.000 C 
ATOM     26  C   UNL     1      34.612 -23.635 -16.138  0.00  0.00    -0.003 C 
ATOM     27  C   UNL     1      31.847 -23.432 -15.741  0.00  0.00    +0.031 C 
ATOM     28  C   UNL     1      32.706 -23.558 -14.629  0.00  0.00    +0.004 C 
ATOM     29  C   UNL     1      34.091 -23.658 -14.844  0.00  0.00    -0.000 C 
ATOM     30  C   UNL     1      30.478 -23.334 -15.489  0.00  0.00    +0.125 C 
ATOM     31  C   UNL     1      32.152 -23.578 -13.344  0.00  0.00    +0.021 C 
ATOM     32  C   UNL     1      30.776 -23.473 -13.216  0.00  0.00    +0.100 C 
ATOM     33  H   UNL     1      28.613 -23.136 -16.417  0.00  0.00    +0.144 HD
ATOM     34  H   UNL     1      29.928 -23.188 -17.502  0.00  0.00    +0.144 HD
ENDBRANCH  21  24
ENDBRANCH   2  21
TORSDOF 5
ENDMDL
MODEL 2
REMARK VINA RESULT:     -12.1      2.886     10.526
REMARK  Name = 445480
REMARK  5 active torsions:
REMARK  status: ('A' for Active; 'I' for Inactive)
REMARK    1  A    between atoms: N_2  and  C_21
REMARK    2  A    between atoms: C_3  and  N_7
REMARK    3  A    between atoms: N_7  and  S_9
REMARK    4  A    between atoms: S_9  and  C_14
REMARK    5  A    between atoms: C_21  and  C_24
REMARK                            x       y       z     vdW  Elec       q    Type
REMARK                         _______ _______ _______ _____ _____    ______ ____
ROOT
ATOM      1  O   UNL     1      36.698 -21.049 -19.672  0.00  0.00    -0.273 OA
ATOM      2  N   UNL     1      35.091 -19.946 -20.989  0.00  0.00    -0.274 N 
ATOM      3  C   UNL     1      34.363 -21.721 -19.666  0.00  0.00    +0.153 C 
ATOM      4  C   UNL     1      33.171 -20.859 -20.063  0.00  0.00    +0.048 C 
ATOM      5  C   UNL     1      33.679 -20.079 -21.261  0.00  0.00    +0.096 C 
ATOM      6  C   UNL     1      35.553 -20.886 -20.068  0.00  0.00    +0.242 C 
ENDROOT
BRANCH   3   7
ATOM      7  N   UNL     1      34.393 -21.947 -18.217  0.00  0.00    -0.171 NA
ATOM      8  H   UNL     1      35.360 -22.146 -17.960  0.00  0.00    +0.149 HD
BRANCH   7   9
ATOM      9  S   UNL     1      33.426 -23.210 -17.576  0.00  0.00    +0.066 S 
ATOM     10  O   UNL     1      33.650 -24.420 -18.344  0.00  0.00    -0.152 OA
ATOM     11  O   UNL     1      32.087 -22.707 -17.336  0.00  0.00    -0.152 OA
BRANCH   9  14
ATOM     12  S   UNL     1      35.669 -23.139 -15.709  0.00  0.00    -0.066 S 
ATOM     13  N   UNL     1      34.083 -24.693 -12.515  0.00  0.00    -0.243 NA
ATOM     14  C   UNL     1      34.045 -23.566 -15.932  0.00  0.00    +0.153 C 
ATOM     15  C   UNL     1      33.458 -24.110 -14.842  0.00  0.00    +0.046 C 
ATOM     16  C   UNL     1      34.371 -24.193 -13.748  0.00  0.00    +0.089 C 
ATOM     17  C   UNL     1      35.630 -23.693 -14.082  0.00  0.00    +0.048 C 
ATOM     18  C   UNL     1      36.660 -23.691 -13.130  0.00  0.00    +0.010 C 
ATOM     19  C   UNL     1      36.372 -24.201 -11.871  0.00  0.00    +0.021 C 
ATOM     20  C   UNL     1      35.096 -24.676 -11.627  0.00  0.00    +0.099 C 
ENDBRANCH   9  14
ENDBRANCH   7   9
ENDBRANCH   3   7
BRANCH   2  21
ATOM     21  C   UNL     1      35.917 -19.006 -21.715  0.00  0.00    +0.120 C 
BRANCH  21  24
ATOM     22  N   UNL     1      33.367 -14.034 -24.389  0.00  0.00    -0.230 NA
ATOM     23  N   UNL     1      34.240 -15.916 -25.502  0.00  0.00    -0.343 N 
ATOM     24  C   UNL     1      35.253 -17.659 -21.777  0.00  0.00    -0.002 C 
ATOM     25  C   UNL     1      34.931 -17.109 -23.011  0.00  0.00    +0.000 C 
ATOM     26  C   UNL     1      34.971 -16.980 -20.600  0.00  0.00    -0.003 C 
ATOM     27  C   UNL     1      34.312 -15.850 -23.077  0.00  0.00    +0.031 C 
ATOM     28  C   UNL     1      34.020 -15.149 -21.887  0.00  0.00    +0.004 C 
ATOM     29  C   UNL     1      34.357 -15.729 -20.653  0.00  0.00    -0.000 C 
ATOM     30  C   UNL     1      33.963 -15.243 -24.284  0.00  0.00    +0.125 C 
ATOM     31  C   UNL     1      33.403 -13.896 -21.974  0.00  0.00    +0.021 C 
ATOM     32  C   UNL     1      33.103 -13.393 -23.230  0.00  0.00    +0.100 C 
ATOM     33  H   UNL     1      34.000 -15.499 -26.361  0.00  0.00    +0.144 HD
ATOM     34  H   UNL     1      34.674 -16.800 -25.487  0.00  0.00    +0.144 HD
ENDBRANCH  21  24
ENDBRANCH   2  21
TORSDOF 5
ENDMDL
MODEL 3
REMARK VINA RESULT:     -12.0      2.220      3.357
REMARK  Name = 445480
REMARK  5 active torsions:
REMARK  status: ('A' for Active; 'I' for Inactive)
REMARK    1  A    between atoms: N_2  and  C_21
REMARK    2  A    between atoms: C_3  and  N_7
REMARK    3  A    between atoms: N_7  and  S_9
REMARK    4  A    between atoms: S_9  and  C_14
REMARK    5  A    between atoms: C_21  and  C_24
REMARK                            x       y       z     vdW  Elec       q    Type
REMARK                         _______ _______ _______ _____ _____    ______ ____
ROOT
ATOM      1  O   UNL     1      32.611 -20.707 -19.870  0.00  0.00    -0.273 OA
ATOM      2  N   UNL     1      34.006 -22.233 -18.748  0.00  0.00    -0.274 N 
ATOM      3  C   UNL     1      34.960 -20.952 -20.445  0.00  0.00    +0.153 C 
ATOM      4  C   UNL     1      36.059 -21.509 -19.548  0.00  0.00    +0.048 C 
ATOM      5  C   UNL     1      35.382 -22.663 -18.831  0.00  0.00    +0.096 C 
ATOM      6  C   UNL     1      33.695 -21.238 -19.674  0.00  0.00    +0.242 C 
ENDROOT
BRANCH   3   7
ATOM      7  N   UNL     1      35.106 -19.503 -20.621  0.00  0.00    -0.171 NA
ATOM      8  H   UNL     1      34.177 -19.091 -20.534  0.00  0.00    +0.149 HD
BRANCH   7   9
ATOM      9  S   UNL     1      35.781 -18.932 -22.090  0.00  0.00    +0.066 S 
ATOM     10  O   UNL     1      35.302 -19.753 -23.187  0.00  0.00    -0.152 OA
ATOM     11  O   UNL     1      37.196 -18.684 -21.897  0.00  0.00    -0.152 OA
BRANCH   9  14
ATOM     12  S   UNL     1      34.525 -16.540 -20.983  0.00  0.00    -0.066 S 
ATOM     13  N   UNL     1      34.083 -14.342 -24.163  0.00  0.00    -0.243 NA
ATOM     14  C   UNL     1      35.102 -17.299 -22.384  0.00  0.00    +0.153 C 
ATOM     15  C   UNL     1      34.965 -16.565 -23.511  0.00  0.00    +0.046 C 
ATOM     16  C   UNL     1      34.356 -15.304 -23.238  0.00  0.00    +0.089 C 
ATOM     17  C   UNL     1      34.058 -15.152 -21.884  0.00  0.00    +0.048 C 
ATOM     18  C   UNL     1      33.454 -13.972 -21.425  0.00  0.00    +0.010 C 
ATOM     19  C   UNL     1      33.173 -12.988 -22.364  0.00  0.00    +0.021 C 
ATOM     20  C   UNL     1      33.502 -13.223 -23.686  0.00  0.00    +0.099 C 
ENDBRANCH   9  14
ENDBRANCH   7   9
ENDBRANCH   3   7
BRANCH   2  21
ATOM     21  C   UNL     1      33.060 -22.886 -17.869  0.00  0.00    +0.120 C 
BRANCH  21  24
ATOM     22  N   UNL     1      37.718 -23.703 -13.866  0.00  0.00    -0.230 NA
ATOM     23  N   UNL     1      37.915 -22.987 -16.100  0.00  0.00    -0.343 N 
ATOM     24  C   UNL     1      33.712 -23.233 -16.559  0.00  0.00    -0.002 C 
ATOM     25  C   UNL     1      35.091 -23.144 -16.435  0.00  0.00    +0.000 C 
ATOM     26  C   UNL     1      32.925 -23.639 -15.491  0.00  0.00    -0.003 C 
ATOM     27  C   UNL     1      35.707 -23.468 -15.214  0.00  0.00    +0.031 C 
ATOM     28  C   UNL     1      34.919 -23.883 -14.120  0.00  0.00    +0.004 C 
ATOM     29  C   UNL     1      33.525 -23.964 -14.274  0.00  0.00    -0.000 C 
ATOM     30  C   UNL     1      37.088 -23.400 -15.024  0.00  0.00    +0.125 C 
ATOM     31  C   UNL     1      35.551 -24.202 -12.912  0.00  0.00    +0.021 C 
ATOM     32  C   UNL     1      36.931 -24.096 -12.841  0.00  0.00    +0.100 C 
ATOM     33  H   UNL     1      38.890 -22.935 -15.980  0.00  0.00    +0.144 HD
ATOM     34  H   UNL     1      37.512 -22.753 -16.968  0.00  0.00    +0.144 HD
ENDBRANCH  21  24
ENDBRANCH   2  21
TORSDOF 5
ENDMDL
MODEL 4
REMARK VINA RESULT:     -11.8      2.954     10.527
REMARK  Name = 445480
REMARK  5 active torsions:
REMARK  status: ('A' for Active; 'I' for Inactive)
REMARK    1  A    between atoms: N_2  and  C_21
REMARK    2  A    between atoms: C_3  and  N_7
REMARK    3  A    between atoms: N_7  and  S_9
REMARK    4  A    between atoms: S_9  and  C_14
REMARK    5  A    between atoms: C_21  and  C_24
REMARK                            x       y       z     vdW  Elec       q    Type
REMARK                         _______ _______ _______ _____ _____    ______ ____
ROOT
ATOM      1  O   UNL     1      36.756 -21.089 -19.574  0.00  0.00    -0.273 OA
ATOM      2  N   UNL     1      35.341 -19.896 -21.026  0.00  0.00    -0.274 N 
ATOM      3  C   UNL     1      34.385 -21.596 -19.750  0.00  0.00    +0.153 C 
ATOM      4  C   UNL     1      33.293 -20.657 -20.249  0.00  0.00    +0.048 C 
ATOM      5  C   UNL     1      33.949 -19.933 -21.409  0.00  0.00    +0.096 C 
ATOM      6  C   UNL     1      35.661 -20.853 -20.062  0.00  0.00    +0.242 C 
ENDROOT
BRANCH   3   7
ATOM      7  N   UNL     1      34.284 -21.801 -18.300  0.00  0.00    -0.171 NA
ATOM      8  H   UNL     1      35.233 -21.911 -17.942  0.00  0.00    +0.149 HD
BRANCH   7   9
ATOM      9  S   UNL     1      33.369 -23.137 -17.736  0.00  0.00    +0.066 S 
ATOM     10  O   UNL     1      33.677 -24.302 -18.544  0.00  0.00    -0.152 OA
ATOM     11  O   UNL     1      32.000 -22.715 -17.515  0.00  0.00    -0.152 OA
BRANCH   9  14
ATOM     12  S   UNL     1      35.586 -23.113 -15.837  0.00  0.00    -0.066 S 
ATOM     13  N   UNL     1      33.945 -24.712 -12.694  0.00  0.00    -0.243 NA
ATOM     14  C   UNL     1      33.963 -23.526 -16.090  0.00  0.00    +0.153 C 
ATOM     15  C   UNL     1      33.357 -24.085 -15.019  0.00  0.00    +0.046 C 
ATOM     16  C   UNL     1      34.254 -24.193 -13.914  0.00  0.00    +0.089 C 
ATOM     17  C   UNL     1      35.521 -23.695 -14.221  0.00  0.00    +0.048 C 
ATOM     18  C   UNL     1      36.537 -23.717 -13.255  0.00  0.00    +0.010 C 
ATOM     19  C   UNL     1      36.229 -24.246 -12.009  0.00  0.00    +0.021 C 
ATOM     20  C   UNL     1      34.947 -24.717 -11.791  0.00  0.00    +0.099 C 
ENDBRANCH   9  14
ENDBRANCH   7   9
ENDBRANCH   3   7
BRANCH   2  21
ATOM     21  C   UNL     1      36.287 -19.027 -21.692  0.00  0.00    +0.120 C 
BRANCH  21  24
ATOM     22  N   UNL     1      33.490 -13.575 -22.601  0.00  0.00    -0.230 NA
ATOM     23  N   UNL     1      34.432 -14.334 -20.581  0.00  0.00    -0.343 N 
ATOM     24  C   UNL     1      35.567 -17.955 -22.461  0.00  0.00    -0.002 C 
ATOM     25  C   UNL     1      35.206 -16.777 -21.821  0.00  0.00    +0.000 C 
ATOM     26  C   UNL     1      35.270 -18.158 -23.801  0.00  0.00    -0.003 C 
ATOM     27  C   UNL     1      34.531 -15.772 -22.533  0.00  0.00    +0.031 C 
ATOM     28  C   UNL     1      34.223 -15.964 -23.897  0.00  0.00    +0.004 C 
ATOM     29  C   UNL     1      34.600 -17.166 -24.519  0.00  0.00    -0.000 C 
ATOM     30  C   UNL     1      34.140 -14.566 -21.950  0.00  0.00    +0.125 C 
ATOM     31  C   UNL     1      33.551 -14.951 -24.589  0.00  0.00    +0.021 C 
ATOM     32  C   UNL     1      33.213 -13.794 -23.904  0.00  0.00    +0.100 C 
ATOM     33  H   UNL     1      34.162 -13.488 -20.156  0.00  0.00    +0.144 HD
ATOM     34  H   UNL     1      34.904 -15.020 -20.055  0.00  0.00    +0.144 HD
ENDBRANCH  21  24
ENDBRANCH   2  21
TORSDOF 5
ENDMDL
MODEL 5
REMARK VINA RESULT:     -11.7      2.044      2.795
REMARK  Name = 445480
REMARK  5 active torsions:
REMARK  status: ('A' for Active; 'I' for Inactive)
REMARK    1  A    between atoms: N_2  and  C_21
REMARK    2  A    between atoms: C_3  and  N_7
REMARK    3  A    between atoms: N_7  and  S_9
REMARK    4  A    between atoms: S_9  and  C_14
REMARK    5  A    between atoms: C_21  and  C_24
REMARK                            x       y       z     vdW  Elec       q    Type
REMARK                         _______ _______ _______ _____ _____    ______ ____
ROOT
ATOM      1  O   UNL     1      32.687 -21.004 -19.765  0.00  0.00    -0.273 OA
ATOM      2  N   UNL     1      34.327 -22.306 -18.695  0.00  0.00    -0.274 N 
ATOM      3  C   UNL     1      35.012 -20.964 -20.473  0.00  0.00    +0.153 C 
ATOM      4  C   UNL     1      36.221 -21.350 -19.631  0.00  0.00    +0.048 C 
ATOM      5  C   UNL     1      35.740 -22.559 -18.851  0.00  0.00    +0.096 C 
ATOM      6  C   UNL     1      33.839 -21.386 -19.623  0.00  0.00    +0.242 C 
ENDROOT
BRANCH   3   7
ATOM      7  N   UNL     1      34.960 -19.513 -20.689  0.00  0.00    -0.171 NA
ATOM      8  H   UNL     1      33.975 -19.248 -20.735  0.00  0.00    +0.149 HD
BRANCH   7   9
ATOM      9  S   UNL     1      35.725 -18.877 -22.085  0.00  0.00    +0.066 S 
ATOM     10  O   UNL     1      35.321 -19.649 -23.245  0.00  0.00    -0.152 OA
ATOM     11  O   UNL     1      37.124 -18.635 -21.791  0.00  0.00    -0.152 OA
BRANCH   9  14
ATOM     12  S   UNL     1      34.482 -16.498 -20.937  0.00  0.00    -0.066 S 
ATOM     13  N   UNL     1      34.067 -14.236 -24.074  0.00  0.00    -0.243 NA
ATOM     14  C   UNL     1      35.058 -17.234 -22.349  0.00  0.00    +0.153 C 
ATOM     15  C   UNL     1      34.931 -16.477 -23.463  0.00  0.00    +0.046 C 
ATOM     16  C   UNL     1      34.330 -15.217 -23.168  0.00  0.00    +0.089 C 
ATOM     17  C   UNL     1      34.027 -15.090 -21.811  0.00  0.00    +0.048 C 
ATOM     18  C   UNL     1      33.430 -13.914 -21.333  0.00  0.00    +0.010 C 
ATOM     19  C   UNL     1      33.160 -12.910 -22.253  0.00  0.00    +0.021 C 
ATOM     20  C   UNL     1      33.493 -13.122 -23.578  0.00  0.00    +0.099 C 
ENDBRANCH   9  14
ENDBRANCH   7   9
ENDBRANCH   3   7
BRANCH   2  21
ATOM     21  C   UNL     1      33.524 -23.049 -17.748  0.00  0.00    +0.120 C 
BRANCH  21  24
ATOM     22  N   UNL     1      34.448 -24.973 -11.932  0.00  0.00    -0.230 NA
ATOM     23  N   UNL     1      32.517 -25.342 -13.228  0.00  0.00    -0.343 N 
ATOM     24  C   UNL     1      34.269 -23.230 -16.454  0.00  0.00    -0.002 C 
ATOM     25  C   UNL     1      33.672 -23.926 -15.412  0.00  0.00    +0.000 C 
ATOM     26  C   UNL     1      35.542 -22.697 -16.318  0.00  0.00    -0.003 C 
ATOM     27  C   UNL     1      34.361 -24.098 -14.200  0.00  0.00    +0.031 C 
ATOM     28  C   UNL     1      35.657 -23.561 -14.047  0.00  0.00    +0.004 C 
ATOM     29  C   UNL     1      36.236 -22.860 -15.118  0.00  0.00    -0.000 C 
ATOM     30  C   UNL     1      33.818 -24.787 -13.114  0.00  0.00    +0.125 C 
ATOM     31  C   UNL     1      36.327 -23.743 -12.832  0.00  0.00    +0.021 C 
ATOM     32  C   UNL     1      35.686 -24.446 -11.823  0.00  0.00    +0.100 C 
ATOM     33  H   UNL     1      32.122 -25.830 -12.470  0.00  0.00    +0.144 HD
ATOM     34  H   UNL     1      32.010 -25.238 -14.065  0.00  0.00    +0.144 HD
ENDBRANCH  21  24
ENDBRANCH   2  21
TORSDOF 5
ENDMDL
MODEL 6
REMARK VINA RESULT:     -11.7      3.064      4.046
REMARK  Name = 445480
REMARK  5 active torsions:
REMARK  status: ('A' for Active; 'I' for Inactive)
REMARK    1  A    between atoms: N_2  and  C_21
REMARK    2  A    between atoms: C_3  and  N_7
REMARK    3  A    between atoms: N_7  and  S_9
REMARK    4  A    between atoms: S_9  and  C_14
REMARK    5  A    between atoms: C_21  and  C_24
REMARK                            x       y       z     vdW  Elec       q    Type
REMARK                         _______ _______ _______ _____ _____    ______ ____
ROOT
ATOM      1  O   UNL     1      33.001 -21.768 -19.234  0.00  0.00    -0.273 OA
ATOM      2  N   UNL     1      34.813 -22.504 -17.927  0.00  0.00    -0.274 N 
ATOM      3  C   UNL     1      35.302 -21.292 -19.856  0.00  0.00    +0.153 C 
ATOM      4  C   UNL     1      36.508 -21.275 -18.924  0.00  0.00    +0.048 C 
ATOM      5  C   UNL     1      36.254 -22.446 -17.993  0.00  0.00    +0.096 C 
ATOM      6  C   UNL     1      34.197 -21.854 -18.996  0.00  0.00    +0.242 C 
ENDROOT
BRANCH   3   7
ATOM      7  N   UNL     1      34.945 -19.935 -20.284  0.00  0.00    -0.171 NA
ATOM      8  H   UNL     1      33.940 -19.925 -20.457  0.00  0.00    +0.149 HD
BRANCH   7   9
ATOM      9  S   UNL     1      35.709 -19.302 -21.682  0.00  0.00    +0.066 S 
ATOM     10  O   UNL     1      35.257 -20.039 -22.848  0.00  0.00    -0.152 OA
ATOM     11  O   UNL     1      37.120 -19.115 -21.409  0.00  0.00    -0.152 OA
BRANCH   9  14
ATOM     12  S   UNL     1      35.003 -17.154 -23.529  0.00  0.00    -0.066 S 
ATOM     13  N   UNL     1      33.835 -14.365 -21.082  0.00  0.00    -0.243 NA
ATOM     14  C   UNL     1      35.097 -17.632 -21.907  0.00  0.00    +0.153 C 
ATOM     15  C   UNL     1      34.699 -16.688 -21.025  0.00  0.00    +0.046 C 
ATOM     16  C   UNL     1      34.288 -15.495 -21.692  0.00  0.00    +0.089 C 
ATOM     17  C   UNL     1      34.403 -15.608 -23.078  0.00  0.00    +0.048 C 
ATOM     18  C   UNL     1      34.043 -14.532 -23.902  0.00  0.00    +0.010 C 
ATOM     19  C   UNL     1      33.581 -13.377 -23.286  0.00  0.00    +0.021 C 
ATOM     20  C   UNL     1      33.499 -13.351 -21.905  0.00  0.00    +0.099 C 
ENDBRANCH   9  14
ENDBRANCH   7   9
ENDBRANCH   3   7
BRANCH   2  21
ATOM     21  C   UNL     1      34.132 -23.277 -16.910  0.00  0.00    +0.120 C 
BRANCH  21  24
ATOM     22  N   UNL     1      37.768 -27.102 -13.666  0.00  0.00    -0.230 NA
ATOM     23  N   UNL     1      36.481 -27.675 -15.553  0.00  0.00    -0.343 N 
ATOM     24  C   UNL     1      35.091 -23.683 -15.827  0.00  0.00    -0.002 C 
ATOM     25  C   UNL     1      35.532 -24.998 -15.759  0.00  0.00    +0.000 C 
ATOM     26  C   UNL     1      35.523 -22.739 -14.906  0.00  0.00    -0.003 C 
ATOM     27  C   UNL     1      36.426 -25.386 -14.748  0.00  0.00    +0.031 C 
ATOM     28  C   UNL     1      36.874 -24.436 -13.805  0.00  0.00    +0.004 C 
ATOM     29  C   UNL     1      36.411 -23.112 -13.897  0.00  0.00    -0.000 C 
ATOM     30  C   UNL     1      36.907 -26.690 -14.624  0.00  0.00    +0.125 C 
ATOM     31  C   UNL     1      37.765 -24.842 -12.805  0.00  0.00    +0.021 C 
ATOM     32  C   UNL     1      38.174 -26.166 -12.782  0.00  0.00    +0.100 C 
ATOM     33  H   UNL     1      36.811 -28.599 -15.477  0.00  0.00    +0.144 HD
ATOM     34  H   UNL     1      35.854 -27.433 -16.273  0.00  0.00    +0.144 HD
ENDBRANCH  21  24
ENDBRANCH   2  21
TORSDOF 5
ENDMDL
MODEL 7
REMARK VINA RESULT:     -11.6      4.837      7.558
REMARK  Name = 445480
REMARK  5 active torsions:
REMARK  status: ('A' for Active; 'I' for Inactive)
REMARK    1  A    between atoms: N_2  and  C_21
REMARK    2  A    between atoms: C_3  and  N_7
REMARK    3  A    between atoms: N_7  and  S_9
REMARK    4  A    between atoms: S_9  and  C_14
REMARK    5  A    between atoms: C_21  and  C_24
REMARK                            x       y       z     vdW  Elec       q    Type
REMARK                         _______ _______ _______ _____ _____    ______ ____
ROOT
ATOM      1  O   UNL     1      34.127 -14.138 -23.622  0.00  0.00    -0.273 OA
ATOM      2  N   UNL     1      34.353 -15.857 -22.034  0.00  0.00    -0.274 N 
ATOM      3  C   UNL     1      33.473 -13.827 -21.302  0.00  0.00    +0.153 C 
ATOM      4  C   UNL     1      33.118 -14.925 -20.306  0.00  0.00    +0.048 C 
ATOM      5  C   UNL     1      34.115 -16.025 -20.619  0.00  0.00    +0.096 C 
ATOM      6  C   UNL     1      34.005 -14.587 -22.492  0.00  0.00    +0.242 C 
ENDROOT
BRANCH   3   7
ATOM      7  N   UNL     1      32.281 -13.070 -21.700  0.00  0.00    -0.171 NA
ATOM      8  H   UNL     1      32.528 -12.529 -22.530  0.00  0.00    +0.149 HD
BRANCH   7   9
ATOM      9  S   UNL     1      31.601 -11.979 -20.566  0.00  0.00    +0.066 S 
ATOM     10  O   UNL     1      32.378 -12.017 -19.341  0.00  0.00    -0.152 OA
ATOM     11  O   UNL     1      30.161 -12.148 -20.549  0.00  0.00    -0.152 OA
BRANCH   9  14
ATOM     12  S   UNL     1      32.004  -9.138 -20.028  0.00  0.00    -0.066 S 
ATOM     13  N   UNL     1      32.174  -7.674 -23.629  0.00  0.00    -0.243 NA
ATOM     14  C   UNL     1      31.826 -10.326 -21.222  0.00  0.00    +0.153 C 
ATOM     15  C   UNL     1      31.880  -9.855 -22.489  0.00  0.00    +0.046 C 
ATOM     16  C   UNL     1      32.077  -8.442 -22.509  0.00  0.00    +0.089 C 
ATOM     17  C   UNL     1      32.163  -7.910 -21.221  0.00  0.00    +0.048 C 
ATOM     18  C   UNL     1      32.358  -6.533 -21.042  0.00  0.00    +0.010 C 
ATOM     19  C   UNL     1      32.457  -5.745 -22.181  0.00  0.00    +0.021 C 
ATOM     20  C   UNL     1      32.360  -6.355 -23.418  0.00  0.00    +0.099 C 
ENDBRANCH   9  14
ENDBRANCH   7   9
ENDBRANCH   3   7
BRANCH   2  21
ATOM     21  C   UNL     1      35.003 -16.884 -22.819  0.00  0.00    +0.120 C 
BRANCH  21  24
ATOM     22  N   UNL     1      34.115 -21.916 -19.317  0.00  0.00    -0.230 NA
ATOM     23  N   UNL     1      32.440 -20.658 -20.392  0.00  0.00    -0.343 N 
ATOM     24  C   UNL     1      35.390 -18.047 -21.949  0.00  0.00    -0.002 C 
ATOM     25  C   UNL     1      34.404 -18.888 -21.452  0.00  0.00    +0.000 C 
ATOM     26  C   UNL     1      36.727 -18.265 -21.653  0.00  0.00    -0.003 C 
ATOM     27  C   UNL     1      34.757 -19.977 -20.637  0.00  0.00    +0.031 C 
ATOM     28  C   UNL     1      36.114 -20.210 -20.328  0.00  0.00    +0.004 C 
ATOM     29  C   UNL     1      37.091 -19.342 -20.845  0.00  0.00    -0.000 C 
ATOM     30  C   UNL     1      33.815 -20.859 -20.105  0.00  0.00    +0.125 C 
ATOM     31  C   UNL     1      36.446 -21.299 -19.514  0.00  0.00    +0.021 C 
ATOM     32  C   UNL     1      35.423 -22.108 -19.044  0.00  0.00    +0.100 C 
ATOM     33  H   UNL     1      31.765 -21.272 -20.024  0.00  0.00    +0.144 HD
ATOM     34  H   UNL     1      32.162 -19.903 -20.961  0.00  0.00    +0.144 HD
ENDBRANCH  21  24
ENDBRANCH   2  21
TORSDOF 5
ENDMDL
MODEL 8
REMARK VINA RESULT:     -11.5      3.342     10.070
REMARK  Name = 445480
REMARK  5 active torsions:
REMARK  status: ('A' for Active; 'I' for Inactive)
REMARK    1  A    between atoms: N_2  and  C_21
REMARK    2  A    between atoms: C_3  and  N_7
REMARK    3  A    between atoms: N_7  and  S_9
REMARK    4  A    between atoms: S_9  and  C_14
REMARK    5  A    between atoms: C_21  and  C_24
REMARK                            x       y       z     vdW  Elec       q    Type
REMARK                         _______ _______ _______ _____ _____    ______ ____
ROOT
ATOM      1  O   UNL     1      33.884 -20.197 -21.504  0.00  0.00    -0.273 OA
ATOM      2  N   UNL     1      35.964 -19.101 -21.558  0.00  0.00    -0.274 N 
ATOM      3  C   UNL     1      35.633 -20.697 -19.892  0.00  0.00    +0.153 C 
ATOM      4  C   UNL     1      37.126 -20.446 -20.069  0.00  0.00    +0.048 C 
ATOM      5  C   UNL     1      37.180 -19.107 -20.779  0.00  0.00    +0.096 C 
ATOM      6  C   UNL     1      35.015 -20.005 -21.082  0.00  0.00    +0.242 C 
ENDROOT
BRANCH   3   7
ATOM      7  N   UNL     1      35.328 -22.131 -19.949  0.00  0.00    -0.171 NA
ATOM      8  H   UNL     1      35.049 -22.344 -20.907  0.00  0.00    +0.149 HD
BRANCH   7   9
ATOM      9  S   UNL     1      34.101 -22.736 -18.916  0.00  0.00    +0.066 S 
ATOM     10  O   UNL     1      33.704 -24.057 -19.367  0.00  0.00    -0.152 OA
ATOM     11  O   UNL     1      33.120 -21.694 -18.682  0.00  0.00    -0.152 OA
BRANCH   9  14
ATOM     12  S   UNL     1      33.793 -23.678 -16.170  0.00  0.00    -0.066 S 
ATOM     13  N   UNL     1      37.324 -22.971 -14.697  0.00  0.00    -0.243 NA
ATOM     14  C   UNL     1      34.844 -22.986 -17.304  0.00  0.00    +0.153 C 
ATOM     15  C   UNL     1      36.083 -22.726 -16.829  0.00  0.00    +0.046 C 
ATOM     16  C   UNL     1      36.203 -23.106 -15.458  0.00  0.00    +0.089 C 
ATOM     17  C   UNL     1      35.016 -23.646 -14.962  0.00  0.00    +0.048 C 
ATOM     18  C   UNL     1      34.945 -24.079 -13.630  0.00  0.00    +0.010 C 
ATOM     19  C   UNL     1      36.085 -23.944 -12.848  0.00  0.00    +0.021 C 
ATOM     20  C   UNL     1      37.218 -23.396 -13.422  0.00  0.00    +0.099 C 
ENDBRANCH   9  14
ENDBRANCH   7   9
ENDBRANCH   3   7
BRANCH   2  21
ATOM     21  C   UNL     1      35.754 -18.149 -22.627  0.00  0.00    +0.120 C 
BRANCH  21  24
ATOM     22  N   UNL     1      32.605 -12.830 -23.040  0.00  0.00    -0.230 NA
ATOM     23  N   UNL     1      33.540 -14.034 -24.834  0.00  0.00    -0.343 N 
ATOM     24  C   UNL     1      34.979 -16.961 -22.131  0.00  0.00    -0.002 C 
ATOM     25  C   UNL     1      34.518 -16.015 -23.038  0.00  0.00    +0.000 C 
ATOM     26  C   UNL     1      34.735 -16.822 -20.773  0.00  0.00    -0.003 C 
ATOM     27  C   UNL     1      33.795 -14.901 -22.581  0.00  0.00    +0.031 C 
ATOM     28  C   UNL     1      33.540 -14.748 -21.202  0.00  0.00    +0.004 C 
ATOM     29  C   UNL     1      34.018 -15.719 -20.307  0.00  0.00    -0.000 C 
ATOM     30  C   UNL     1      33.304 -13.916 -23.440  0.00  0.00    +0.125 C 
ATOM     31  C   UNL     1      32.818 -13.631 -20.767  0.00  0.00    +0.021 C 
ATOM     32  C   UNL     1      32.380 -12.717 -21.713  0.00  0.00    +0.100 C 
ATOM     33  H   UNL     1      33.201 -13.346 -25.451  0.00  0.00    +0.144 HD
ATOM     34  H   UNL     1      34.044 -14.804 -25.184  0.00  0.00    +0.144 HD
ENDBRANCH  21  24
ENDBRANCH   2  21
TORSDOF 5
ENDMDL
MODEL 9
REMARK VINA RESULT:     -11.4      3.555      6.026
REMARK  Name = 445480
REMARK  5 active torsions:
REMARK  status: ('A' for Active; 'I' for Inactive)
REMARK    1  A    between atoms: N_2  and  C_21
REMARK    2  A    between atoms: C_3  and  N_7
REMARK    3  A    between atoms: N_7  and  S_9
REMARK    4  A    between atoms: S_9  and  C_14
REMARK    5  A    between atoms: C_21  and  C_24
REMARK                            x       y       z     vdW  Elec       q    Type
REMARK                         _______ _______ _______ _____ _____    ______ ____
ROOT
ATOM      1  O   UNL     1      35.362 -16.454 -21.048  0.00  0.00    -0.273 OA
ATOM      2  N   UNL     1      35.569 -18.119 -22.696  0.00  0.00    -0.274 N 
ATOM      3  C   UNL     1      34.344 -16.214 -23.242  0.00  0.00    +0.153 C 
ATOM      4  C   UNL     1      34.763 -16.934 -24.518  0.00  0.00    +0.048 C 
ATOM      5  C   UNL     1      35.096 -18.335 -24.043  0.00  0.00    +0.096 C 
ATOM      6  C   UNL     1      35.154 -16.897 -22.168  0.00  0.00    +0.242 C 
ENDROOT
BRANCH   3   7
ATOM      7  N   UNL     1      34.705 -14.792 -23.295  0.00  0.00    -0.171 NA
ATOM      8  H   UNL     1      34.897 -14.492 -22.338  0.00  0.00    +0.149 HD
BRANCH   7   9
ATOM      9  S   UNL     1      33.566 -13.694 -23.955  0.00  0.00    +0.066 S 
ATOM     10  O   UNL     1      32.432 -14.436 -24.473  0.00  0.00    -0.152 OA
ATOM     11  O   UNL     1      34.264 -12.719 -24.770  0.00  0.00    -0.152 OA
BRANCH   9  14
ATOM     12  S   UNL     1      32.455 -13.651 -21.256  0.00  0.00    -0.066 S 
ATOM     13  N   UNL     1      31.885  -9.842 -20.702  0.00  0.00    -0.243 NA
ATOM     14  C   UNL     1      32.920 -12.722 -22.594  0.00  0.00    +0.153 C 
ATOM     15  C   UNL     1      32.737 -11.392 -22.439  0.00  0.00    +0.046 C 
ATOM     16  C   UNL     1      32.184 -11.090 -21.159  0.00  0.00    +0.089 C 
ATOM     17  C   UNL     1      31.975 -12.241 -20.397  0.00  0.00    +0.048 C 
ATOM     18  C   UNL     1      31.437 -12.140 -19.106  0.00  0.00    +0.010 C 
ATOM     19  C   UNL     1      31.129 -10.871 -18.635  0.00  0.00    +0.021 C 
ATOM     20  C   UNL     1      31.369  -9.785 -19.457  0.00  0.00    +0.099 C 
ENDBRANCH   9  14
ENDBRANCH   7   9
ENDBRANCH   3   7
BRANCH   2  21
ATOM     21  C   UNL     1      36.285 -19.147 -21.971  0.00  0.00    +0.120 C 
BRANCH  21  24
ATOM     22  N   UNL     1      34.620 -23.036 -17.446  0.00  0.00    -0.230 NA
ATOM     23  N   UNL     1      36.822 -22.428 -18.015  0.00  0.00    -0.343 N 
ATOM     24  C   UNL     1      35.343 -19.930 -21.100  0.00  0.00    -0.002 C 
ATOM     25  C   UNL     1      35.854 -20.742 -20.096  0.00  0.00    +0.000 C 
ATOM     26  C   UNL     1      33.976 -19.834 -21.312  0.00  0.00    -0.003 C 
ATOM     27  C   UNL     1      34.980 -21.479 -19.278  0.00  0.00    +0.031 C 
ATOM     28  C   UNL     1      33.587 -21.390 -19.483  0.00  0.00    +0.004 C 
ATOM     29  C   UNL     1      33.098 -20.562 -20.507  0.00  0.00    -0.000 C 
ATOM     30  C   UNL     1      35.428 -22.312 -18.253  0.00  0.00    +0.125 C 
ATOM     31  C   UNL     1      32.733 -22.132 -18.659  0.00  0.00    +0.021 C 
ATOM     32  C   UNL     1      33.294 -22.927 -17.671  0.00  0.00    +0.100 C 
ATOM     33  H   UNL     1      37.153 -23.013 -17.296  0.00  0.00    +0.144 HD
ATOM     34  H   UNL     1      37.459 -21.924 -18.572  0.00  0.00    +0.144 HD
ENDBRANCH  21  24
ENDBRANCH   2  21
TORSDOF 5
ENDMDL
