MODEL 1
REMARK VINA RESULT:     -11.8      0.000      0.000
REMARK  Name = 4369498
REMARK  8 active torsions:
REMARK  status: ('A' for Active; 'I' for Inactive)
REMARK    1  A    between atoms: N_2  and  C_11
REMARK    2  A    between atoms: C_5  and  C_25
REMARK    3  A    between atoms: C_8  and  S_14
REMARK    4  A    between atoms: C_13  and  O_23
REMARK    5  A    between atoms: S_14  and  N_17
REMARK    6  A    between atoms: N_17  and  C_19
REMARK    7  A    between atoms: C_19  and  C_20
REMARK    8  A    between atoms: C_26  and  C_32
REMARK                            x       y       z     vdW  Elec       q    Type
REMARK                         _______ _______ _______ _____ _____    ______ ____
ROOT
ATOM      1  O   UNL     1      33.394 -11.373 -22.780  0.00  0.00    -0.424 OA
ATOM      2  N   UNL     1      34.012 -13.459 -23.518  0.00  0.00    -0.265 N 
ATOM      3  N   UNL     1      32.162 -13.110 -22.020  0.00  0.00    -0.193 NA
ATOM      4  C   UNL     1      33.169 -12.715 -22.765  0.00  0.00    +0.293 C 
ATOM      5  C   UNL     1      32.427 -10.878 -21.958  0.00  0.00    +0.168 C 
ATOM      6  C   UNL     1      31.682 -11.936 -21.499  0.00  0.00    +0.141 C 
ATOM      7  H   UNL     1      34.700 -12.945 -23.999  0.00  0.00    +0.157 HD
ENDROOT
BRANCH   2  11
ATOM      8  C   UNL     1      34.719 -17.060 -22.957  0.00  0.00    +0.123 C 
ATOM      9  C   UNL     1      34.662 -15.679 -22.765  0.00  0.00    +0.038 C 
ATOM     10  C   UNL     1      34.175 -17.627 -24.109  0.00  0.00    +0.023 C 
ATOM     11  C   UNL     1      34.061 -14.866 -23.726  0.00  0.00    +0.087 C 
ATOM     12  C   UNL     1      33.574 -16.814 -25.070  0.00  0.00    +0.040 C 
ATOM     13  C   UNL     1      33.517 -15.433 -24.878  0.00  0.00    +0.152 C 
BRANCH   8  14
ATOM     14  S   UNL     1      35.475 -18.078 -21.756  0.00  0.00    +0.060 S 
ATOM     15  O   UNL     1      36.774 -18.510 -22.257  0.00  0.00    -0.153 OA
ATOM     16  O   UNL     1      35.397 -17.388 -20.475  0.00  0.00    -0.153 OA
BRANCH  14  17
ATOM     17  N   UNL     1      34.430 -19.431 -21.711  0.00  0.00    -0.179 NA
ATOM     18  H   UNL     1      34.818 -20.125 -22.349  0.00  0.00    +0.149 HD
BRANCH  17  19
ATOM     19  C   UNL     1      34.180 -20.119 -20.436  0.00  0.00    +0.091 C 
BRANCH  19  20
ATOM     20  C   UNL     1      35.180 -21.204 -20.215  0.00  0.00    +0.017 C 
ATOM     21  C   UNL     1      36.312 -20.973 -19.256  0.00  0.00    +0.001 C 
ATOM     22  C   UNL     1      35.206 -21.920 -18.897  0.00  0.00    +0.001 C 
ENDBRANCH  19  20
ENDBRANCH  17  19
ENDBRANCH  14  17
ENDBRANCH   8  14
BRANCH  13  23
ATOM     23  O   UNL     1      32.926 -14.656 -25.830  0.00  0.00    -0.470 OA
ATOM     24  C   UNL     1      33.789 -13.877 -26.656  0.00  0.00    +0.253 C 
ENDBRANCH  13  23
ENDBRANCH   2  11
BRANCH   5  25
ATOM     25  C   UNL     1      32.413  -9.448 -21.774  0.00  0.00    +0.036 C 
ATOM     26  C   UNL     1      32.866  -7.225 -22.604  0.00  0.00    +0.002 C 
ATOM     27  C   UNL     1      32.880  -8.607 -22.783  0.00  0.00    +0.003 C 
ATOM     28  C   UNL     1      31.929  -8.904 -20.583  0.00  0.00    +0.003 C 
ATOM     29  C   UNL     1      32.383  -6.682 -21.413  0.00  0.00    +0.000 C 
ATOM     30  C   UNL     1      31.914  -7.521 -20.403  0.00  0.00    +0.000 C 
BRANCH  26  32
ATOM     31  N   UNL     1      32.942  -4.506 -25.157  0.00  0.00    -0.242 NA
ATOM     32  C   UNL     1      33.352  -6.354 -23.651  0.00  0.00    +0.019 C 
ATOM     33  C   UNL     1      34.638  -6.492 -24.161  0.00  0.00    +0.003 C 
ATOM     34  C   UNL     1      32.550  -5.353 -24.179  0.00  0.00    +0.099 C 
ATOM     35  C   UNL     1      35.076  -5.640 -25.168  0.00  0.00    +0.021 C 
ATOM     36  C   UNL     1      34.198  -4.672 -25.627  0.00  0.00    +0.099 C 
ENDBRANCH  26  32
ENDBRANCH   5  25
TORSDOF 8
ENDMDL
MODEL 2
REMARK VINA RESULT:     -11.5      7.363     11.687
REMARK  Name = 4369498
REMARK  8 active torsions:
REMARK  status: ('A' for Active; 'I' for Inactive)
REMARK    1  A    between atoms: N_2  and  C_11
REMARK    2  A    between atoms: C_5  and  C_25
REMARK    3  A    between atoms: C_8  and  S_14
REMARK    4  A    between atoms: C_13  and  O_23
REMARK    5  A    between atoms: S_14  and  N_17
REMARK    6  A    between atoms: N_17  and  C_19
REMARK    7  A    between atoms: C_19  and  C_20
REMARK    8  A    between atoms: C_26  and  C_32
REMARK                            x       y       z     vdW  Elec       q    Type
REMARK                         _______ _______ _______ _____ _____    ______ ____
ROOT
ATOM      1  O   UNL     1      36.003 -21.153 -18.344  0.00  0.00    -0.424 OA
ATOM      2  N   UNL     1      35.824 -22.387 -16.415  0.00  0.00    -0.265 N 
ATOM      3  N   UNL     1      34.202 -22.512 -18.188  0.00  0.00    -0.193 NA
ATOM      4  C   UNL     1      35.299 -22.065 -17.619  0.00  0.00    +0.293 C 
ATOM      5  C   UNL     1      35.269 -21.016 -19.484  0.00  0.00    +0.168 C 
ATOM      6  C   UNL     1      34.177 -21.843 -19.384  0.00  0.00    +0.141 C 
ATOM      7  H   UNL     1      36.663 -21.923 -16.192  0.00  0.00    +0.157 HD
ENDROOT
BRANCH   2  11
ATOM      8  C   UNL     1      33.533 -24.148 -14.083  0.00  0.00    +0.123 C 
ATOM      9  C   UNL     1      34.006 -23.272 -15.061  0.00  0.00    +0.038 C 
ATOM     10  C   UNL     1      34.409 -25.041 -13.465  0.00  0.00    +0.023 C 
ATOM     11  C   UNL     1      35.354 -23.289 -15.418  0.00  0.00    +0.087 C 
ATOM     12  C   UNL     1      35.757 -25.057 -13.823  0.00  0.00    +0.040 C 
ATOM     13  C   UNL     1      36.230 -24.181 -14.800  0.00  0.00    +0.152 C 
BRANCH   8  14
ATOM     14  S   UNL     1      31.846 -24.126 -13.632  0.00  0.00    +0.060 S 
ATOM     15  O   UNL     1      31.321 -25.483 -13.715  0.00  0.00    -0.153 OA
ATOM     16  O   UNL     1      31.731 -23.391 -12.380  0.00  0.00    -0.153 OA
BRANCH  14  17
ATOM     17  N   UNL     1      31.144 -23.191 -14.879  0.00  0.00    -0.179 NA
ATOM     18  H   UNL     1      31.900 -22.924 -15.509  0.00  0.00    +0.149 HD
BRANCH  17  19
ATOM     19  C   UNL     1      30.078 -23.765 -15.713  0.00  0.00    +0.091 C 
BRANCH  19  20
ATOM     20  C   UNL     1      29.078 -22.722 -16.085  0.00  0.00    +0.017 C 
ATOM     21  C   UNL     1      27.847 -23.125 -16.844  0.00  0.00    +0.001 C 
ATOM     22  C   UNL     1      27.740 -22.714 -15.405  0.00  0.00    +0.001 C 
ENDBRANCH  19  20
ENDBRANCH  17  19
ENDBRANCH  14  17
ENDBRANCH   8  14
BRANCH  13  23
ATOM     23  O   UNL     1      37.550 -24.212 -15.134  0.00  0.00    -0.470 OA
ATOM     24  C   UNL     1      38.433 -24.869 -14.226  0.00  0.00    +0.253 C 
ENDBRANCH  13  23
ENDBRANCH   2  11
BRANCH   5  25
ATOM     25  C   UNL     1      35.777 -20.092 -20.467  0.00  0.00    +0.036 C 
ATOM     26  C   UNL     1      35.422 -18.684 -22.398  0.00  0.00    +0.002 C 
ATOM     27  C   UNL     1      34.930 -19.578 -21.448  0.00  0.00    +0.003 C 
ATOM     28  C   UNL     1      37.119 -19.710 -20.436  0.00  0.00    +0.003 C 
ATOM     29  C   UNL     1      36.764 -18.304 -22.367  0.00  0.00    +0.000 C 
ATOM     30  C   UNL     1      37.613 -18.816 -21.386  0.00  0.00    +0.000 C 
BRANCH  26  32
ATOM     31  N   UNL     1      32.810 -18.541 -25.057  0.00  0.00    -0.242 NA
ATOM     32  C   UNL     1      34.543 -18.152 -23.416  0.00  0.00    +0.019 C 
ATOM     33  C   UNL     1      34.559 -16.801 -23.744  0.00  0.00    +0.003 C 
ATOM     34  C   UNL     1      33.657 -18.973 -24.097  0.00  0.00    +0.099 C 
ATOM     35  C   UNL     1      33.703 -16.320 -24.727  0.00  0.00    +0.021 C 
ATOM     36  C   UNL     1      32.855 -17.223 -25.348  0.00  0.00    +0.099 C 
ENDBRANCH  26  32
ENDBRANCH   5  25
TORSDOF 8
ENDMDL
MODEL 3
REMARK VINA RESULT:     -11.3      5.025      9.939
REMARK  Name = 4369498
REMARK  8 active torsions:
REMARK  status: ('A' for Active; 'I' for Inactive)
REMARK    1  A    between atoms: N_2  and  C_11
REMARK    2  A    between atoms: C_5  and  C_25
REMARK    3  A    between atoms: C_8  and  S_14
REMARK    4  A    between atoms: C_13  and  O_23
REMARK    5  A    between atoms: S_14  and  N_17
REMARK    6  A    between atoms: N_17  and  C_19
REMARK    7  A    between atoms: C_19  and  C_20
REMARK    8  A    between atoms: C_26  and  C_32
REMARK                            x       y       z     vdW  Elec       q    Type
REMARK                         _______ _______ _______ _____ _____    ______ ____
ROOT
ATOM      1  O   UNL     1      34.081 -20.486 -20.420  0.00  0.00    -0.424 OA
ATOM      2  N   UNL     1      33.785 -21.755 -18.528  0.00  0.00    -0.265 N 
ATOM      3  N   UNL     1      35.937 -20.915 -19.200  0.00  0.00    -0.193 NA
ATOM      4  C   UNL     1      34.640 -21.079 -19.329  0.00  0.00    +0.293 C 
ATOM      5  C   UNL     1      35.141 -19.890 -21.035  0.00  0.00    +0.168 C 
ATOM      6  C   UNL     1      36.264 -20.153 -20.292  0.00  0.00    +0.141 C 
ATOM      7  H   UNL     1      32.846 -21.745 -18.822  0.00  0.00    +0.157 HD
ENDROOT
BRANCH   2  11
ATOM      8  C   UNL     1      35.583 -23.281 -15.660  0.00  0.00    +0.123 C 
ATOM      9  C   UNL     1      35.330 -22.571 -16.835  0.00  0.00    +0.038 C 
ATOM     10  C   UNL     1      34.534 -23.898 -14.979  0.00  0.00    +0.023 C 
ATOM     11  C   UNL     1      34.028 -22.480 -17.327  0.00  0.00    +0.087 C 
ATOM     12  C   UNL     1      33.232 -23.806 -15.471  0.00  0.00    +0.040 C 
ATOM     13  C   UNL     1      32.979 -23.097 -16.645  0.00  0.00    +0.152 C 
BRANCH   8  14
ATOM     14  S   UNL     1      37.213 -23.400 -15.045  0.00  0.00    +0.060 S 
ATOM     15  O   UNL     1      38.124 -22.800 -16.011  0.00  0.00    -0.153 OA
ATOM     16  O   UNL     1      37.206 -22.913 -13.672  0.00  0.00    -0.153 OA
BRANCH  14  17
ATOM     17  N   UNL     1      37.476 -25.089 -15.022  0.00  0.00    -0.179 NA
ATOM     18  H   UNL     1      38.133 -25.296 -15.774  0.00  0.00    +0.149 HD
BRANCH  17  19
ATOM     19  C   UNL     1      38.002 -25.731 -13.809  0.00  0.00    +0.091 C 
BRANCH  19  20
ATOM     20  C   UNL     1      39.439 -25.382 -13.607  0.00  0.00    +0.017 C 
ATOM     21  C   UNL     1      40.483 -26.448 -13.776  0.00  0.00    +0.001 C 
ATOM     22  C   UNL     1      40.360 -25.351 -14.792  0.00  0.00    +0.001 C 
ENDBRANCH  19  20
ENDBRANCH  17  19
ENDBRANCH  14  17
ENDBRANCH   8  14
BRANCH  13  23
ATOM     23  O   UNL     1      31.700 -23.020 -17.111  0.00  0.00    -0.470 OA
ATOM     24  C   UNL     1      30.654 -23.137 -16.149  0.00  0.00    +0.253 C 
ENDBRANCH  13  23
ENDBRANCH   2  11
BRANCH   5  25
ATOM     25  C   UNL     1      34.852 -19.167 -22.250  0.00  0.00    +0.036 C 
ATOM     26  C   UNL     1      34.397 -17.086 -23.390  0.00  0.00    +0.002 C 
ATOM     27  C   UNL     1      34.675 -17.784 -22.215  0.00  0.00    +0.003 C 
ATOM     28  C   UNL     1      34.751 -19.853 -23.461  0.00  0.00    +0.003 C 
ATOM     29  C   UNL     1      34.295 -17.773 -24.601  0.00  0.00    +0.000 C 
ATOM     30  C   UNL     1      34.473 -19.155 -24.636  0.00  0.00    +0.000 C 
BRANCH  26  32
ATOM     31  N   UNL     1      33.562 -13.624 -24.499  0.00  0.00    -0.242 NA
ATOM     32  C   UNL     1      34.212 -15.652 -23.354  0.00  0.00    +0.019 C 
ATOM     33  C   UNL     1      34.487 -14.922 -22.203  0.00  0.00    +0.003 C 
ATOM     34  C   UNL     1      33.756 -14.961 -24.466  0.00  0.00    +0.099 C 
ATOM     35  C   UNL     1      34.300 -13.545 -22.199  0.00  0.00    +0.021 C 
ATOM     36  C   UNL     1      33.840 -12.949 -23.362  0.00  0.00    +0.099 C 
ENDBRANCH  26  32
ENDBRANCH   5  25
TORSDOF 8
ENDMDL
MODEL 4
REMARK VINA RESULT:     -11.1      1.225      1.633
REMARK  Name = 4369498
REMARK  8 active torsions:
REMARK  status: ('A' for Active; 'I' for Inactive)
REMARK    1  A    between atoms: N_2  and  C_11
REMARK    2  A    between atoms: C_5  and  C_25
REMARK    3  A    between atoms: C_8  and  S_14
REMARK    4  A    between atoms: C_13  and  O_23
REMARK    5  A    between atoms: S_14  and  N_17
REMARK    6  A    between atoms: N_17  and  C_19
REMARK    7  A    between atoms: C_19  and  C_20
REMARK    8  A    between atoms: C_26  and  C_32
REMARK                            x       y       z     vdW  Elec       q    Type
REMARK                         _______ _______ _______ _____ _____    ______ ____
ROOT
ATOM      1  O   UNL     1      32.720 -10.963 -22.397  0.00  0.00    -0.424 OA
ATOM      2  N   UNL     1      33.062 -13.199 -22.798  0.00  0.00    -0.265 N 
ATOM      3  N   UNL     1      34.294 -11.475 -23.938  0.00  0.00    -0.193 NA
ATOM      4  C   UNL     1      33.399 -11.921 -23.085  0.00  0.00    +0.293 C 
ATOM      5  C   UNL     1      33.245  -9.798 -22.870  0.00  0.00    +0.168 C 
ATOM      6  C   UNL     1      34.199 -10.114 -23.804  0.00  0.00    +0.141 C 
ATOM      7  H   UNL     1      32.357 -13.298 -22.117  0.00  0.00    +0.157 HD
ENDROOT
BRANCH   2  11
ATOM      8  C   UNL     1      34.654 -16.549 -22.963  0.00  0.00    +0.123 C 
ATOM      9  C   UNL     1      34.156 -15.346 -22.461  0.00  0.00    +0.038 C 
ATOM     10  C   UNL     1      34.559 -16.828 -24.326  0.00  0.00    +0.023 C 
ATOM     11  C   UNL     1      33.563 -14.423 -23.323  0.00  0.00    +0.087 C 
ATOM     12  C   UNL     1      33.967 -15.904 -25.188  0.00  0.00    +0.040 C 
ATOM     13  C   UNL     1      33.468 -14.702 -24.686  0.00  0.00    +0.152 C 
BRANCH   8  14
ATOM     14  S   UNL     1      35.400 -17.703 -21.886  0.00  0.00    +0.060 S 
ATOM     15  O   UNL     1      36.695 -18.086 -22.432  0.00  0.00    -0.153 OA
ATOM     16  O   UNL     1      35.326 -17.163 -20.535  0.00  0.00    -0.153 OA
BRANCH  14  17
ATOM     17  N   UNL     1      34.343 -19.043 -21.994  0.00  0.00    -0.179 NA
ATOM     18  H   UNL     1      34.754 -19.689 -22.669  0.00  0.00    +0.149 HD
BRANCH  17  19
ATOM     19  C   UNL     1      34.031 -19.827 -20.791  0.00  0.00    +0.091 C 
BRANCH  19  20
ATOM     20  C   UNL     1      35.034 -20.914 -20.593  0.00  0.00    +0.017 C 
ATOM     21  C   UNL     1      36.153 -20.709 -19.613  0.00  0.00    +0.001 C 
ATOM     22  C   UNL     1      35.047 -21.673 -19.298  0.00  0.00    +0.001 C 
ENDBRANCH  19  20
ENDBRANCH  17  19
ENDBRANCH  14  17
ENDBRANCH   8  14
BRANCH  13  23
ATOM     23  O   UNL     1      32.894 -13.813 -25.545  0.00  0.00    -0.470 OA
ATOM     24  C   UNL     1      33.614 -13.509 -26.738  0.00  0.00    +0.253 C 
ENDBRANCH  13  23
ENDBRANCH   2  11
BRANCH   5  25
ATOM     25  C   UNL     1      32.709  -8.580 -22.314  0.00  0.00    +0.036 C 
ATOM     26  C   UNL     1      32.000  -6.287 -22.589  0.00  0.00    +0.002 C 
ATOM     27  C   UNL     1      32.519  -7.464 -23.127  0.00  0.00    +0.003 C 
ATOM     28  C   UNL     1      32.377  -8.520 -20.959  0.00  0.00    +0.003 C 
ATOM     29  C   UNL     1      31.669  -6.227 -21.234  0.00  0.00    +0.000 C 
ATOM     30  C   UNL     1      31.858  -7.344 -20.420  0.00  0.00    +0.000 C 
BRANCH  26  32
ATOM     31  N   UNL     1      30.531  -3.138 -23.945  0.00  0.00    -0.242 NA
ATOM     32  C   UNL     1      31.804  -5.129 -23.433  0.00  0.00    +0.019 C 
ATOM     33  C   UNL     1      32.648  -4.873 -24.507  0.00  0.00    +0.003 C 
ATOM     34  C   UNL     1      30.769  -4.238 -23.196  0.00  0.00    +0.099 C 
ATOM     35  C   UNL     1      32.435  -3.752 -25.301  0.00  0.00    +0.021 C 
ATOM     36  C   UNL     1      31.372  -2.923 -24.980  0.00  0.00    +0.099 C 
ENDBRANCH  26  32
ENDBRANCH   5  25
TORSDOF 8
ENDMDL
MODEL 5
REMARK VINA RESULT:     -10.6      3.407     11.004
REMARK  Name = 4369498
REMARK  8 active torsions:
REMARK  status: ('A' for Active; 'I' for Inactive)
REMARK    1  A    between atoms: N_2  and  C_11
REMARK    2  A    between atoms: C_5  and  C_25
REMARK    3  A    between atoms: C_8  and  S_14
REMARK    4  A    between atoms: C_13  and  O_23
REMARK    5  A    between atoms: S_14  and  N_17
REMARK    6  A    between atoms: N_17  and  C_19
REMARK    7  A    between atoms: C_19  and  C_20
REMARK    8  A    between atoms: C_26  and  C_32
REMARK                            x       y       z     vdW  Elec       q    Type
REMARK                         _______ _______ _______ _____ _____    ______ ____
ROOT
ATOM      1  O   UNL     1      32.690 -12.000 -22.819  0.00  0.00    -0.424 OA
ATOM      2  N   UNL     1      32.047 -10.106 -21.690  0.00  0.00    -0.265 N 
ATOM      3  N   UNL     1      33.798 -10.098 -23.340  0.00  0.00    -0.193 NA
ATOM      4  C   UNL     1      32.862 -10.665 -22.613  0.00  0.00    +0.293 C 
ATOM      5  C   UNL     1      33.616 -12.296 -23.774  0.00  0.00    +0.168 C 
ATOM      6  C   UNL     1      34.285 -11.140 -24.086  0.00  0.00    +0.141 C 
ATOM      7  H   UNL     1      31.413 -10.729 -21.265  0.00  0.00    +0.157 HD
ENDROOT
BRANCH   2  11
ATOM      8  C   UNL     1      31.448  -6.442 -21.685  0.00  0.00    +0.123 C 
ATOM      9  C   UNL     1      31.536  -7.766 -22.117  0.00  0.00    +0.038 C 
ATOM     10  C   UNL     1      31.784  -6.113 -20.372  0.00  0.00    +0.023 C 
ATOM     11  C   UNL     1      31.959  -8.760 -21.235  0.00  0.00    +0.087 C 
ATOM     12  C   UNL     1      32.208  -7.108 -19.490  0.00  0.00    +0.040 C 
ATOM     13  C   UNL     1      32.295  -8.431 -19.922  0.00  0.00    +0.152 C 
BRANCH   8  14
ATOM     14  S   UNL     1      30.922  -5.195 -22.789  0.00  0.00    +0.060 S 
ATOM     15  O   UNL     1      30.285  -5.826 -23.939  0.00  0.00    -0.153 OA
ATOM     16  O   UNL     1      30.183  -4.203 -22.020  0.00  0.00    -0.153 OA
BRANCH  14  17
ATOM     17  N   UNL     1      32.400  -4.503 -23.295  0.00  0.00    -0.179 NA
ATOM     18  H   UNL     1      33.139  -4.964 -22.764  0.00  0.00    +0.149 HD
BRANCH  17  19
ATOM     19  C   UNL     1      32.791  -4.565 -24.711  0.00  0.00    +0.091 C 
BRANCH  19  20
ATOM     20  C   UNL     1      33.605  -5.787 -24.981  0.00  0.00    +0.017 C 
ATOM     21  C   UNL     1      35.088  -5.653 -25.169  0.00  0.00    +0.001 C 
ATOM     22  C   UNL     1      34.544  -6.291 -23.925  0.00  0.00    +0.001 C 
ENDBRANCH  19  20
ENDBRANCH  17  19
ENDBRANCH  14  17
ENDBRANCH   8  14
BRANCH  13  23
ATOM     23  O   UNL     1      32.712  -9.388 -19.045  0.00  0.00    -0.470 OA
ATOM     24  C   UNL     1      31.770 -10.398 -18.693  0.00  0.00    +0.253 C 
ENDBRANCH  13  23
ENDBRANCH   2  11
BRANCH   5  25
ATOM     25  C   UNL     1      33.674 -13.671 -24.206  0.00  0.00    +0.036 C 
ATOM     26  C   UNL     1      34.204 -15.986 -23.759  0.00  0.00    +0.002 C 
ATOM     27  C   UNL     1      34.149 -14.657 -23.341  0.00  0.00    +0.003 C 
ATOM     28  C   UNL     1      33.251 -14.017 -25.490  0.00  0.00    +0.003 C 
ATOM     29  C   UNL     1      33.782 -16.330 -25.044  0.00  0.00    +0.000 C 
ATOM     30  C   UNL     1      33.306 -15.345 -25.909  0.00  0.00    +0.000 C 
BRANCH  26  32
ATOM     31  N   UNL     1      35.493 -17.613 -20.660  0.00  0.00    -0.242 NA
ATOM     32  C   UNL     1      34.699 -17.007 -22.862  0.00  0.00    +0.019 C 
ATOM     33  C   UNL     1      34.861 -18.320 -23.289  0.00  0.00    +0.003 C 
ATOM     34  C   UNL     1      35.027 -16.708 -21.549  0.00  0.00    +0.099 C 
ATOM     35  C   UNL     1      35.339 -19.279 -22.404  0.00  0.00    +0.021 C 
ATOM     36  C   UNL     1      35.638 -18.878 -21.112  0.00  0.00    +0.099 C 
ENDBRANCH  26  32
ENDBRANCH   5  25
TORSDOF 8
ENDMDL
MODEL 6
REMARK VINA RESULT:     -10.3      7.409     11.713
REMARK  Name = 4369498
REMARK  8 active torsions:
REMARK  status: ('A' for Active; 'I' for Inactive)
REMARK    1  A    between atoms: N_2  and  C_11
REMARK    2  A    between atoms: C_5  and  C_25
REMARK    3  A    between atoms: C_8  and  S_14
REMARK    4  A    between atoms: C_13  and  O_23
REMARK    5  A    between atoms: S_14  and  N_17
REMARK    6  A    between atoms: N_17  and  C_19
REMARK    7  A    between atoms: C_19  and  C_20
REMARK    8  A    between atoms: C_26  and  C_32
REMARK                            x       y       z     vdW  Elec       q    Type
REMARK                         _______ _______ _______ _____ _____    ______ ____
ROOT
ATOM      1  O   UNL     1      36.071 -21.031 -18.479  0.00  0.00    -0.424 OA
ATOM      2  N   UNL     1      35.933 -22.319 -16.581  0.00  0.00    -0.265 N 
ATOM      3  N   UNL     1      34.684 -22.815 -18.577  0.00  0.00    -0.193 NA
ATOM      4  C   UNL     1      35.529 -22.114 -17.856  0.00  0.00    +0.293 C 
ATOM      5  C   UNL     1      35.506 -21.061 -19.718  0.00  0.00    +0.168 C 
ATOM      6  C   UNL     1      34.665 -22.145 -19.773  0.00  0.00    +0.141 C 
ATOM      7  H   UNL     1      36.579 -21.659 -16.240  0.00  0.00    +0.157 HD
ENDROOT
BRANCH   2  11
ATOM      8  C   UNL     1      36.226 -25.130 -14.174  0.00  0.00    +0.123 C 
ATOM      9  C   UNL     1      36.567 -24.126 -15.082  0.00  0.00    +0.038 C 
ATOM     10  C   UNL     1      34.888 -25.341 -13.839  0.00  0.00    +0.023 C 
ATOM     11  C   UNL     1      35.570 -23.337 -15.654  0.00  0.00    +0.087 C 
ATOM     12  C   UNL     1      33.892 -24.551 -14.412  0.00  0.00    +0.040 C 
ATOM     13  C   UNL     1      34.233 -23.548 -15.319  0.00  0.00    +0.152 C 
BRANCH   8  14
ATOM     14  S   UNL     1      37.472 -26.122 -13.458  0.00  0.00    +0.060 S 
ATOM     15  O   UNL     1      36.899 -26.861 -12.340  0.00  0.00    -0.153 OA
ATOM     16  O   UNL     1      38.130 -26.852 -14.534  0.00  0.00    -0.153 OA
BRANCH  14  17
ATOM     17  N   UNL     1      38.562 -24.958 -12.844  0.00  0.00    -0.179 NA
ATOM     18  H   UNL     1      38.560 -24.176 -13.499  0.00  0.00    +0.149 HD
BRANCH  17  19
ATOM     19  C   UNL     1      38.347 -24.390 -11.505  0.00  0.00    +0.091 C 
BRANCH  19  20
ATOM     20  C   UNL     1      37.107 -23.560 -11.475  0.00  0.00    +0.017 C 
ATOM     21  C   UNL     1      35.944 -24.010 -10.640  0.00  0.00    +0.001 C 
ATOM     22  C   UNL     1      36.752 -22.818 -10.220  0.00  0.00    +0.001 C 
ENDBRANCH  19  20
ENDBRANCH  17  19
ENDBRANCH  14  17
ENDBRANCH   8  14
BRANCH  13  23
ATOM     23  O   UNL     1      33.245 -22.788 -15.869  0.00  0.00    -0.470 OA
ATOM     24  C   UNL     1      31.901 -23.146 -15.553  0.00  0.00    +0.253 C 
ENDBRANCH  13  23
ENDBRANCH   2  11
BRANCH   5  25
ATOM     25  C   UNL     1      35.897 -20.012 -20.627  0.00  0.00    +0.036 C 
ATOM     26  C   UNL     1      35.388 -18.549 -22.481  0.00  0.00    +0.002 C 
ATOM     27  C   UNL     1      35.009 -19.564 -21.604  0.00  0.00    +0.003 C 
ATOM     28  C   UNL     1      37.167 -19.441 -20.527  0.00  0.00    +0.003 C 
ATOM     29  C   UNL     1      36.658 -17.981 -22.381  0.00  0.00    +0.000 C 
ATOM     30  C   UNL     1      37.547 -18.426 -21.404  0.00  0.00    +0.000 C 
BRANCH  26  32
ATOM     31  N   UNL     1      32.712 -18.598 -25.079  0.00  0.00    -0.242 NA
ATOM     32  C   UNL     1      34.466 -18.087 -23.495  0.00  0.00    +0.019 C 
ATOM     33  C   UNL     1      34.423 -16.749 -23.870  0.00  0.00    +0.003 C 
ATOM     34  C   UNL     1      33.597 -18.964 -24.125  0.00  0.00    +0.099 C 
ATOM     35  C   UNL     1      33.527 -16.334 -24.848  0.00  0.00    +0.021 C 
ATOM     36  C   UNL     1      32.700 -17.290 -25.417  0.00  0.00    +0.099 C 
ENDBRANCH  26  32
ENDBRANCH   5  25
TORSDOF 8
ENDMDL
MODEL 7
REMARK VINA RESULT:     -10.3      7.313     11.874
REMARK  Name = 4369498
REMARK  8 active torsions:
REMARK  status: ('A' for Active; 'I' for Inactive)
REMARK    1  A    between atoms: N_2  and  C_11
REMARK    2  A    between atoms: C_5  and  C_25
REMARK    3  A    between atoms: C_8  and  S_14
REMARK    4  A    between atoms: C_13  and  O_23
REMARK    5  A    between atoms: S_14  and  N_17
REMARK    6  A    between atoms: N_17  and  C_19
REMARK    7  A    between atoms: C_19  and  C_20
REMARK    8  A    between atoms: C_26  and  C_32
REMARK                            x       y       z     vdW  Elec       q    Type
REMARK                         _______ _______ _______ _____ _____    ______ ____
ROOT
ATOM      1  O   UNL     1      34.801 -21.614 -18.091  0.00  0.00    -0.424 OA
ATOM      2  N   UNL     1      34.095 -22.836 -16.278  0.00  0.00    -0.265 N 
ATOM      3  N   UNL     1      32.698 -22.440 -18.196  0.00  0.00    -0.193 NA
ATOM      4  C   UNL     1      33.806 -22.332 -17.499  0.00  0.00    +0.293 C 
ATOM      5  C   UNL     1      34.255 -21.234 -19.280  0.00  0.00    +0.168 C 
ATOM      6  C   UNL     1      32.979 -21.737 -19.339  0.00  0.00    +0.141 C 
ATOM      7  H   UNL     1      34.998 -22.628 -15.947  0.00  0.00    +0.157 HD
ENDROOT
BRANCH   2  11
ATOM      8  C   UNL     1      31.133 -24.476 -14.755  0.00  0.00    +0.123 C 
ATOM      9  C   UNL     1      31.925 -23.714 -15.614  0.00  0.00    +0.038 C 
ATOM     10  C   UNL     1      31.715 -25.143 -13.677  0.00  0.00    +0.023 C 
ATOM     11  C   UNL     1      33.299 -23.619 -15.395  0.00  0.00    +0.087 C 
ATOM     12  C   UNL     1      33.090 -25.048 -13.458  0.00  0.00    +0.040 C 
ATOM     13  C   UNL     1      33.882 -24.286 -14.317  0.00  0.00    +0.152 C 
BRANCH   8  14
ATOM     14  S   UNL     1      29.412 -24.593 -15.026  0.00  0.00    +0.060 S 
ATOM     15  O   UNL     1      29.183 -25.150 -16.353  0.00  0.00    -0.153 OA
ATOM     16  O   UNL     1      28.823 -25.249 -13.866  0.00  0.00    -0.153 OA
BRANCH  14  17
ATOM     17  N   UNL     1      28.927 -22.954 -15.029  0.00  0.00    -0.179 NA
ATOM     18  H   UNL     1      29.734 -22.407 -14.730  0.00  0.00    +0.149 HD
BRANCH  17  19
ATOM     19  C   UNL     1      28.435 -22.339 -16.271  0.00  0.00    +0.091 C 
BRANCH  19  20
ATOM     20  C   UNL     1      26.979 -22.609 -16.453  0.00  0.00    +0.017 C 
ATOM     21  C   UNL     1      25.988 -21.922 -15.558  0.00  0.00    +0.001 C 
ATOM     22  C   UNL     1      26.096 -21.526 -17.001  0.00  0.00    +0.001 C 
ENDBRANCH  19  20
ENDBRANCH  17  19
ENDBRANCH  14  17
ENDBRANCH   8  14
BRANCH  13  23
ATOM     23  O   UNL     1      35.222 -24.205 -14.085  0.00  0.00    -0.470 OA
ATOM     24  C   UNL     1      36.027 -25.284 -14.556  0.00  0.00    +0.253 C 
ENDBRANCH  13  23
ENDBRANCH   2  11
BRANCH   5  25
ATOM     25  C   UNL     1      35.093 -20.440 -20.145  0.00  0.00    +0.036 C 
ATOM     26  C   UNL     1      35.332 -18.898 -21.989  0.00  0.00    +0.002 C 
ATOM     27  C   UNL     1      34.522 -19.665 -21.154  0.00  0.00    +0.003 C 
ATOM     28  C   UNL     1      36.478 -20.446 -19.971  0.00  0.00    +0.003 C 
ATOM     29  C   UNL     1      36.717 -18.905 -21.815  0.00  0.00    +0.000 C 
ATOM     30  C   UNL     1      37.289 -19.679 -20.805  0.00  0.00    +0.000 C 
BRANCH  26  32
ATOM     31  N   UNL     1      34.413 -15.918 -24.036  0.00  0.00    -0.242 NA
ATOM     32  C   UNL     1      34.739 -18.096 -23.036  0.00  0.00    +0.019 C 
ATOM     33  C   UNL     1      33.953 -18.675 -24.026  0.00  0.00    +0.003 C 
ATOM     34  C   UNL     1      34.937 -16.724 -23.086  0.00  0.00    +0.099 C 
ATOM     35  C   UNL     1      33.396 -17.877 -25.019  0.00  0.00    +0.021 C 
ATOM     36  C   UNL     1      33.654 -16.517 -24.979  0.00  0.00    +0.099 C 
ENDBRANCH  26  32
ENDBRANCH   5  25
TORSDOF 8
ENDMDL
MODEL 8
REMARK VINA RESULT:     -10.2      1.672      2.559
REMARK  Name = 4369498
REMARK  8 active torsions:
REMARK  status: ('A' for Active; 'I' for Inactive)
REMARK    1  A    between atoms: N_2  and  C_11
REMARK    2  A    between atoms: C_5  and  C_25
REMARK    3  A    between atoms: C_8  and  S_14
REMARK    4  A    between atoms: C_13  and  O_23
REMARK    5  A    between atoms: S_14  and  N_17
REMARK    6  A    between atoms: N_17  and  C_19
REMARK    7  A    between atoms: C_19  and  C_20
REMARK    8  A    between atoms: C_26  and  C_32
REMARK                            x       y       z     vdW  Elec       q    Type
REMARK                         _______ _______ _______ _____ _____    ______ ____
ROOT
ATOM      1  O   UNL     1      34.476 -12.283 -23.802  0.00  0.00    -0.424 OA
ATOM      2  N   UNL     1      34.801 -14.543 -24.054  0.00  0.00    -0.265 N 
ATOM      3  N   UNL     1      33.030 -13.632 -22.705  0.00  0.00    -0.193 NA
ATOM      4  C   UNL     1      34.073 -13.548 -23.498  0.00  0.00    +0.293 C 
ATOM      5  C   UNL     1      33.591 -11.496 -23.128  0.00  0.00    +0.168 C 
ATOM      6  C   UNL     1      32.716 -12.319 -22.463  0.00  0.00    +0.141 C 
ATOM      7  H   UNL     1      35.548 -14.243 -24.622  0.00  0.00    +0.157 HD
ENDROOT
BRANCH   2  11
ATOM      8  C   UNL     1      35.067 -18.000 -22.726  0.00  0.00    +0.123 C 
ATOM      9  C   UNL     1      35.196 -16.615 -22.842  0.00  0.00    +0.038 C 
ATOM     10  C   UNL     1      34.402 -18.723 -23.716  0.00  0.00    +0.023 C 
ATOM     11  C   UNL     1      34.660 -15.956 -23.947  0.00  0.00    +0.087 C 
ATOM     12  C   UNL     1      33.866 -18.063 -24.822  0.00  0.00    +0.040 C 
ATOM     13  C   UNL     1      33.995 -16.679 -24.937  0.00  0.00    +0.152 C 
BRANCH   8  14
ATOM     14  S   UNL     1      35.741 -18.828 -21.344  0.00  0.00    +0.060 S 
ATOM     15  O   UNL     1      37.086 -19.279 -21.677  0.00  0.00    -0.153 OA
ATOM     16  O   UNL     1      35.541 -17.979 -20.177  0.00  0.00    -0.153 OA
BRANCH  14  17
ATOM     17  N   UNL     1      34.725 -20.195 -21.203  0.00  0.00    -0.179 NA
ATOM     18  H   UNL     1      35.224 -20.979 -21.624  0.00  0.00    +0.149 HD
BRANCH  17  19
ATOM     19  C   UNL     1      34.278 -20.641 -19.875  0.00  0.00    +0.091 C 
BRANCH  19  20
ATOM     20  C   UNL     1      35.059 -21.832 -19.427  0.00  0.00    +0.017 C 
ATOM     21  C   UNL     1      36.079 -21.672 -18.337  0.00  0.00    +0.001 C 
ATOM     22  C   UNL     1      34.800 -22.408 -18.065  0.00  0.00    +0.001 C 
ENDBRANCH  19  20
ENDBRANCH  17  19
ENDBRANCH  14  17
ENDBRANCH   8  14
BRANCH  13  23
ATOM     23  O   UNL     1      33.465 -16.053 -26.026  0.00  0.00    -0.470 OA
ATOM     24  C   UNL     1      32.058 -15.819 -26.017  0.00  0.00    +0.253 C 
ENDBRANCH  13  23
ENDBRANCH   2  11
BRANCH   5  25
ATOM     25  C   UNL     1      33.770 -10.071 -23.261  0.00  0.00    +0.036 C 
ATOM     26  C   UNL     1      33.005  -7.817 -22.844  0.00  0.00    +0.002 C 
ATOM     27  C   UNL     1      32.832  -9.195 -22.716  0.00  0.00    +0.003 C 
ATOM     28  C   UNL     1      34.884  -9.569 -23.934  0.00  0.00    +0.003 C 
ATOM     29  C   UNL     1      34.119  -7.316 -23.518  0.00  0.00    +0.000 C 
ATOM     30  C   UNL     1      35.059  -8.191 -24.063  0.00  0.00    +0.000 C 
BRANCH  26  32
ATOM     31  N   UNL     1      31.273  -5.610 -20.386  0.00  0.00    -0.242 NA
ATOM     32  C   UNL     1      32.032  -6.909 -22.280  0.00  0.00    +0.019 C 
ATOM     33  C   UNL     1      30.950  -6.460 -23.029  0.00  0.00    +0.003 C 
ATOM     34  C   UNL     1      32.146  -6.458 -20.973  0.00  0.00    +0.099 C 
ATOM     35  C   UNL     1      30.031  -5.587 -22.459  0.00  0.00    +0.021 C 
ATOM     36  C   UNL     1      30.235  -5.196 -21.146  0.00  0.00    +0.099 C 
ENDBRANCH  26  32
ENDBRANCH   5  25
TORSDOF 8
ENDMDL
MODEL 9
REMARK VINA RESULT:     -10.0      3.037     11.236
REMARK  Name = 4369498
REMARK  8 active torsions:
REMARK  status: ('A' for Active; 'I' for Inactive)
REMARK    1  A    between atoms: N_2  and  C_11
REMARK    2  A    between atoms: C_5  and  C_25
REMARK    3  A    between atoms: C_8  and  S_14
REMARK    4  A    between atoms: C_13  and  O_23
REMARK    5  A    between atoms: S_14  and  N_17
REMARK    6  A    between atoms: N_17  and  C_19
REMARK    7  A    between atoms: C_19  and  C_20
REMARK    8  A    between atoms: C_26  and  C_32
REMARK                            x       y       z     vdW  Elec       q    Type
REMARK                         _______ _______ _______ _____ _____    ______ ____
ROOT
ATOM      1  O   UNL     1      33.817 -13.681 -23.620  0.00  0.00    -0.424 OA
ATOM      2  N   UNL     1      33.922 -11.443 -23.111  0.00  0.00    -0.265 N 
ATOM      3  N   UNL     1      33.434 -12.247 -25.326  0.00  0.00    -0.193 NA
ATOM      4  C   UNL     1      33.717 -12.393 -24.051  0.00  0.00    +0.293 C 
ATOM      5  C   UNL     1      33.571 -14.413 -24.742  0.00  0.00    +0.168 C 
ATOM      6  C   UNL     1      33.340 -13.539 -25.774  0.00  0.00    +0.141 C 
ATOM      7  H   UNL     1      34.122 -11.787 -22.211  0.00  0.00    +0.157 HD
ENDROOT
BRANCH   2  11
ATOM      8  C   UNL     1      32.788  -7.925 -22.759  0.00  0.00    +0.123 C 
ATOM      9  C   UNL     1      32.829  -9.316 -22.660  0.00  0.00    +0.038 C 
ATOM     10  C   UNL     1      33.813  -7.242 -23.415  0.00  0.00    +0.023 C 
ATOM     11  C   UNL     1      33.894 -10.023 -23.217  0.00  0.00    +0.087 C 
ATOM     12  C   UNL     1      34.878  -7.950 -23.972  0.00  0.00    +0.040 C 
ATOM     13  C   UNL     1      34.919  -9.341 -23.873  0.00  0.00    +0.152 C 
BRANCH   8  14
ATOM     14  S   UNL     1      31.453  -7.038 -22.066  0.00  0.00    +0.060 S 
ATOM     15  O   UNL     1      30.271  -7.247 -22.893  0.00  0.00    -0.153 OA
ATOM     16  O   UNL     1      31.397  -7.359 -20.646  0.00  0.00    -0.153 OA
BRANCH  14  17
ATOM     17  N   UNL     1      31.961  -5.415 -22.237  0.00  0.00    -0.179 NA
ATOM     18  H   UNL     1      32.610  -5.390 -23.023  0.00  0.00    +0.149 HD
BRANCH  17  19
ATOM     19  C   UNL     1      30.966  -4.359 -22.475  0.00  0.00    +0.091 C 
BRANCH  19  20
ATOM     20  C   UNL     1      31.032  -3.878 -23.886  0.00  0.00    +0.017 C 
ATOM     21  C   UNL     1      31.806  -2.631 -24.201  0.00  0.00    +0.001 C 
ATOM     22  C   UNL     1      32.331  -3.968 -24.632  0.00  0.00    +0.001 C 
ENDBRANCH  19  20
ENDBRANCH  17  19
ENDBRANCH  14  17
ENDBRANCH   8  14
BRANCH  13  23
ATOM     23  O   UNL     1      35.968 -10.014 -24.425  0.00  0.00    -0.470 OA
ATOM     24  C   UNL     1      36.037 -10.049 -25.849  0.00  0.00    +0.253 C 
ENDBRANCH  13  23
ENDBRANCH   2  11
BRANCH   5  25
ATOM     25  C   UNL     1      33.611 -15.847 -24.593  0.00  0.00    +0.036 C 
ATOM     26  C   UNL     1      34.437 -17.812 -23.455  0.00  0.00    +0.002 C 
ATOM     27  C   UNL     1      34.400 -16.426 -23.599  0.00  0.00    +0.003 C 
ATOM     28  C   UNL     1      32.856 -16.657 -25.442  0.00  0.00    +0.003 C 
ATOM     29  C   UNL     1      33.683 -18.621 -24.306  0.00  0.00    +0.000 C 
ATOM     30  C   UNL     1      32.892 -18.044 -25.299  0.00  0.00    +0.000 C 
BRANCH  26  32
ATOM     31  N   UNL     1      37.423 -18.618 -21.370  0.00  0.00    -0.242 NA
ATOM     32  C   UNL     1      35.257 -18.411 -22.425  0.00  0.00    +0.019 C 
ATOM     33  C   UNL     1      34.723 -19.323 -21.522  0.00  0.00    +0.003 C 
ATOM     34  C   UNL     1      36.602 -18.095 -22.308  0.00  0.00    +0.099 C 
ATOM     35  C   UNL     1      35.536 -19.882 -20.544  0.00  0.00    +0.021 C 
ATOM     36  C   UNL     1      36.868 -19.500 -20.510  0.00  0.00    +0.099 C 
ENDBRANCH  26  32
ENDBRANCH   5  25
TORSDOF 8
ENDMDL
