MODEL 1
REMARK VINA RESULT:     -12.3      0.000      0.000
REMARK  Name = 24864821
REMARK  5 active torsions:
REMARK  status: ('A' for Active; 'I' for Inactive)
REMARK    1  A    between atoms: C_5  and  C_16
REMARK    2  A    between atoms: C_7  and  C_10
REMARK    3  A    between atoms: C_16  and  O_17
REMARK    4  A    between atoms: O_17  and  C_20
REMARK    5  A    between atoms: C_25  and  O_28
REMARK                            x       y       z     vdW  Elec       q    Type
REMARK                         _______ _______ _______ _____ _____    ______ ____
ROOT
ATOM      1  N   UNL     1      36.243 -23.086 -15.390  0.00  0.00    -0.191 N 
ATOM      2  N   UNL     1      34.914 -22.846 -15.520  0.00  0.00    -0.163 NA
ATOM      3  N   UNL     1      38.413 -22.946 -15.657  0.00  0.00    -0.128 NA
ATOM      4  N   UNL     1      38.156 -23.938 -14.733  0.00  0.00    -0.127 NA
ATOM      5  C   UNL     1      37.259 -22.449 -16.040  0.00  0.00    +0.208 A 
ATOM      6  C   UNL     1      36.852 -24.014 -14.579  0.00  0.00    +0.186 A 
ATOM      7  C   UNL     1      34.167 -23.603 -14.766  0.00  0.00    +0.101 C 
ATOM      8  C   UNL     1      36.018 -24.830 -13.789  0.00  0.00    +0.042 C 
ATOM      9  C   UNL     1      34.690 -24.666 -13.848  0.00  0.00    +0.024 C 
ENDROOT
BRANCH   7  10
ATOM     10  C   UNL     1      32.691 -23.433 -14.814  0.00  0.00    +0.019 C 
ATOM     11  C   UNL     1      32.059 -23.164 -16.027  0.00  0.00    +0.002 C 
ATOM     12  C   UNL     1      31.938 -23.545 -13.645  0.00  0.00    +0.002 C 
ATOM     13  C   UNL     1      30.674 -23.007 -16.072  0.00  0.00    +0.000 C 
ATOM     14  C   UNL     1      30.553 -23.388 -13.690  0.00  0.00    +0.000 C 
ATOM     15  C   UNL     1      29.920 -23.118 -14.904  0.00  0.00    +0.000 C 
ENDBRANCH   7  10
BRANCH   5  16
ATOM     16  C   UNL     1      37.034 -21.347 -17.034  0.00  0.00    +0.272 C 
BRANCH  16  17
ATOM     17  O   UNL     1      36.765 -21.921 -18.311  0.00  0.00    -0.467 OA
BRANCH  17  20
ATOM     18  N   UNL     1      33.316 -20.660 -20.237  0.00  0.00    -0.248 NA
ATOM     19  C   UNL     1      35.698 -20.481 -19.928  0.00  0.00    +0.030 C 
ATOM     20  C   UNL     1      35.643 -21.490 -18.957  0.00  0.00    +0.138 C 
ATOM     21  C   UNL     1      34.495 -20.091 -20.551  0.00  0.00    +0.066 C 
ATOM     22  C   UNL     1      36.911 -19.864 -20.281  0.00  0.00    +0.059 C 
ATOM     23  C   UNL     1      34.550 -19.088 -21.515  0.00  0.00    +0.109 C 
ATOM     24  C   UNL     1      34.430 -22.079 -18.632  0.00  0.00    +0.057 C 
ATOM     25  C   UNL     1      35.756 -18.475 -21.866  0.00  0.00    +0.118 C 
ATOM     26  C   UNL     1      36.938 -18.864 -21.247  0.00  0.00    +0.011 C 
ATOM     27  C   UNL     1      33.305 -21.632 -19.296  0.00  0.00    +0.102 C 
BRANCH  25  28
ATOM     28  O   UNL     1      35.771 -17.499 -22.814  0.00  0.00    -0.476 OA
ATOM     29  C   UNL     1      34.640 -17.419 -23.681  0.00  0.00    +0.252 C 
ENDBRANCH  25  28
ENDBRANCH  17  20
ENDBRANCH  16  17
ENDBRANCH   5  16
TORSDOF 5
ENDMDL
MODEL 2
REMARK VINA RESULT:     -11.7      7.085     12.819
REMARK  Name = 24864821
REMARK  5 active torsions:
REMARK  status: ('A' for Active; 'I' for Inactive)
REMARK    1  A    between atoms: C_5  and  C_16
REMARK    2  A    between atoms: C_7  and  C_10
REMARK    3  A    between atoms: C_16  and  O_17
REMARK    4  A    between atoms: O_17  and  C_20
REMARK    5  A    between atoms: C_25  and  O_28
REMARK                            x       y       z     vdW  Elec       q    Type
REMARK                         _______ _______ _______ _____ _____    ______ ____
ROOT
ATOM      1  N   UNL     1      32.681 -11.311 -22.191  0.00  0.00    -0.191 N 
ATOM      2  N   UNL     1      33.116 -10.238 -22.898  0.00  0.00    -0.163 NA
ATOM      3  N   UNL     1      32.382 -13.378 -21.528  0.00  0.00    -0.128 NA
ATOM      4  N   UNL     1      31.663 -12.549 -20.691  0.00  0.00    -0.127 NA
ATOM      5  C   UNL     1      32.983 -12.622 -22.419  0.00  0.00    +0.208 A 
ATOM      6  C   UNL     1      31.849 -11.311 -21.096  0.00  0.00    +0.186 A 
ATOM      7  C   UNL     1      32.673  -9.097 -22.448  0.00  0.00    +0.101 C 
ATOM      8  C   UNL     1      31.372 -10.065 -20.644  0.00  0.00    +0.042 C 
ATOM      9  C   UNL     1      31.749  -8.948 -21.279  0.00  0.00    +0.024 C 
ENDROOT
BRANCH   7  10
ATOM     10  C   UNL     1      33.084  -7.845 -23.137  0.00  0.00    +0.019 C 
ATOM     11  C   UNL     1      32.124  -6.901 -23.498  0.00  0.00    +0.002 C 
ATOM     12  C   UNL     1      34.430  -7.614 -23.419  0.00  0.00    +0.002 C 
ATOM     13  C   UNL     1      32.510  -5.725 -24.141  0.00  0.00    +0.000 C 
ATOM     14  C   UNL     1      34.816  -6.439 -24.063  0.00  0.00    +0.000 C 
ATOM     15  C   UNL     1      33.856  -5.494 -24.425  0.00  0.00    +0.000 C 
ENDBRANCH   7  10
BRANCH   5  16
ATOM     16  C   UNL     1      33.877 -13.076 -23.535  0.00  0.00    +0.272 C 
BRANCH  16  17
ATOM     17  O   UNL     1      34.641 -14.196 -23.092  0.00  0.00    -0.467 OA
BRANCH  17  20
ATOM     18  N   UNL     1      33.760 -17.825 -24.893  0.00  0.00    -0.248 NA
ATOM     19  C   UNL     1      34.614 -16.607 -22.998  0.00  0.00    +0.030 C 
ATOM     20  C   UNL     1      34.360 -15.401 -23.665  0.00  0.00    +0.138 C 
ATOM     21  C   UNL     1      34.295 -17.812 -23.658  0.00  0.00    +0.066 C 
ATOM     22  C   UNL     1      35.172 -16.631 -21.708  0.00  0.00    +0.059 C 
ATOM     23  C   UNL     1      34.548 -19.009 -22.995  0.00  0.00    +0.109 C 
ATOM     24  C   UNL     1      33.808 -15.411 -24.938  0.00  0.00    +0.057 C 
ATOM     25  C   UNL     1      35.102 -19.034 -21.712  0.00  0.00    +0.118 C 
ATOM     26  C   UNL     1      35.414 -17.843 -21.068  0.00  0.00    +0.011 C 
ATOM     27  C   UNL     1      33.529 -16.640 -25.503  0.00  0.00    +0.102 C 
BRANCH  25  28
ATOM     28  O   UNL     1      35.334 -20.224 -21.095  0.00  0.00    -0.476 OA
ATOM     29  C   UNL     1      34.418 -20.614 -20.072  0.00  0.00    +0.252 C 
ENDBRANCH  25  28
ENDBRANCH  17  20
ENDBRANCH  16  17
ENDBRANCH   5  16
TORSDOF 5
ENDMDL
MODEL 3
REMARK VINA RESULT:     -11.6      7.926     13.547
REMARK  Name = 24864821
REMARK  5 active torsions:
REMARK  status: ('A' for Active; 'I' for Inactive)
REMARK    1  A    between atoms: C_5  and  C_16
REMARK    2  A    between atoms: C_7  and  C_10
REMARK    3  A    between atoms: C_16  and  O_17
REMARK    4  A    between atoms: O_17  and  C_20
REMARK    5  A    between atoms: C_25  and  O_28
REMARK                            x       y       z     vdW  Elec       q    Type
REMARK                         _______ _______ _______ _____ _____    ______ ____
ROOT
ATOM      1  N   UNL     1      32.170 -10.113 -21.342  0.00  0.00    -0.191 N 
ATOM      2  N   UNL     1      32.589  -9.330 -22.367  0.00  0.00    -0.163 NA
ATOM      3  N   UNL     1      31.524 -11.868 -20.199  0.00  0.00    -0.128 NA
ATOM      4  N   UNL     1      31.539 -10.782 -19.349  0.00  0.00    -0.127 NA
ATOM      5  C   UNL     1      31.903 -11.450 -21.386  0.00  0.00    +0.208 A 
ATOM      6  C   UNL     1      31.929  -9.734 -20.042  0.00  0.00    +0.186 A 
ATOM      7  C   UNL     1      32.776  -8.083 -22.034  0.00  0.00    +0.101 C 
ATOM      8  C   UNL     1      32.121  -8.377 -19.717  0.00  0.00    +0.042 C 
ATOM      9  C   UNL     1      32.536  -7.527 -20.664  0.00  0.00    +0.024 C 
ENDROOT
BRANCH   7  10
ATOM     10  C   UNL     1      33.240  -7.124 -23.071  0.00  0.00    +0.019 C 
ATOM     11  C   UNL     1      32.332  -6.253 -23.672  0.00  0.00    +0.002 C 
ATOM     12  C   UNL     1      34.585  -7.095 -23.440  0.00  0.00    +0.002 C 
ATOM     13  C   UNL     1      32.769  -5.352 -24.642  0.00  0.00    +0.000 C 
ATOM     14  C   UNL     1      35.021  -6.194 -24.411  0.00  0.00    +0.000 C 
ATOM     15  C   UNL     1      34.114  -5.322 -25.013  0.00  0.00    +0.000 C 
ENDBRANCH   7  10
BRANCH   5  16
ATOM     16  C   UNL     1      32.040 -12.274 -22.633  0.00  0.00    +0.272 C 
BRANCH  16  17
ATOM     17  O   UNL     1      33.355 -12.825 -22.684  0.00  0.00    -0.467 OA
BRANCH  17  20
ATOM     18  N   UNL     1      34.007 -15.763 -25.535  0.00  0.00    -0.248 NA
ATOM     19  C   UNL     1      34.138 -15.038 -23.242  0.00  0.00    +0.030 C 
ATOM     20  C   UNL     1      33.578 -13.805 -23.604  0.00  0.00    +0.138 C 
ATOM     21  C   UNL     1      34.338 -16.001 -24.252  0.00  0.00    +0.066 C 
ATOM     22  C   UNL     1      34.496 -15.321 -21.912  0.00  0.00    +0.059 C 
ATOM     23  C   UNL     1      34.894 -17.225 -23.891  0.00  0.00    +0.109 C 
ATOM     24  C   UNL     1      33.236 -13.557 -24.926  0.00  0.00    +0.057 C 
ATOM     25  C   UNL     1      35.250 -17.506 -22.570  0.00  0.00    +0.118 C 
ATOM     26  C   UNL     1      35.050 -16.553 -21.579  0.00  0.00    +0.011 C 
ATOM     27  C   UNL     1      33.469 -14.561 -25.845  0.00  0.00    +0.102 C 
BRANCH  25  28
ATOM     28  O   UNL     1      35.789 -18.715 -22.254  0.00  0.00    -0.476 OA
ATOM     29  C   UNL     1      35.175 -19.443 -21.191  0.00  0.00    +0.252 C 
ENDBRANCH  25  28
ENDBRANCH  17  20
ENDBRANCH  16  17
ENDBRANCH   5  16
TORSDOF 5
ENDMDL
MODEL 4
REMARK VINA RESULT:     -11.1      6.065     10.439
REMARK  Name = 24864821
REMARK  5 active torsions:
REMARK  status: ('A' for Active; 'I' for Inactive)
REMARK    1  A    between atoms: C_5  and  C_16
REMARK    2  A    between atoms: C_7  and  C_10
REMARK    3  A    between atoms: C_16  and  O_17
REMARK    4  A    between atoms: O_17  and  C_20
REMARK    5  A    between atoms: C_25  and  O_28
REMARK                            x       y       z     vdW  Elec       q    Type
REMARK                         _______ _______ _______ _____ _____    ______ ____
ROOT
ATOM      1  N   UNL     1      34.122 -16.531 -23.808  0.00  0.00    -0.191 N 
ATOM      2  N   UNL     1      34.684 -17.113 -22.719  0.00  0.00    -0.163 NA
ATOM      3  N   UNL     1      33.407 -15.008 -25.211  0.00  0.00    -0.128 NA
ATOM      4  N   UNL     1      33.125 -16.250 -25.743  0.00  0.00    -0.127 NA
ATOM      5  C   UNL     1      34.001 -15.195 -24.055  0.00  0.00    +0.208 A 
ATOM      6  C   UNL     1      33.558 -17.157 -24.895  0.00  0.00    +0.186 A 
ATOM      7  C   UNL     1      34.670 -18.416 -22.753  0.00  0.00    +0.101 C 
ATOM      8  C   UNL     1      33.541 -18.566 -24.895  0.00  0.00    +0.042 C 
ATOM      9  C   UNL     1      34.075 -19.229 -23.861  0.00  0.00    +0.024 C 
ENDROOT
BRANCH   7  10
ATOM     10  C   UNL     1      35.261 -19.171 -21.617  0.00  0.00    +0.019 C 
ATOM     11  C   UNL     1      36.568 -18.906 -21.208  0.00  0.00    +0.002 C 
ATOM     12  C   UNL     1      34.508 -20.143 -20.959  0.00  0.00    +0.002 C 
ATOM     13  C   UNL     1      37.122 -19.614 -20.142  0.00  0.00    +0.000 C 
ATOM     14  C   UNL     1      35.062 -20.851 -19.892  0.00  0.00    +0.000 C 
ATOM     15  C   UNL     1      36.369 -20.587 -19.483  0.00  0.00    +0.000 C 
ENDBRANCH   7  10
BRANCH   5  16
ATOM     16  C   UNL     1      34.495 -14.138 -23.110  0.00  0.00    +0.272 C 
BRANCH  16  17
ATOM     17  O   UNL     1      33.758 -12.937 -23.331  0.00  0.00    -0.467 OA
BRANCH  17  20
ATOM     18  N   UNL     1      31.435 -11.623 -20.159  0.00  0.00    -0.248 NA
ATOM     19  C   UNL     1      32.608 -11.138 -22.206  0.00  0.00    +0.030 C 
ATOM     20  C   UNL     1      32.995 -12.482 -22.297  0.00  0.00    +0.138 C 
ATOM     21  C   UNL     1      31.818 -10.746 -21.105  0.00  0.00    +0.066 C 
ATOM     22  C   UNL     1      32.990 -10.195 -23.176  0.00  0.00    +0.059 C 
ATOM     23  C   UNL     1      31.436  -9.411 -21.016  0.00  0.00    +0.109 C 
ATOM     24  C   UNL     1      32.601 -13.388 -21.322  0.00  0.00    +0.057 C 
ATOM     25  C   UNL     1      31.815  -8.474 -21.980  0.00  0.00    +0.118 C 
ATOM     26  C   UNL     1      32.594  -8.867 -23.062  0.00  0.00    +0.011 C 
ATOM     27  C   UNL     1      31.828 -12.911 -20.282  0.00  0.00    +0.102 C 
BRANCH  25  28
ATOM     28  O   UNL     1      31.420  -7.177 -21.860  0.00  0.00    -0.476 OA
ATOM     29  C   UNL     1      31.823  -6.482 -20.680  0.00  0.00    +0.252 C 
ENDBRANCH  25  28
ENDBRANCH  17  20
ENDBRANCH  16  17
ENDBRANCH   5  16
TORSDOF 5
ENDMDL
MODEL 5
REMARK VINA RESULT:     -11.1      4.605     10.434
REMARK  Name = 24864821
REMARK  5 active torsions:
REMARK  status: ('A' for Active; 'I' for Inactive)
REMARK    1  A    between atoms: C_5  and  C_16
REMARK    2  A    between atoms: C_7  and  C_10
REMARK    3  A    between atoms: C_16  and  O_17
REMARK    4  A    between atoms: O_17  and  C_20
REMARK    5  A    between atoms: C_25  and  O_28
REMARK                            x       y       z     vdW  Elec       q    Type
REMARK                         _______ _______ _______ _____ _____    ______ ____
ROOT
ATOM      1  N   UNL     1      33.941 -15.108 -23.849  0.00  0.00    -0.191 N 
ATOM      2  N   UNL     1      33.575 -14.238 -22.875  0.00  0.00    -0.163 NA
ATOM      3  N   UNL     1      34.760 -16.874 -24.855  0.00  0.00    -0.128 NA
ATOM      4  N   UNL     1      34.243 -16.032 -25.817  0.00  0.00    -0.127 NA
ATOM      5  C   UNL     1      34.572 -16.307 -23.685  0.00  0.00    +0.208 A 
ATOM      6  C   UNL     1      33.753 -14.976 -25.205  0.00  0.00    +0.186 A 
ATOM      7  C   UNL     1      32.977 -13.170 -23.321  0.00  0.00    +0.101 C 
ATOM      8  C   UNL     1      33.120 -13.802 -25.659  0.00  0.00    +0.042 C 
ATOM      9  C   UNL     1      32.722 -12.884 -24.770  0.00  0.00    +0.024 C 
ENDROOT
BRANCH   7  10
ATOM     10  C   UNL     1      32.523 -12.141 -22.350  0.00  0.00    +0.019 C 
ATOM     11  C   UNL     1      32.623 -10.787 -22.669  0.00  0.00    +0.002 C 
ATOM     12  C   UNL     1      31.994 -12.529 -21.119  0.00  0.00    +0.002 C 
ATOM     13  C   UNL     1      32.195  -9.822 -21.758  0.00  0.00    +0.000 C 
ATOM     14  C   UNL     1      31.566 -11.565 -20.207  0.00  0.00    +0.000 C 
ATOM     15  C   UNL     1      31.667 -10.210 -20.526  0.00  0.00    +0.000 C 
ENDBRANCH   7  10
BRANCH   5  16
ATOM     16  C   UNL     1      34.967 -16.849 -22.343  0.00  0.00    +0.272 C 
BRANCH  16  17
ATOM     17  O   UNL     1      34.564 -18.215 -22.256  0.00  0.00    -0.467 OA
BRANCH  17  20
ATOM     18  N   UNL     1      36.689 -20.583 -19.598  0.00  0.00    -0.248 NA
ATOM     19  C   UNL     1      34.581 -19.949 -20.578  0.00  0.00    +0.030 C 
ATOM     20  C   UNL     1      35.242 -19.004 -21.375  0.00  0.00    +0.138 C 
ATOM     21  C   UNL     1      35.354 -20.727 -19.691  0.00  0.00    +0.066 C 
ATOM     22  C   UNL     1      33.189 -20.126 -20.648  0.00  0.00    +0.059 C 
ATOM     23  C   UNL     1      34.696 -21.664 -18.899  0.00  0.00    +0.109 C 
ATOM     24  C   UNL     1      36.618 -18.853 -21.282  0.00  0.00    +0.057 C 
ATOM     25  C   UNL     1      33.312 -21.841 -18.969  0.00  0.00    +0.118 C 
ATOM     26  C   UNL     1      32.557 -21.071 -19.845  0.00  0.00    +0.011 C 
ATOM     27  C   UNL     1      37.289 -19.661 -20.385  0.00  0.00    +0.102 C 
BRANCH  25  28
ATOM     28  O   UNL     1      32.705 -22.769 -18.180  0.00  0.00    -0.476 OA
ATOM     29  C   UNL     1      33.382 -23.145 -16.981  0.00  0.00    +0.252 C 
ENDBRANCH  25  28
ENDBRANCH  17  20
ENDBRANCH  16  17
ENDBRANCH   5  16
TORSDOF 5
ENDMDL
MODEL 6
REMARK VINA RESULT:     -10.9      6.590     11.062
REMARK  Name = 24864821
REMARK  5 active torsions:
REMARK  status: ('A' for Active; 'I' for Inactive)
REMARK    1  A    between atoms: C_5  and  C_16
REMARK    2  A    between atoms: C_7  and  C_10
REMARK    3  A    between atoms: C_16  and  O_17
REMARK    4  A    between atoms: O_17  and  C_20
REMARK    5  A    between atoms: C_25  and  O_28
REMARK                            x       y       z     vdW  Elec       q    Type
REMARK                         _______ _______ _______ _____ _____    ______ ____
ROOT
ATOM      1  N   UNL     1      34.060 -15.859 -23.907  0.00  0.00    -0.191 N 
ATOM      2  N   UNL     1      34.619 -16.517 -22.861  0.00  0.00    -0.163 NA
ATOM      3  N   UNL     1      33.326 -14.240 -25.189  0.00  0.00    -0.128 NA
ATOM      4  N   UNL     1      33.092 -15.438 -25.832  0.00  0.00    -0.127 NA
ATOM      5  C   UNL     1      33.904 -14.511 -24.041  0.00  0.00    +0.208 A 
ATOM      6  C   UNL     1      33.535 -16.404 -25.056  0.00  0.00    +0.186 A 
ATOM      7  C   UNL     1      34.644 -17.813 -23.007  0.00  0.00    +0.101 C 
ATOM      8  C   UNL     1      33.560 -17.807 -25.178  0.00  0.00    +0.042 C 
ATOM      9  C   UNL     1      34.094 -18.543 -24.195  0.00  0.00    +0.024 C 
ENDROOT
BRANCH   7  10
ATOM     10  C   UNL     1      35.236 -18.647 -21.929  0.00  0.00    +0.019 C 
ATOM     11  C   UNL     1      34.479 -19.652 -21.329  0.00  0.00    +0.002 C 
ATOM     12  C   UNL     1      36.550 -18.424 -21.518  0.00  0.00    +0.002 C 
ATOM     13  C   UNL     1      35.036 -20.436 -20.319  0.00  0.00    +0.000 C 
ATOM     14  C   UNL     1      37.108 -19.208 -20.508  0.00  0.00    +0.000 C 
ATOM     15  C   UNL     1      36.351 -20.214 -19.907  0.00  0.00    +0.000 C 
ENDBRANCH   7  10
BRANCH   5  16
ATOM     16  C   UNL     1      34.348 -13.527 -22.998  0.00  0.00    +0.272 C 
BRANCH  16  17
ATOM     17  O   UNL     1      33.850 -12.234 -23.337  0.00  0.00    -0.467 OA
BRANCH  17  20
ATOM     18  N   UNL     1      31.144 -10.573 -20.670  0.00  0.00    -0.248 NA
ATOM     19  C   UNL     1      32.804 -10.276 -22.390  0.00  0.00    +0.030 C 
ATOM     20  C   UNL     1      32.966 -11.666 -22.467  0.00  0.00    +0.138 C 
ATOM     21  C   UNL     1      31.870  -9.766 -21.465  0.00  0.00    +0.066 C 
ATOM     22  C   UNL     1      33.545  -9.402 -23.205  0.00  0.00    +0.059 C 
ATOM     23  C   UNL     1      31.710  -8.385 -21.389  0.00  0.00    +0.109 C 
ATOM     24  C   UNL     1      32.219 -12.501 -21.649  0.00  0.00    +0.057 C 
ATOM     25  C   UNL     1      32.446  -7.516 -22.198  0.00  0.00    +0.118 C 
ATOM     26  C   UNL     1      33.365  -8.026 -23.108  0.00  0.00    +0.011 C 
ATOM     27  C   UNL     1      31.329 -11.909 -20.775  0.00  0.00    +0.102 C 
BRANCH  25  28
ATOM     28  O   UNL     1      32.261  -6.172 -22.097  0.00  0.00    -0.476 OA
ATOM     29  C   UNL     1      31.860  -5.480 -23.279  0.00  0.00    +0.252 C 
ENDBRANCH  25  28
ENDBRANCH  17  20
ENDBRANCH  16  17
ENDBRANCH   5  16
TORSDOF 5
ENDMDL
MODEL 7
REMARK VINA RESULT:     -10.9      1.846      4.274
REMARK  Name = 24864821
REMARK  5 active torsions:
REMARK  status: ('A' for Active; 'I' for Inactive)
REMARK    1  A    between atoms: C_5  and  C_16
REMARK    2  A    between atoms: C_7  and  C_10
REMARK    3  A    between atoms: C_16  and  O_17
REMARK    4  A    between atoms: O_17  and  C_20
REMARK    5  A    between atoms: C_25  and  O_28
REMARK                            x       y       z     vdW  Elec       q    Type
REMARK                         _______ _______ _______ _____ _____    ______ ____
ROOT
ATOM      1  N   UNL     1      33.550 -23.404 -16.474  0.00  0.00    -0.191 N 
ATOM      2  N   UNL     1      34.730 -23.910 -16.036  0.00  0.00    -0.163 NA
ATOM      3  N   UNL     1      32.023 -22.528 -17.779  0.00  0.00    -0.128 NA
ATOM      4  N   UNL     1      31.461 -22.732 -16.535  0.00  0.00    -0.127 NA
ATOM      5  C   UNL     1      33.271 -22.934 -17.724  0.00  0.00    +0.208 A 
ATOM      6  C   UNL     1      32.384 -23.259 -15.759  0.00  0.00    +0.186 A 
ATOM      7  C   UNL     1      34.707 -24.294 -14.790  0.00  0.00    +0.101 C 
ATOM      8  C   UNL     1      32.395 -23.665 -14.411  0.00  0.00    +0.042 C 
ATOM      9  C   UNL     1      33.516 -24.180 -13.889  0.00  0.00    +0.024 C 
ENDROOT
BRANCH   7  10
ATOM     10  C   UNL     1      35.940 -24.872 -14.193  0.00  0.00    +0.019 C 
ATOM     11  C   UNL     1      36.409 -26.113 -14.624  0.00  0.00    +0.002 C 
ATOM     12  C   UNL     1      36.630 -24.171 -13.204  0.00  0.00    +0.002 C 
ATOM     13  C   UNL     1      37.566 -26.653 -14.066  0.00  0.00    +0.000 C 
ATOM     14  C   UNL     1      37.788 -24.712 -12.645  0.00  0.00    +0.000 C 
ATOM     15  C   UNL     1      38.257 -25.953 -13.075  0.00  0.00    +0.000 C 
ENDBRANCH   7  10
BRANCH   5  16
ATOM     16  C   UNL     1      34.280 -22.910 -18.835  0.00  0.00    +0.272 C 
BRANCH  16  17
ATOM     17  O   UNL     1      34.052 -21.758 -19.644  0.00  0.00    -0.467 OA
BRANCH  17  20
ATOM     18  N   UNL     1      37.297 -19.228 -20.154  0.00  0.00    -0.248 NA
ATOM     19  C   UNL     1      35.107 -19.952 -20.849  0.00  0.00    +0.030 C 
ATOM     20  C   UNL     1      35.108 -20.915 -19.831  0.00  0.00    +0.138 C 
ATOM     21  C   UNL     1      36.237 -19.118 -20.976  0.00  0.00    +0.066 C 
ATOM     22  C   UNL     1      34.018 -19.810 -21.726  0.00  0.00    +0.059 C 
ATOM     23  C   UNL     1      36.235 -18.162 -21.988  0.00  0.00    +0.109 C 
ATOM     24  C   UNL     1      36.199 -21.031 -18.981  0.00  0.00    +0.057 C 
ATOM     25  C   UNL     1      35.153 -18.020 -22.860  0.00  0.00    +0.118 C 
ATOM     26  C   UNL     1      34.043 -18.846 -22.729  0.00  0.00    +0.011 C 
ATOM     27  C   UNL     1      37.259 -20.169 -19.183  0.00  0.00    +0.102 C 
BRANCH  25  28
ATOM     28  O   UNL     1      35.186 -17.073 -23.836  0.00  0.00    -0.476 OA
ATOM     29  C   UNL     1      34.957 -15.721 -23.438  0.00  0.00    +0.252 C 
ENDBRANCH  25  28
ENDBRANCH  17  20
ENDBRANCH  16  17
ENDBRANCH   5  16
TORSDOF 5
ENDMDL
MODEL 8
REMARK VINA RESULT:     -10.7      2.960      8.512
REMARK  Name = 24864821
REMARK  5 active torsions:
REMARK  status: ('A' for Active; 'I' for Inactive)
REMARK    1  A    between atoms: C_5  and  C_16
REMARK    2  A    between atoms: C_7  and  C_10
REMARK    3  A    between atoms: C_16  and  O_17
REMARK    4  A    between atoms: O_17  and  C_20
REMARK    5  A    between atoms: C_25  and  O_28
REMARK                            x       y       z     vdW  Elec       q    Type
REMARK                         _______ _______ _______ _____ _____    ______ ____
ROOT
ATOM      1  N   UNL     1      35.317 -22.116 -17.775  0.00  0.00    -0.191 N 
ATOM      2  N   UNL     1      35.771 -21.271 -18.734  0.00  0.00    -0.163 NA
ATOM      3  N   UNL     1      35.261 -23.431 -16.023  0.00  0.00    -0.128 NA
ATOM      4  N   UNL     1      33.995 -23.387 -16.568  0.00  0.00    -0.127 NA
ATOM      5  C   UNL     1      36.038 -22.667 -16.757  0.00  0.00    +0.208 A 
ATOM      6  C   UNL     1      34.037 -22.595 -17.618  0.00  0.00    +0.186 A 
ATOM      7  C   UNL     1      34.854 -20.892 -19.579  0.00  0.00    +0.101 C 
ATOM      8  C   UNL     1      33.072 -22.183 -18.557  0.00  0.00    +0.042 C 
ATOM      9  C   UNL     1      33.427 -21.347 -19.541  0.00  0.00    +0.024 C 
ENDROOT
BRANCH   7  10
ATOM     10  C   UNL     1      35.227 -19.961 -20.676  0.00  0.00    +0.019 C 
ATOM     11  C   UNL     1      36.496 -19.385 -20.700  0.00  0.00    +0.002 C 
ATOM     12  C   UNL     1      34.307 -19.665 -21.682  0.00  0.00    +0.002 C 
ATOM     13  C   UNL     1      36.846 -18.513 -21.730  0.00  0.00    +0.000 C 
ATOM     14  C   UNL     1      34.657 -18.793 -22.712  0.00  0.00    +0.000 C 
ATOM     15  C   UNL     1      35.927 -18.216 -22.737  0.00  0.00    +0.000 C 
ENDBRANCH   7  10
BRANCH   5  16
ATOM     16  C   UNL     1      37.501 -22.403 -16.551  0.00  0.00    +0.272 C 
BRANCH  16  17
ATOM     17  O   UNL     1      37.780 -22.393 -15.152  0.00  0.00    -0.467 OA
BRANCH  17  20
ATOM     18  N   UNL     1      38.644 -26.061 -13.424  0.00  0.00    -0.248 NA
ATOM     19  C   UNL     1      37.333 -24.040 -13.446  0.00  0.00    +0.030 C 
ATOM     20  C   UNL     1      38.047 -23.595 -14.568  0.00  0.00    +0.138 C 
ATOM     21  C   UNL     1      37.669 -25.296 -12.899  0.00  0.00    +0.066 C 
ATOM     22  C   UNL     1      36.308 -23.268 -12.872  0.00  0.00    +0.059 C 
ATOM     23  C   UNL     1      36.959 -25.737 -11.786  0.00  0.00    +0.109 C 
ATOM     24  C   UNL     1      39.053 -24.382 -15.111  0.00  0.00    +0.057 C 
ATOM     25  C   UNL     1      35.941 -24.969 -11.215  0.00  0.00    +0.118 C 
ATOM     26  C   UNL     1      35.615 -23.733 -11.759  0.00  0.00    +0.011 C 
ATOM     27  C   UNL     1      39.309 -25.597 -14.506  0.00  0.00    +0.102 C 
BRANCH  25  28
ATOM     28  O   UNL     1      35.268 -25.434 -10.127  0.00  0.00    -0.476 OA
ATOM     29  C   UNL     1      35.239 -24.593  -8.974  0.00  0.00    +0.252 C 
ENDBRANCH  25  28
ENDBRANCH  17  20
ENDBRANCH  16  17
ENDBRANCH   5  16
TORSDOF 5
ENDMDL
MODEL 9
REMARK VINA RESULT:     -10.6      2.787      6.768
REMARK  Name = 24864821
REMARK  5 active torsions:
REMARK  status: ('A' for Active; 'I' for Inactive)
REMARK    1  A    between atoms: C_5  and  C_16
REMARK    2  A    between atoms: C_7  and  C_10
REMARK    3  A    between atoms: C_16  and  O_17
REMARK    4  A    between atoms: O_17  and  C_20
REMARK    5  A    between atoms: C_25  and  O_28
REMARK                            x       y       z     vdW  Elec       q    Type
REMARK                         _______ _______ _______ _____ _____    ______ ____
ROOT
ATOM      1  N   UNL     1      36.097 -23.412 -15.558  0.00  0.00    -0.191 N 
ATOM      2  N   UNL     1      35.296 -22.955 -16.553  0.00  0.00    -0.163 NA
ATOM      3  N   UNL     1      36.794 -24.498 -13.787  0.00  0.00    -0.128 NA
ATOM      4  N   UNL     1      37.846 -23.750 -14.275  0.00  0.00    -0.127 NA
ATOM      5  C   UNL     1      35.758 -24.283 -14.565  0.00  0.00    +0.208 A 
ATOM      6  C   UNL     1      37.419 -23.103 -15.338  0.00  0.00    +0.186 A 
ATOM      7  C   UNL     1      35.892 -22.134 -17.373  0.00  0.00    +0.101 C 
ATOM      8  C   UNL     1      38.030 -22.199 -16.229  0.00  0.00    +0.042 C 
ATOM      9  C   UNL     1      37.318 -21.695 -17.245  0.00  0.00    +0.024 C 
ENDROOT
BRANCH   7  10
ATOM     10  C   UNL     1      35.120 -21.567 -18.509  0.00  0.00    +0.019 C 
ATOM     11  C   UNL     1      33.739 -21.754 -18.577  0.00  0.00    +0.002 C 
ATOM     12  C   UNL     1      35.776 -20.846 -19.506  0.00  0.00    +0.002 C 
ATOM     13  C   UNL     1      33.015 -21.220 -19.643  0.00  0.00    +0.000 C 
ATOM     14  C   UNL     1      35.052 -20.311 -20.572  0.00  0.00    +0.000 C 
ATOM     15  C   UNL     1      33.671 -20.498 -20.641  0.00  0.00    +0.000 C 
ENDBRANCH   7  10
BRANCH   5  16
ATOM     16  C   UNL     1      34.387 -24.880 -14.431  0.00  0.00    +0.272 C 
BRANCH  16  17
ATOM     17  O   UNL     1      33.433 -23.828 -14.302  0.00  0.00    -0.467 OA
BRANCH  17  20
ATOM     18  N   UNL     1      29.539 -24.972 -13.453  0.00  0.00    -0.248 NA
ATOM     19  C   UNL     1      31.082 -23.748 -14.841  0.00  0.00    +0.030 C 
ATOM     20  C   UNL     1      32.144 -24.191 -14.042  0.00  0.00    +0.138 C 
ATOM     21  C   UNL     1      29.778 -24.168 -14.506  0.00  0.00    +0.066 C 
ATOM     22  C   UNL     1      31.294 -22.908 -15.948  0.00  0.00    +0.059 C 
ATOM     23  C   UNL     1      28.723 -23.727 -15.300  0.00  0.00    +0.109 C 
ATOM     24  C   UNL     1      31.902 -25.020 -12.956  0.00  0.00    +0.057 C 
ATOM     25  C   UNL     1      28.933 -22.893 -16.401  0.00  0.00    +0.118 C 
ATOM     26  C   UNL     1      30.221 -22.482 -16.725  0.00  0.00    +0.011 C 
ATOM     27  C   UNL     1      30.592 -25.378 -12.707  0.00  0.00    +0.102 C 
BRANCH  25  28
ATOM     28  O   UNL     1      27.877 -22.484 -17.155  0.00  0.00    -0.476 OA
ATOM     29  C   UNL     1      26.704 -22.066 -16.457  0.00  0.00    +0.252 C 
ENDBRANCH  25  28
ENDBRANCH  17  20
ENDBRANCH  16  17
ENDBRANCH   5  16
TORSDOF 5
ENDMDL
