MODEL 1
REMARK VINA RESULT:     -11.8      0.000      0.000
REMARK  Name = 24941243
REMARK  5 active torsions:
REMARK  status: ('A' for Active; 'I' for Inactive)
REMARK    1  A    between atoms: N_1  and  C_14
REMARK    2  A    between atoms: N_2  and  C_22
REMARK    3  A    between atoms: C_25  and  O_28
REMARK    4  A    between atoms: C_26  and  O_30
REMARK    5  A    between atoms: C_27  and  O_32
REMARK                            x       y       z     vdW  Elec       q    Type
REMARK                         _______ _______ _______ _____ _____    ______ ____
ROOT
ATOM      1  N   UNL     1      36.038 -18.867 -21.824  0.00  0.00    -0.260 N 
ATOM      2  N   UNL     1      36.484 -21.455 -17.891  0.00  0.00    -0.247 N 
ATOM      3  N   UNL     1      36.284 -20.165 -19.841  0.00  0.00    -0.322 NA
ATOM      4  N   UNL     1      34.390 -21.359 -18.947  0.00  0.00    -0.170 NA
ATOM      5  C   UNL     1      35.486 -19.720 -20.834  0.00  0.00    +0.201 C 
ATOM      6  C   UNL     1      37.498 -18.825 -21.956  0.00  0.00    +0.120 C 
ATOM      7  C   UNL     1      34.150 -20.045 -20.950  0.00  0.00    +0.070 C 
ATOM      8  C   UNL     1      35.680 -20.968 -18.945  0.00  0.00    +0.150 C 
ATOM      9  C   UNL     1      33.651 -20.876 -19.968  0.00  0.00    +0.116 C 
ATOM     10  H   UNL     1      37.418 -21.144 -17.930  0.00  0.00    +0.165 HD
ENDROOT
BRANCH   1  14
ATOM     11  N   UNL     1      32.874 -15.856 -25.604  0.00  0.00    -0.280 N 
ATOM     12  N   UNL     1      33.239 -17.145 -25.465  0.00  0.00    -0.173 NA
ATOM     13  C   UNL     1      34.071 -15.833 -23.808  0.00  0.00    +0.032 A 
ATOM     14  C   UNL     1      35.342 -17.861 -22.545  0.00  0.00    +0.055 C 
ATOM     15  C   UNL     1      33.989 -17.169 -24.350  0.00  0.00    +0.103 A 
ATOM     16  C   UNL     1      33.348 -15.021 -24.634  0.00  0.00    +0.053 A 
ATOM     17  C   UNL     1      34.641 -18.240 -23.711  0.00  0.00    +0.036 C 
ATOM     18  C   UNL     1      34.750 -15.428 -22.665  0.00  0.00    +0.004 C 
ATOM     19  C   UNL     1      35.391 -16.520 -22.048  0.00  0.00    +0.015 C 
ATOM     20  C   UNL     1      33.048 -13.579 -24.631  0.00  0.00    +0.051 C 
ATOM     21  H   UNL     1      32.310 -15.540 -26.347  0.00  0.00    +0.189 HD
ENDBRANCH   1  14
BRANCH   2  22
ATOM     22  C   UNL     1      36.213 -22.296 -16.796  0.00  0.00    +0.064 C 
ATOM     23  C   UNL     1      37.246 -22.684 -15.943  0.00  0.00    +0.055 C 
ATOM     24  C   UNL     1      34.911 -22.739 -16.562  0.00  0.00    +0.055 C 
ATOM     25  C   UNL     1      34.642 -23.570 -15.475  0.00  0.00    +0.177 C 
ATOM     26  C   UNL     1      36.976 -23.516 -14.856  0.00  0.00    +0.177 C 
ATOM     27  C   UNL     1      35.675 -23.959 -14.622  0.00  0.00    +0.206 C 
BRANCH  25  28
ATOM     28  O   UNL     1      33.366 -23.996 -15.258  0.00  0.00    -0.468 OA
ATOM     29  C   UNL     1      32.331 -23.336 -15.983  0.00  0.00    +0.253 C 
ENDBRANCH  25  28
BRANCH  26  30
ATOM     30  O   UNL     1      37.995 -23.888 -14.031  0.00  0.00    -0.468 OA
ATOM     31  C   UNL     1      38.784 -25.004 -14.437  0.00  0.00    +0.253 C 
ENDBRANCH  26  30
BRANCH  27  32
ATOM     32  O   UNL     1      35.412 -24.773 -13.560  0.00  0.00    -0.465 OA
ATOM     33  C   UNL     1      35.046 -24.141 -12.335  0.00  0.00    +0.253 C 
ENDBRANCH  27  32
ENDBRANCH   2  22
TORSDOF 5
ENDMDL
MODEL 2
REMARK VINA RESULT:     -11.7      0.055      2.293
REMARK  Name = 24941243
REMARK  5 active torsions:
REMARK  status: ('A' for Active; 'I' for Inactive)
REMARK    1  A    between atoms: N_1  and  C_14
REMARK    2  A    between atoms: N_2  and  C_22
REMARK    3  A    between atoms: C_25  and  O_28
REMARK    4  A    between atoms: C_26  and  O_30
REMARK    5  A    between atoms: C_27  and  O_32
REMARK                            x       y       z     vdW  Elec       q    Type
REMARK                         _______ _______ _______ _____ _____    ______ ____
ROOT
ATOM      1  N   UNL     1      36.056 -18.863 -21.870  0.00  0.00    -0.260 N 
ATOM      2  N   UNL     1      36.503 -21.429 -17.923  0.00  0.00    -0.247 N 
ATOM      3  N   UNL     1      36.303 -20.150 -19.879  0.00  0.00    -0.322 NA
ATOM      4  N   UNL     1      34.411 -21.347 -18.984  0.00  0.00    -0.170 NA
ATOM      5  C   UNL     1      35.506 -19.713 -20.877  0.00  0.00    +0.201 C 
ATOM      6  C   UNL     1      37.517 -18.816 -21.998  0.00  0.00    +0.120 C 
ATOM      7  C   UNL     1      34.171 -20.044 -20.995  0.00  0.00    +0.070 C 
ATOM      8  C   UNL     1      35.699 -20.952 -18.982  0.00  0.00    +0.150 C 
ATOM      9  C   UNL     1      33.673 -20.873 -20.010  0.00  0.00    +0.116 C 
ATOM     10  H   UNL     1      37.436 -21.115 -17.961  0.00  0.00    +0.165 HD
ENDROOT
BRANCH   1  14
ATOM     11  N   UNL     1      32.879 -15.886 -25.666  0.00  0.00    -0.280 N 
ATOM     12  N   UNL     1      33.244 -17.174 -25.516  0.00  0.00    -0.173 NA
ATOM     13  C   UNL     1      34.083 -15.847 -23.875  0.00  0.00    +0.032 A 
ATOM     14  C   UNL     1      35.358 -17.864 -22.598  0.00  0.00    +0.055 C 
ATOM     15  C   UNL     1      33.999 -17.188 -24.404  0.00  0.00    +0.103 A 
ATOM     16  C   UNL     1      33.357 -15.042 -24.706  0.00  0.00    +0.053 A 
ATOM     17  C   UNL     1      34.652 -18.253 -23.758  0.00  0.00    +0.036 C 
ATOM     18  C   UNL     1      34.767 -15.432 -22.739  0.00  0.00    +0.004 C 
ATOM     19  C   UNL     1      35.410 -16.518 -22.114  0.00  0.00    +0.015 C 
ATOM     20  C   UNL     1      33.059 -13.601 -24.716  0.00  0.00    +0.051 C 
ATOM     21  H   UNL     1      32.313 -15.578 -26.410  0.00  0.00    +0.189 HD
ENDBRANCH   1  14
BRANCH   2  22
ATOM     22  C   UNL     1      36.233 -22.266 -16.824  0.00  0.00    +0.064 C 
ATOM     23  C   UNL     1      34.933 -22.715 -16.594  0.00  0.00    +0.055 C 
ATOM     24  C   UNL     1      37.266 -22.648 -15.967  0.00  0.00    +0.055 C 
ATOM     25  C   UNL     1      36.998 -23.479 -14.881  0.00  0.00    +0.177 C 
ATOM     26  C   UNL     1      34.666 -23.547 -15.506  0.00  0.00    +0.177 C 
ATOM     27  C   UNL     1      35.698 -23.930 -14.650  0.00  0.00    +0.206 C 
BRANCH  25  28
ATOM     28  O   UNL     1      38.015 -23.846 -14.051  0.00  0.00    -0.468 OA
ATOM     29  C   UNL     1      38.803 -24.966 -14.447  0.00  0.00    +0.253 C 
ENDBRANCH  25  28
BRANCH  26  30
ATOM     30  O   UNL     1      33.391 -23.979 -15.292  0.00  0.00    -0.468 OA
ATOM     31  C   UNL     1      32.347 -23.273 -15.959  0.00  0.00    +0.253 C 
ENDBRANCH  26  30
BRANCH  27  32
ATOM     32  O   UNL     1      35.436 -24.741 -13.586  0.00  0.00    -0.465 OA
ATOM     33  C   UNL     1      35.060 -24.108 -12.365  0.00  0.00    +0.253 C 
ENDBRANCH  27  32
ENDBRANCH   2  22
TORSDOF 5
ENDMDL
MODEL 3
REMARK VINA RESULT:     -11.5      0.940      2.654
REMARK  Name = 24941243
REMARK  5 active torsions:
REMARK  status: ('A' for Active; 'I' for Inactive)
REMARK    1  A    between atoms: N_1  and  C_14
REMARK    2  A    between atoms: N_2  and  C_22
REMARK    3  A    between atoms: C_25  and  O_28
REMARK    4  A    between atoms: C_26  and  O_30
REMARK    5  A    between atoms: C_27  and  O_32
REMARK                            x       y       z     vdW  Elec       q    Type
REMARK                         _______ _______ _______ _____ _____    ______ ____
ROOT
ATOM      1  N   UNL     1      36.073 -18.754 -21.858  0.00  0.00    -0.260 N 
ATOM      2  N   UNL     1      36.508 -21.422 -17.978  0.00  0.00    -0.247 N 
ATOM      3  N   UNL     1      36.314 -20.093 -19.902  0.00  0.00    -0.322 NA
ATOM      4  N   UNL     1      34.393 -21.214 -18.973  0.00  0.00    -0.170 NA
ATOM      5  C   UNL     1      35.510 -19.597 -20.866  0.00  0.00    +0.201 C 
ATOM      6  C   UNL     1      37.530 -18.777 -22.030  0.00  0.00    +0.120 C 
ATOM      7  C   UNL     1      34.158 -19.859 -20.949  0.00  0.00    +0.070 C 
ATOM      8  C   UNL     1      35.698 -20.883 -19.002  0.00  0.00    +0.150 C 
ATOM      9  C   UNL     1      33.649 -20.683 -19.966  0.00  0.00    +0.116 C 
ATOM     10  H   UNL     1      37.454 -21.153 -18.039  0.00  0.00    +0.165 HD
ENDROOT
BRANCH   1  14
ATOM     11  N   UNL     1      33.548 -13.803 -23.434  0.00  0.00    -0.280 N 
ATOM     12  N   UNL     1      34.153 -14.265 -22.322  0.00  0.00    -0.173 NA
ATOM     13  C   UNL     1      34.117 -15.811 -23.985  0.00  0.00    +0.032 A 
ATOM     14  C   UNL     1      35.404 -17.706 -22.545  0.00  0.00    +0.055 C 
ATOM     15  C   UNL     1      34.523 -15.520 -22.631  0.00  0.00    +0.103 A 
ATOM     16  C   UNL     1      33.498 -14.693 -24.467  0.00  0.00    +0.053 A 
ATOM     17  C   UNL     1      35.194 -16.488 -21.862  0.00  0.00    +0.036 C 
ATOM     18  C   UNL     1      34.310 -16.996 -24.685  0.00  0.00    +0.004 C 
ATOM     19  C   UNL     1      34.983 -17.945 -23.891  0.00  0.00    +0.015 C 
ATOM     20  C   UNL     1      32.871 -14.357 -25.756  0.00  0.00    +0.051 C 
ATOM     21  H   UNL     1      33.172 -12.896 -23.496  0.00  0.00    +0.189 HD
ENDBRANCH   1  14
BRANCH   2  22
ATOM     22  C   UNL     1      36.229 -22.267 -16.889  0.00  0.00    +0.064 C 
ATOM     23  C   UNL     1      34.930 -22.728 -16.679  0.00  0.00    +0.055 C 
ATOM     24  C   UNL     1      37.253 -22.647 -16.019  0.00  0.00    +0.055 C 
ATOM     25  C   UNL     1      36.976 -23.488 -14.942  0.00  0.00    +0.177 C 
ATOM     26  C   UNL     1      34.653 -23.568 -15.600  0.00  0.00    +0.177 C 
ATOM     27  C   UNL     1      35.677 -23.948 -14.732  0.00  0.00    +0.206 C 
BRANCH  25  28
ATOM     28  O   UNL     1      37.985 -23.851 -14.101  0.00  0.00    -0.468 OA
ATOM     29  C   UNL     1      38.753 -24.995 -14.468  0.00  0.00    +0.253 C 
ENDBRANCH  25  28
BRANCH  26  30
ATOM     30  O   UNL     1      33.379 -24.010 -15.406  0.00  0.00    -0.468 OA
ATOM     31  C   UNL     1      32.348 -23.359 -16.144  0.00  0.00    +0.253 C 
ENDBRANCH  26  30
BRANCH  27  32
ATOM     32  O   UNL     1      35.406 -24.769 -13.677  0.00  0.00    -0.465 OA
ATOM     33  C   UNL     1      35.059 -24.144 -12.443  0.00  0.00    +0.253 C 
ENDBRANCH  27  32
ENDBRANCH   2  22
TORSDOF 5
ENDMDL
MODEL 4
REMARK VINA RESULT:     -10.5      1.266      1.626
REMARK  Name = 24941243
REMARK  5 active torsions:
REMARK  status: ('A' for Active; 'I' for Inactive)
REMARK    1  A    between atoms: N_1  and  C_14
REMARK    2  A    between atoms: N_2  and  C_22
REMARK    3  A    between atoms: C_25  and  O_28
REMARK    4  A    between atoms: C_26  and  O_30
REMARK    5  A    between atoms: C_27  and  O_32
REMARK                            x       y       z     vdW  Elec       q    Type
REMARK                         _______ _______ _______ _____ _____    ______ ____
ROOT
ATOM      1  N   UNL     1      35.519 -19.095 -21.549  0.00  0.00    -0.260 N 
ATOM      2  N   UNL     1      35.035 -21.903 -17.775  0.00  0.00    -0.247 N 
ATOM      3  N   UNL     1      35.297 -20.508 -19.643  0.00  0.00    -0.322 NA
ATOM      4  N   UNL     1      33.133 -21.390 -19.051  0.00  0.00    -0.170 NA
ATOM      5  C   UNL     1      34.714 -19.883 -20.688  0.00  0.00    +0.201 C 
ATOM      6  C   UNL     1      36.971 -19.305 -21.512  0.00  0.00    +0.120 C 
ATOM      7  C   UNL     1      33.367 -19.962 -20.975  0.00  0.00    +0.070 C 
ATOM      8  C   UNL     1      34.460 -21.233 -18.878  0.00  0.00    +0.150 C 
ATOM      9  C   UNL     1      32.618 -20.738 -20.114  0.00  0.00    +0.116 C 
ATOM     10  H   UNL     1      36.006 -21.760 -17.687  0.00  0.00    +0.165 HD
ENDROOT
BRANCH   1  14
ATOM     11  N   UNL     1      33.695 -15.361 -25.561  0.00  0.00    -0.280 N 
ATOM     12  N   UNL     1      33.960 -16.682 -25.524  0.00  0.00    -0.173 NA
ATOM     13  C   UNL     1      34.318 -15.677 -23.519  0.00  0.00    +0.032 A 
ATOM     14  C   UNL     1      35.098 -17.949 -22.275  0.00  0.00    +0.055 C 
ATOM     15  C   UNL     1      34.352 -16.915 -24.260  0.00  0.00    +0.103 A 
ATOM     16  C   UNL     1      33.895 -14.706 -24.381  0.00  0.00    +0.053 A 
ATOM     17  C   UNL     1      34.754 -18.111 -23.635  0.00  0.00    +0.036 C 
ATOM     18  C   UNL     1      34.649 -15.485 -22.183  0.00  0.00    +0.004 C 
ATOM     19  C   UNL     1      35.046 -16.697 -21.585  0.00  0.00    +0.015 C 
ATOM     20  C   UNL     1      33.656 -13.260 -24.243  0.00  0.00    +0.051 C 
ATOM     21  H   UNL     1      33.383 -14.905 -26.376  0.00  0.00    +0.189 HD
ENDBRANCH   1  14
BRANCH   2  22
ATOM     22  C   UNL     1      34.493 -22.733 -16.777  0.00  0.00    +0.064 C 
ATOM     23  C   UNL     1      35.326 -23.299 -15.812  0.00  0.00    +0.055 C 
ATOM     24  C   UNL     1      33.121 -22.990 -16.751  0.00  0.00    +0.055 C 
ATOM     25  C   UNL     1      32.585 -23.810 -15.760  0.00  0.00    +0.177 C 
ATOM     26  C   UNL     1      34.789 -24.120 -14.821  0.00  0.00    +0.177 C 
ATOM     27  C   UNL     1      33.418 -24.376 -14.795  0.00  0.00    +0.206 C 
BRANCH  25  28
ATOM     28  O   UNL     1      31.244 -24.052 -15.745  0.00  0.00    -0.468 OA
ATOM     29  C   UNL     1      30.390 -22.998 -16.184  0.00  0.00    +0.253 C 
ENDBRANCH  25  28
BRANCH  26  30
ATOM     30  O   UNL     1      35.615 -24.667 -13.885  0.00  0.00    -0.468 OA
ATOM     31  C   UNL     1      35.964 -23.847 -12.772  0.00  0.00    +0.253 C 
ENDBRANCH  26  30
BRANCH  27  32
ATOM     32  O   UNL     1      32.893 -25.180 -13.827  0.00  0.00    -0.465 OA
ATOM     33  C   UNL     1      32.114 -24.549 -12.813  0.00  0.00    +0.253 C 
ENDBRANCH  27  32
ENDBRANCH   2  22
TORSDOF 5
ENDMDL
MODEL 5
REMARK VINA RESULT:     -10.2      7.275     11.602
REMARK  Name = 24941243
REMARK  5 active torsions:
REMARK  status: ('A' for Active; 'I' for Inactive)
REMARK    1  A    between atoms: N_1  and  C_14
REMARK    2  A    between atoms: N_2  and  C_22
REMARK    3  A    between atoms: C_25  and  O_28
REMARK    4  A    between atoms: C_26  and  O_30
REMARK    5  A    between atoms: C_27  and  O_32
REMARK                            x       y       z     vdW  Elec       q    Type
REMARK                         _______ _______ _______ _____ _____    ______ ____
ROOT
ATOM      1  N   UNL     1      32.527  -8.283 -22.054  0.00  0.00    -0.260 N 
ATOM      2  N   UNL     1      33.044 -12.935 -22.728  0.00  0.00    -0.247 N 
ATOM      3  N   UNL     1      32.772 -10.631 -22.378  0.00  0.00    -0.322 NA
ATOM      4  N   UNL     1      34.358 -11.459 -23.994  0.00  0.00    -0.170 NA
ATOM      5  C   UNL     1      33.146  -9.378 -22.710  0.00  0.00    +0.201 C 
ATOM      6  C   UNL     1      31.819  -8.550 -20.797  0.00  0.00    +0.120 C 
ATOM      7  C   UNL     1      34.104  -9.088 -23.659  0.00  0.00    +0.070 C 
ATOM      8  C   UNL     1      33.409 -11.609 -23.049  0.00  0.00    +0.150 C 
ATOM      9  C   UNL     1      34.683 -10.179 -24.275  0.00  0.00    +0.116 C 
ATOM     10  H   UNL     1      32.348 -12.997 -22.034  0.00  0.00    +0.165 HD
ENDROOT
BRANCH   1  14
ATOM     11  N   UNL     1      30.560  -3.016 -23.377  0.00  0.00    -0.280 N 
ATOM     12  N   UNL     1      30.202  -3.990 -22.518  0.00  0.00    -0.173 NA
ATOM     13  C   UNL     1      32.025  -4.557 -23.748  0.00  0.00    +0.032 A 
ATOM     14  C   UNL     1      32.309  -6.991 -22.603  0.00  0.00    +0.055 C 
ATOM     15  C   UNL     1      31.098  -4.971 -22.722  0.00  0.00    +0.103 A 
ATOM     16  C   UNL     1      31.651  -3.304 -24.144  0.00  0.00    +0.053 A 
ATOM     17  C   UNL     1      31.225  -6.232 -22.110  0.00  0.00    +0.036 C 
ATOM     18  C   UNL     1      33.099  -5.279 -24.253  0.00  0.00    +0.004 C 
ATOM     19  C   UNL     1      33.202  -6.535 -23.623  0.00  0.00    +0.015 C 
ATOM     20  C   UNL     1      32.178  -2.355 -25.138  0.00  0.00    +0.051 C 
ATOM     21  H   UNL     1      30.072  -2.163 -23.447  0.00  0.00    +0.189 HD
ENDBRANCH   1  14
BRANCH   2  22
ATOM     22  C   UNL     1      33.480 -14.185 -23.205  0.00  0.00    +0.064 C 
ATOM     23  C   UNL     1      34.402 -14.928 -22.470  0.00  0.00    +0.055 C 
ATOM     24  C   UNL     1      32.987 -14.682 -24.412  0.00  0.00    +0.055 C 
ATOM     25  C   UNL     1      33.416 -15.922 -24.883  0.00  0.00    +0.177 C 
ATOM     26  C   UNL     1      34.832 -16.169 -22.942  0.00  0.00    +0.177 C 
ATOM     27  C   UNL     1      34.339 -16.666 -24.148  0.00  0.00    +0.206 C 
BRANCH  25  28
ATOM     28  O   UNL     1      32.927 -16.396 -26.063  0.00  0.00    -0.468 OA
ATOM     29  C   UNL     1      31.739 -17.182 -26.002  0.00  0.00    +0.253 C 
ENDBRANCH  25  28
BRANCH  26  30
ATOM     30  O   UNL     1      35.735 -16.885 -22.214  0.00  0.00    -0.468 OA
ATOM     31  C   UNL     1      35.250 -17.540 -21.044  0.00  0.00    +0.253 C 
ENDBRANCH  26  30
BRANCH  27  32
ATOM     32  O   UNL     1      34.760 -17.878 -24.609  0.00  0.00    -0.465 OA
ATOM     33  C   UNL     1      34.087 -19.031 -24.109  0.00  0.00    +0.253 C 
ENDBRANCH  27  32
ENDBRANCH   2  22
TORSDOF 5
ENDMDL
MODEL 6
REMARK VINA RESULT:     -10.2      7.272     11.747
REMARK  Name = 24941243
REMARK  5 active torsions:
REMARK  status: ('A' for Active; 'I' for Inactive)
REMARK    1  A    between atoms: N_1  and  C_14
REMARK    2  A    between atoms: N_2  and  C_22
REMARK    3  A    between atoms: C_25  and  O_28
REMARK    4  A    between atoms: C_26  and  O_30
REMARK    5  A    between atoms: C_27  and  O_32
REMARK                            x       y       z     vdW  Elec       q    Type
REMARK                         _______ _______ _______ _____ _____    ______ ____
ROOT
ATOM      1  N   UNL     1      32.529  -8.284 -22.034  0.00  0.00    -0.260 N 
ATOM      2  N   UNL     1      33.052 -12.937 -22.695  0.00  0.00    -0.247 N 
ATOM      3  N   UNL     1      32.777 -10.632 -22.352  0.00  0.00    -0.322 NA
ATOM      4  N   UNL     1      34.356 -11.462 -23.974  0.00  0.00    -0.170 NA
ATOM      5  C   UNL     1      33.147  -9.379 -22.690  0.00  0.00    +0.201 C 
ATOM      6  C   UNL     1      31.829  -8.548 -20.772  0.00  0.00    +0.120 C 
ATOM      7  C   UNL     1      34.099  -9.091 -23.646  0.00  0.00    +0.070 C 
ATOM      8  C   UNL     1      33.413 -11.611 -23.023  0.00  0.00    +0.150 C 
ATOM      9  C   UNL     1      34.676 -10.183 -24.261  0.00  0.00    +0.116 C 
ATOM     10  H   UNL     1      32.361 -12.998 -21.997  0.00  0.00    +0.165 HD
ENDROOT
BRANCH   1  14
ATOM     11  N   UNL     1      30.540  -3.027 -23.367  0.00  0.00    -0.280 N 
ATOM     12  N   UNL     1      30.188  -4.000 -22.504  0.00  0.00    -0.173 NA
ATOM     13  C   UNL     1      32.010  -4.564 -23.737  0.00  0.00    +0.032 A 
ATOM     14  C   UNL     1      32.306  -6.994 -22.586  0.00  0.00    +0.055 C 
ATOM     15  C   UNL     1      31.087  -4.978 -22.707  0.00  0.00    +0.103 A 
ATOM     16  C   UNL     1      31.630  -3.314 -24.136  0.00  0.00    +0.053 A 
ATOM     17  C   UNL     1      31.220  -6.237 -22.093  0.00  0.00    +0.036 C 
ATOM     18  C   UNL     1      33.086  -5.283 -24.243  0.00  0.00    +0.004 C 
ATOM     19  C   UNL     1      33.194  -6.537 -23.610  0.00  0.00    +0.015 C 
ATOM     20  C   UNL     1      32.152  -2.365 -25.134  0.00  0.00    +0.051 C 
ATOM     21  H   UNL     1      30.049  -2.177 -23.438  0.00  0.00    +0.189 HD
ENDBRANCH   1  14
BRANCH   2  22
ATOM     22  C   UNL     1      33.488 -14.188 -23.171  0.00  0.00    +0.064 C 
ATOM     23  C   UNL     1      33.009 -14.676 -24.385  0.00  0.00    +0.055 C 
ATOM     24  C   UNL     1      34.400 -14.938 -22.427  0.00  0.00    +0.055 C 
ATOM     25  C   UNL     1      34.834 -16.175 -22.901  0.00  0.00    +0.177 C 
ATOM     26  C   UNL     1      33.443 -15.915 -24.858  0.00  0.00    +0.177 C 
ATOM     27  C   UNL     1      34.356 -16.665 -24.116  0.00  0.00    +0.206 C 
BRANCH  25  28
ATOM     28  O   UNL     1      35.726 -16.898 -22.166  0.00  0.00    -0.468 OA
ATOM     29  C   UNL     1      35.221 -17.572 -21.016  0.00  0.00    +0.253 C 
ENDBRANCH  25  28
BRANCH  26  30
ATOM     30  O   UNL     1      32.967 -16.381 -26.047  0.00  0.00    -0.468 OA
ATOM     31  C   UNL     1      31.776 -17.164 -26.006  0.00  0.00    +0.253 C 
ENDBRANCH  26  30
BRANCH  27  32
ATOM     32  O   UNL     1      34.778 -17.876 -24.578  0.00  0.00    -0.465 OA
ATOM     33  C   UNL     1      34.098 -19.029 -24.087  0.00  0.00    +0.253 C 
ENDBRANCH  27  32
ENDBRANCH   2  22
TORSDOF 5
ENDMDL
MODEL 7
REMARK VINA RESULT:      -9.3      7.229     11.648
REMARK  Name = 24941243
REMARK  5 active torsions:
REMARK  status: ('A' for Active; 'I' for Inactive)
REMARK    1  A    between atoms: N_1  and  C_14
REMARK    2  A    between atoms: N_2  and  C_22
REMARK    3  A    between atoms: C_25  and  O_28
REMARK    4  A    between atoms: C_26  and  O_30
REMARK    5  A    between atoms: C_27  and  O_32
REMARK                            x       y       z     vdW  Elec       q    Type
REMARK                         _______ _______ _______ _____ _____    ______ ____
ROOT
ATOM      1  N   UNL     1      33.012  -8.027 -22.603  0.00  0.00    -0.260 N 
ATOM      2  N   UNL     1      33.260 -12.735 -22.980  0.00  0.00    -0.247 N 
ATOM      3  N   UNL     1      33.121 -10.401 -22.778  0.00  0.00    -0.322 NA
ATOM      4  N   UNL     1      34.628 -11.419 -24.360  0.00  0.00    -0.170 NA
ATOM      5  C   UNL     1      33.557  -9.195 -23.196  0.00  0.00    +0.201 C 
ATOM      6  C   UNL     1      32.314  -8.173 -21.321  0.00  0.00    +0.120 C 
ATOM      7  C   UNL     1      34.511  -9.021 -24.178  0.00  0.00    +0.070 C 
ATOM      8  C   UNL     1      33.691 -11.455 -23.393  0.00  0.00    +0.150 C 
ATOM      9  C   UNL     1      35.017 -10.180 -24.730  0.00  0.00    +0.116 C 
ATOM     10  H   UNL     1      32.575 -12.712 -22.273  0.00  0.00    +0.165 HD
ENDROOT
BRANCH   1  14
ATOM     11  N   UNL     1      33.495  -3.312 -25.904  0.00  0.00    -0.280 N 
ATOM     12  N   UNL     1      34.157  -4.479 -25.789  0.00  0.00    -0.173 NA
ATOM     13  C   UNL     1      32.427  -4.327 -24.327  0.00  0.00    +0.032 A 
ATOM     14  C   UNL     1      32.855  -6.763 -23.232  0.00  0.00    +0.055 C 
ATOM     15  C   UNL     1      33.516  -5.141 -24.811  0.00  0.00    +0.103 A 
ATOM     16  C   UNL     1      32.444  -3.166 -25.046  0.00  0.00    +0.053 A 
ATOM     17  C   UNL     1      33.758  -6.412 -24.259  0.00  0.00    +0.036 C 
ATOM     18  C   UNL     1      31.521  -4.643 -23.321  0.00  0.00    +0.004 C 
ATOM     19  C   UNL     1      31.789  -5.919 -22.788  0.00  0.00    +0.015 C 
ATOM     20  C   UNL     1      31.611  -1.952 -25.033  0.00  0.00    +0.051 C 
ATOM     21  H   UNL     1      33.749  -2.618 -26.555  0.00  0.00    +0.189 HD
ENDBRANCH   1  14
BRANCH   2  22
ATOM     22  C   UNL     1      33.617 -14.035 -23.382  0.00  0.00    +0.064 C 
ATOM     23  C   UNL     1      34.493 -14.789 -22.603  0.00  0.00    +0.055 C 
ATOM     24  C   UNL     1      33.091 -14.572 -24.558  0.00  0.00    +0.055 C 
ATOM     25  C   UNL     1      33.443 -15.861 -24.954  0.00  0.00    +0.177 C 
ATOM     26  C   UNL     1      34.845 -16.080 -22.999  0.00  0.00    +0.177 C 
ATOM     27  C   UNL     1      34.320 -16.616 -24.174  0.00  0.00    +0.206 C 
BRANCH  25  28
ATOM     28  O   UNL     1      32.923 -16.374 -26.104  0.00  0.00    -0.468 OA
ATOM     29  C   UNL     1      31.740 -17.161 -25.986  0.00  0.00    +0.253 C 
ENDBRANCH  25  28
BRANCH  26  30
ATOM     30  O   UNL     1      35.704 -16.805 -22.228  0.00  0.00    -0.468 OA
ATOM     31  C   UNL     1      35.212 -17.272 -20.975  0.00  0.00    +0.253 C 
ENDBRANCH  26  30
BRANCH  27  32
ATOM     32  O   UNL     1      34.665 -17.877 -24.563  0.00  0.00    -0.465 OA
ATOM     33  C   UNL     1      33.934 -18.955 -23.983  0.00  0.00    +0.253 C 
ENDBRANCH  27  32
ENDBRANCH   2  22
TORSDOF 5
ENDMDL
MODEL 8
REMARK VINA RESULT:      -8.8      4.202     10.560
REMARK  Name = 24941243
REMARK  5 active torsions:
REMARK  status: ('A' for Active; 'I' for Inactive)
REMARK    1  A    between atoms: N_1  and  C_14
REMARK    2  A    between atoms: N_2  and  C_22
REMARK    3  A    between atoms: C_25  and  O_28
REMARK    4  A    between atoms: C_26  and  O_30
REMARK    5  A    between atoms: C_27  and  O_32
REMARK                            x       y       z     vdW  Elec       q    Type
REMARK                         _______ _______ _______ _____ _____    ______ ____
ROOT
ATOM      1  N   UNL     1      34.491 -22.995 -17.005  0.00  0.00    -0.260 N 
ATOM      2  N   UNL     1      33.853 -20.063 -20.661  0.00  0.00    -0.247 N 
ATOM      3  N   UNL     1      34.148 -21.521 -18.846  0.00  0.00    -0.322 NA
ATOM      4  N   UNL     1      36.030 -20.396 -19.848  0.00  0.00    -0.170 NA
ATOM      5  C   UNL     1      35.005 -22.104 -17.982  0.00  0.00    +0.201 C 
ATOM      6  C   UNL     1      33.147 -23.543 -17.218  0.00  0.00    +0.120 C 
ATOM      7  C   UNL     1      36.367 -21.887 -17.988  0.00  0.00    +0.070 C 
ATOM      8  C   UNL     1      34.720 -20.692 -19.739  0.00  0.00    +0.150 C 
ATOM      9  C   UNL     1      36.828 -21.015 -18.952  0.00  0.00    +0.116 C 
ATOM     10  H   UNL     1      32.907 -20.308 -20.544  0.00  0.00    +0.165 HD
ENDROOT
BRANCH   1  14
ATOM     11  N   UNL     1      35.376 -24.284 -11.445  0.00  0.00    -0.280 N 
ATOM     12  N   UNL     1      34.313 -24.269 -12.272  0.00  0.00    -0.173 NA
ATOM     13  C   UNL     1      36.225 -23.631 -13.318  0.00  0.00    +0.032 A 
ATOM     14  C   UNL     1      35.037 -23.230 -15.715  0.00  0.00    +0.055 C 
ATOM     15  C   UNL     1      34.808 -23.865 -13.455  0.00  0.00    +0.103 A 
ATOM     16  C   UNL     1      36.554 -23.907 -12.022  0.00  0.00    +0.053 A 
ATOM     17  C   UNL     1      34.166 -23.665 -14.692  0.00  0.00    +0.036 C 
ATOM     18  C   UNL     1      37.108 -23.205 -14.304  0.00  0.00    +0.004 C 
ATOM     19  C   UNL     1      36.439 -23.013 -15.528  0.00  0.00    +0.015 C 
ATOM     20  C   UNL     1      37.815 -23.864 -11.263  0.00  0.00    +0.051 C 
ATOM     21  H   UNL     1      35.308 -24.545 -10.498  0.00  0.00    +0.189 HD
ENDBRANCH   1  14
BRANCH   2  22
ATOM     22  C   UNL     1      34.078 -19.156 -21.713  0.00  0.00    +0.064 C 
ATOM     23  C   UNL     1      34.693 -17.931 -21.458  0.00  0.00    +0.055 C 
ATOM     24  C   UNL     1      33.687 -19.483 -23.012  0.00  0.00    +0.055 C 
ATOM     25  C   UNL     1      33.913 -18.586 -24.054  0.00  0.00    +0.177 C 
ATOM     26  C   UNL     1      34.918 -17.033 -22.501  0.00  0.00    +0.177 C 
ATOM     27  C   UNL     1      34.528 -17.361 -23.800  0.00  0.00    +0.206 C 
BRANCH  25  28
ATOM     28  O   UNL     1      33.527 -18.918 -25.319  0.00  0.00    -0.468 OA
ATOM     29  C   UNL     1      32.129 -18.887 -25.598  0.00  0.00    +0.253 C 
ENDBRANCH  25  28
BRANCH  26  30
ATOM     30  O   UNL     1      35.520 -15.839 -22.238  0.00  0.00    -0.468 OA
ATOM     31  C   UNL     1      34.697 -14.800 -21.716  0.00  0.00    +0.253 C 
ENDBRANCH  26  30
BRANCH  27  32
ATOM     32  O   UNL     1      34.747 -16.482 -24.819  0.00  0.00    -0.465 OA
ATOM     33  C   UNL     1      33.682 -15.593 -25.147  0.00  0.00    +0.253 C 
ENDBRANCH  27  32
ENDBRANCH   2  22
TORSDOF 5
ENDMDL
MODEL 9
REMARK VINA RESULT:      -8.8      4.192     10.673
REMARK  Name = 24941243
REMARK  5 active torsions:
REMARK  status: ('A' for Active; 'I' for Inactive)
REMARK    1  A    between atoms: N_1  and  C_14
REMARK    2  A    between atoms: N_2  and  C_22
REMARK    3  A    between atoms: C_25  and  O_28
REMARK    4  A    between atoms: C_26  and  O_30
REMARK    5  A    between atoms: C_27  and  O_32
REMARK                            x       y       z     vdW  Elec       q    Type
REMARK                         _______ _______ _______ _____ _____    ______ ____
ROOT
ATOM      1  N   UNL     1      34.452 -23.008 -16.928  0.00  0.00    -0.260 N 
ATOM      2  N   UNL     1      33.859 -20.082 -20.595  0.00  0.00    -0.247 N 
ATOM      3  N   UNL     1      34.132 -21.537 -18.774  0.00  0.00    -0.322 NA
ATOM      4  N   UNL     1      36.031 -20.451 -19.785  0.00  0.00    -0.170 NA
ATOM      5  C   UNL     1      34.980 -22.132 -17.909  0.00  0.00    +0.201 C 
ATOM      6  C   UNL     1      33.098 -23.533 -17.135  0.00  0.00    +0.120 C 
ATOM      7  C   UNL     1      36.346 -21.938 -17.919  0.00  0.00    +0.070 C 
ATOM      8  C   UNL     1      34.716 -20.722 -19.672  0.00  0.00    +0.150 C 
ATOM      9  C   UNL     1      36.820 -21.079 -18.889  0.00  0.00    +0.116 C 
ATOM     10  H   UNL     1      32.908 -20.310 -20.475  0.00  0.00    +0.165 HD
ENDROOT
BRANCH   1  14
ATOM     11  N   UNL     1      35.321 -24.249 -11.353  0.00  0.00    -0.280 N 
ATOM     12  N   UNL     1      34.254 -24.200 -12.174  0.00  0.00    -0.173 NA
ATOM     13  C   UNL     1      36.185 -23.663 -13.243  0.00  0.00    +0.032 A 
ATOM     14  C   UNL     1      34.997 -23.247 -15.638  0.00  0.00    +0.055 C 
ATOM     15  C   UNL     1      34.757 -23.837 -13.367  0.00  0.00    +0.103 A 
ATOM     16  C   UNL     1      36.510 -23.934 -11.944  0.00  0.00    +0.053 A 
ATOM     17  C   UNL     1      34.116 -23.627 -14.601  0.00  0.00    +0.036 C 
ATOM     18  C   UNL     1      37.077 -23.292 -14.241  0.00  0.00    +0.004 C 
ATOM     19  C   UNL     1      36.408 -23.089 -15.464  0.00  0.00    +0.015 C 
ATOM     20  C   UNL     1      37.778 -23.934 -11.195  0.00  0.00    +0.051 C 
ATOM     21  H   UNL     1      35.249 -24.492 -10.402  0.00  0.00    +0.189 HD
ENDBRANCH   1  14
BRANCH   2  22
ATOM     22  C   UNL     1      34.097 -19.184 -21.652  0.00  0.00    +0.064 C 
ATOM     23  C   UNL     1      33.722 -19.522 -22.951  0.00  0.00    +0.055 C 
ATOM     24  C   UNL     1      34.707 -17.954 -21.399  0.00  0.00    +0.055 C 
ATOM     25  C   UNL     1      34.939 -17.064 -22.446  0.00  0.00    +0.177 C 
ATOM     26  C   UNL     1      33.956 -18.631 -23.999  0.00  0.00    +0.177 C 
ATOM     27  C   UNL     1      34.564 -17.402 -23.746  0.00  0.00    +0.206 C 
BRANCH  25  28
ATOM     28  O   UNL     1      35.534 -15.866 -22.186  0.00  0.00    -0.468 OA
ATOM     29  C   UNL     1      34.702 -14.826 -21.677  0.00  0.00    +0.253 C 
ENDBRANCH  25  28
BRANCH  26  30
ATOM     30  O   UNL     1      33.585 -18.974 -25.265  0.00  0.00    -0.468 OA
ATOM     31  C   UNL     1      32.189 -18.987 -25.549  0.00  0.00    +0.253 C 
ENDBRANCH  26  30
BRANCH  27  32
ATOM     32  O   UNL     1      34.794 -16.531 -24.770  0.00  0.00    -0.465 OA
ATOM     33  C   UNL     1      33.729 -15.651 -25.122  0.00  0.00    +0.253 C 
ENDBRANCH  27  32
ENDBRANCH   2  22
TORSDOF 5
ENDMDL
