MODEL 1
REMARK VINA RESULT:     -11.7      0.000      0.000
REMARK  Name = 6852168
REMARK  5 active torsions:
REMARK  status: ('A' for Active; 'I' for Inactive)
REMARK    1  A    between atoms: N_1  and  C_5
REMARK    2  A    between atoms: N_1  and  S_19
REMARK    3  A    between atoms: N_4  and  C_9
REMARK    4  A    between atoms: C_9  and  C_14
REMARK    5  A    between atoms: S_19  and  C_23
REMARK                            x       y       z     vdW  Elec       q    Type
REMARK                         _______ _______ _______ _____ _____    ______ ____
ROOT
ATOM      1  N   UNL     1      34.580 -17.442 -22.440  0.00  0.00    -0.172 NA
ATOM      2  H   UNL     1      34.343 -17.304 -21.458  0.00  0.00    +0.149 HD
ENDROOT
BRANCH   1   5
ATOM      3  O   UNL     1      34.751 -14.792 -20.971  0.00  0.00    -0.273 OA
ATOM      4  N   UNL     1      33.541 -14.491 -22.967  0.00  0.00    -0.272 N 
ATOM      5  C   UNL     1      35.160 -16.175 -22.919  0.00  0.00    +0.153 C 
ATOM      6  C   UNL     1      34.762 -15.894 -24.364  0.00  0.00    +0.048 C 
ATOM      7  C   UNL     1      33.447 -15.145 -24.251  0.00  0.00    +0.096 C 
ATOM      8  C   UNL     1      34.499 -15.069 -22.135  0.00  0.00    +0.242 C 
BRANCH   4   9
ATOM      9  C   UNL     1      32.609 -13.457 -22.575  0.00  0.00    +0.152 C 
ATOM     10  C   UNL     1      32.370 -13.432 -21.083  0.00  0.00    +0.031 C 
BRANCH   9  14
ATOM     11  O   UNL     1      31.362  -8.597 -22.010  0.00  0.00    -0.350 OA
ATOM     12  O   UNL     1      34.174 -12.221 -23.858  0.00  0.00    -0.273 OA
ATOM     13  N   UNL     1      32.763 -10.996 -22.480  0.00  0.00    -0.273 N 
ATOM     14  C   UNL     1      33.258 -12.175 -23.032  0.00  0.00    +0.244 C 
ATOM     15  C   UNL     1      31.767 -10.912 -21.406  0.00  0.00    +0.126 C 
ATOM     16  C   UNL     1      33.333  -9.707 -22.873  0.00  0.00    +0.126 C 
ATOM     17  C   UNL     1      30.727  -9.848 -21.735  0.00  0.00    +0.164 C 
ATOM     18  C   UNL     1      32.226  -8.698 -23.144  0.00  0.00    +0.164 C 
ENDBRANCH   9  14
ENDBRANCH   4   9
ENDBRANCH   1   5
BRANCH   1  19
ATOM     19  S   UNL     1      35.485 -18.882 -22.528  0.00  0.00    +0.061 S 
ATOM     20  O   UNL     1      36.863 -18.604 -22.170  0.00  0.00    -0.153 OA
ATOM     21  O   UNL     1      35.178 -19.559 -23.774  0.00  0.00    -0.153 OA
BRANCH  19  23
ATOM     22 CL   UNL     1      33.198 -23.686 -15.943  0.00  0.00    -0.082 Cl
ATOM     23  C   UNL     1      34.767 -19.841 -21.229  0.00  0.00    +0.122 C 
ATOM     24  C   UNL     1      35.596 -20.462 -20.310  0.00  0.00    +0.020 C 
ATOM     25  C   UNL     1      33.393 -19.955 -21.157  0.00  0.00    +0.020 C 
ATOM     26  C   UNL     1      35.040 -21.228 -19.272  0.00  0.00    +0.001 C 
ATOM     27  C   UNL     1      33.633 -21.354 -19.181  0.00  0.00    +0.001 C 
ATOM     28  C   UNL     1      32.824 -20.711 -20.133  0.00  0.00    +0.001 C 
ATOM     29  C   UNL     1      35.850 -21.870 -18.321  0.00  0.00    +0.001 C 
ATOM     30  C   UNL     1      33.078 -22.120 -18.144  0.00  0.00    +0.011 C 
ATOM     31  C   UNL     1      35.281 -22.627 -17.296  0.00  0.00    +0.011 C 
ATOM     32  C   UNL     1      33.897 -22.752 -17.208  0.00  0.00    +0.058 C 
ENDBRANCH  19  23
ENDBRANCH   1  19
TORSDOF 5
ENDMDL
MODEL 2
REMARK VINA RESULT:     -11.4      7.146     12.078
REMARK  Name = 6852168
REMARK  5 active torsions:
REMARK  status: ('A' for Active; 'I' for Inactive)
REMARK    1  A    between atoms: N_1  and  C_5
REMARK    2  A    between atoms: N_1  and  S_19
REMARK    3  A    between atoms: N_4  and  C_9
REMARK    4  A    between atoms: C_9  and  C_14
REMARK    5  A    between atoms: S_19  and  C_23
REMARK                            x       y       z     vdW  Elec       q    Type
REMARK                         _______ _______ _______ _____ _____    ______ ____
ROOT
ATOM      1  N   UNL     1      35.168 -22.978 -16.994  0.00  0.00    -0.172 NA
ATOM      2  H   UNL     1      35.639 -22.139 -17.332  0.00  0.00    +0.149 HD
ENDROOT
BRANCH   1   5
ATOM      3  O   UNL     1      37.506 -23.629 -15.171  0.00  0.00    -0.273 OA
ATOM      4  N   UNL     1      35.694 -25.032 -14.634  0.00  0.00    -0.272 N 
ATOM      5  C   UNL     1      35.213 -22.926 -15.522  0.00  0.00    +0.153 C 
ATOM      6  C   UNL     1      33.950 -23.519 -14.907  0.00  0.00    +0.048 C 
ATOM      7  C   UNL     1      34.257 -24.999 -14.774  0.00  0.00    +0.096 C 
ATOM      8  C   UNL     1      36.309 -23.865 -15.086  0.00  0.00    +0.242 C 
BRANCH   4   9
ATOM      9  C   UNL     1      36.386 -26.232 -14.217  0.00  0.00    +0.152 C 
ATOM     10  C   UNL     1      36.792 -27.099 -15.386  0.00  0.00    +0.031 C 
BRANCH   9  14
ATOM     11  O   UNL     1      36.959 -23.057 -10.333  0.00  0.00    -0.350 OA
ATOM     12  O   UNL     1      38.723 -25.931 -13.950  0.00  0.00    -0.273 OA
ATOM     13  N   UNL     1      37.366 -25.044 -12.288  0.00  0.00    -0.273 N 
ATOM     14  C   UNL     1      37.600 -25.728 -13.479  0.00  0.00    +0.244 C 
ATOM     15  C   UNL     1      36.060 -24.896 -11.636  0.00  0.00    +0.126 C 
ATOM     16  C   UNL     1      38.488 -24.517 -11.512  0.00  0.00    +0.126 C 
ATOM     17  C   UNL     1      35.868 -23.460 -11.164  0.00  0.00    +0.164 C 
ATOM     18  C   UNL     1      38.194 -23.097 -11.052  0.00  0.00    +0.164 C 
ENDBRANCH   9  14
ENDBRANCH   4   9
ENDBRANCH   1   5
BRANCH   1  19
ATOM     19  S   UNL     1      33.670 -23.058 -17.801  0.00  0.00    +0.061 S 
ATOM     20  O   UNL     1      32.613 -22.672 -16.886  0.00  0.00    -0.153 OA
ATOM     21  O   UNL     1      33.587 -24.314 -18.522  0.00  0.00    -0.153 OA
BRANCH  19  23
ATOM     22 CL   UNL     1      35.692 -16.999 -23.357  0.00  0.00    -0.082 Cl
ATOM     23  C   UNL     1      33.841 -21.779 -19.008  0.00  0.00    +0.122 C 
ATOM     24  C   UNL     1      35.103 -21.293 -19.304  0.00  0.00    +0.020 C 
ATOM     25  C   UNL     1      32.711 -21.287 -19.633  0.00  0.00    +0.020 C 
ATOM     26  C   UNL     1      35.255 -20.277 -20.262  0.00  0.00    +0.001 C 
ATOM     27  C   UNL     1      34.109 -19.762 -20.913  0.00  0.00    +0.001 C 
ATOM     28  C   UNL     1      32.844 -20.279 -20.587  0.00  0.00    +0.001 C 
ATOM     29  C   UNL     1      36.520 -19.762 -20.588  0.00  0.00    +0.001 C 
ATOM     30  C   UNL     1      34.261 -18.746 -21.870  0.00  0.00    +0.011 C 
ATOM     31  C   UNL     1      36.653 -18.752 -21.542  0.00  0.00    +0.011 C 
ATOM     32  C   UNL     1      35.525 -18.245 -22.181  0.00  0.00    +0.058 C 
ENDBRANCH  19  23
ENDBRANCH   1  19
TORSDOF 5
ENDMDL
MODEL 3
REMARK VINA RESULT:     -10.9      5.888     12.108
REMARK  Name = 6852168
REMARK  5 active torsions:
REMARK  status: ('A' for Active; 'I' for Inactive)
REMARK    1  A    between atoms: N_1  and  C_5
REMARK    2  A    between atoms: N_1  and  S_19
REMARK    3  A    between atoms: N_4  and  C_9
REMARK    4  A    between atoms: C_9  and  C_14
REMARK    5  A    between atoms: S_19  and  C_23
REMARK                            x       y       z     vdW  Elec       q    Type
REMARK                         _______ _______ _______ _____ _____    ______ ____
ROOT
ATOM      1  N   UNL     1      31.616  -9.282 -22.366  0.00  0.00    -0.172 NA
ATOM      2  H   UNL     1      31.766  -9.321 -23.374  0.00  0.00    +0.149 HD
ENDROOT
BRANCH   1   5
ATOM      3  O   UNL     1      34.132 -10.415 -23.630  0.00  0.00    -0.273 OA
ATOM      4  N   UNL     1      32.757 -12.189 -22.923  0.00  0.00    -0.272 N 
ATOM      5  C   UNL     1      32.618 -10.173 -21.753  0.00  0.00    +0.153 C 
ATOM      6  C   UNL     1      31.954 -11.278 -20.940  0.00  0.00    +0.048 C 
ATOM      7  C   UNL     1      31.713 -12.390 -21.945  0.00  0.00    +0.096 C 
ATOM      8  C   UNL     1      33.298 -10.906 -22.882  0.00  0.00    +0.242 C 
BRANCH   4   9
ATOM      9  C   UNL     1      33.059 -13.192 -23.921  0.00  0.00    +0.152 C 
ATOM     10  C   UNL     1      33.631 -12.592 -25.185  0.00  0.00    +0.031 C 
BRANCH   9  14
ATOM     11  O   UNL     1      34.232 -18.065 -24.533  0.00  0.00    -0.350 OA
ATOM     12  O   UNL     1      34.641 -13.707 -22.231  0.00  0.00    -0.273 OA
ATOM     13  N   UNL     1      34.287 -15.331 -23.851  0.00  0.00    -0.273 N 
ATOM     14  C   UNL     1      34.069 -14.092 -23.254  0.00  0.00    +0.244 C 
ATOM     15  C   UNL     1      33.722 -15.769 -25.133  0.00  0.00    +0.126 C 
ATOM     16  C   UNL     1      35.247 -16.268 -23.267  0.00  0.00    +0.126 C 
ATOM     17  C   UNL     1      33.204 -17.198 -25.018  0.00  0.00    +0.164 C 
ATOM     18  C   UNL     1      34.661 -17.672 -23.227  0.00  0.00    +0.164 C 
ENDBRANCH   9  14
ENDBRANCH   4   9
ENDBRANCH   1   5
BRANCH   1  19
ATOM     19  S   UNL     1      31.564  -7.634 -21.941  0.00  0.00    +0.061 S 
ATOM     20  O   UNL     1      32.017  -7.479 -20.571  0.00  0.00    -0.153 OA
ATOM     21  O   UNL     1      30.290  -7.078 -22.354  0.00  0.00    -0.153 OA
BRANCH  19  23
ATOM     22 CL   UNL     1      36.539  -3.779 -27.603  0.00  0.00    -0.082 Cl
ATOM     23  C   UNL     1      32.797  -6.947 -23.004  0.00  0.00    +0.122 C 
ATOM     24  C   UNL     1      32.410  -6.094 -24.024  0.00  0.00    +0.020 C 
ATOM     25  C   UNL     1      34.123  -7.275 -22.798  0.00  0.00    +0.020 C 
ATOM     26  C   UNL     1      33.378  -5.540 -24.877  0.00  0.00    +0.001 C 
ATOM     27  C   UNL     1      34.742  -5.864 -24.681  0.00  0.00    +0.001 C 
ATOM     28  C   UNL     1      35.097  -6.733 -23.636  0.00  0.00    +0.001 C 
ATOM     29  C   UNL     1      33.023  -4.670 -25.921  0.00  0.00    +0.001 C 
ATOM     30  C   UNL     1      35.709  -5.310 -25.535  0.00  0.00    +0.011 C 
ATOM     31  C   UNL     1      33.998  -4.129 -26.760  0.00  0.00    +0.011 C 
ATOM     32  C   UNL     1      35.338  -4.448 -26.567  0.00  0.00    +0.058 C 
ENDBRANCH  19  23
ENDBRANCH   1  19
TORSDOF 5
ENDMDL
MODEL 4
REMARK VINA RESULT:     -10.7      7.326     12.246
REMARK  Name = 6852168
REMARK  5 active torsions:
REMARK  status: ('A' for Active; 'I' for Inactive)
REMARK    1  A    between atoms: N_1  and  C_5
REMARK    2  A    between atoms: N_1  and  S_19
REMARK    3  A    between atoms: N_4  and  C_9
REMARK    4  A    between atoms: C_9  and  C_14
REMARK    5  A    between atoms: S_19  and  C_23
REMARK                            x       y       z     vdW  Elec       q    Type
REMARK                         _______ _______ _______ _____ _____    ______ ____
ROOT
ATOM      1  N   UNL     1      34.703 -23.256 -16.735  0.00  0.00    -0.172 NA
ATOM      2  H   UNL     1      35.458 -22.802 -17.248  0.00  0.00    +0.149 HD
ENDROOT
BRANCH   1   5
ATOM      3  O   UNL     1      36.881 -22.411 -14.798  0.00  0.00    -0.273 OA
ATOM      4  N   UNL     1      35.348 -23.801 -13.677  0.00  0.00    -0.272 N 
ATOM      5  C   UNL     1      34.553 -22.525 -15.464  0.00  0.00    +0.153 C 
ATOM      6  C   UNL     1      33.375 -23.053 -14.655  0.00  0.00    +0.048 C 
ATOM      7  C   UNL     1      33.963 -24.183 -13.830  0.00  0.00    +0.096 C 
ATOM      8  C   UNL     1      35.758 -22.863 -14.622  0.00  0.00    +0.242 C 
BRANCH   4   9
ATOM      9  C   UNL     1      36.216 -24.468 -12.731  0.00  0.00    +0.152 C 
ATOM     10  C   UNL     1      35.464 -24.991 -11.529  0.00  0.00    +0.031 C 
BRANCH   9  14
ATOM     11  O   UNL     1      40.964 -25.572 -14.046  0.00  0.00    -0.350 OA
ATOM     12  O   UNL     1      36.084 -26.363 -14.151  0.00  0.00    -0.273 OA
ATOM     13  N   UNL     1      38.209 -25.719 -13.475  0.00  0.00    -0.273 N 
ATOM     14  C   UNL     1      36.822 -25.604 -13.516  0.00  0.00    +0.244 C 
ATOM     15  C   UNL     1      39.104 -24.917 -12.633  0.00  0.00    +0.126 C 
ATOM     16  C   UNL     1      38.879 -26.790 -14.212  0.00  0.00    +0.126 C 
ATOM     17  C   UNL     1      40.311 -24.454 -13.439  0.00  0.00    +0.164 C 
ATOM     18  C   UNL     1      40.091 -26.246 -14.955  0.00  0.00    +0.164 C 
ENDBRANCH   9  14
ENDBRANCH   4   9
ENDBRANCH   1   5
BRANCH   1  19
ATOM     19  S   UNL     1      33.386 -23.382 -17.807  0.00  0.00    +0.061 S 
ATOM     20  O   UNL     1      32.156 -23.105 -17.090  0.00  0.00    -0.153 OA
ATOM     21  O   UNL     1      33.520 -24.603 -18.580  0.00  0.00    -0.153 OA
BRANCH  19  23
ATOM     22 CL   UNL     1      36.023 -17.104 -22.837  0.00  0.00    -0.082 Cl
ATOM     23  C   UNL     1      33.688 -22.037 -18.912  0.00  0.00    +0.122 C 
ATOM     24  C   UNL     1      34.991 -21.622 -19.131  0.00  0.00    +0.020 C 
ATOM     25  C   UNL     1      32.619 -21.423 -19.534  0.00  0.00    +0.020 C 
ATOM     26  C   UNL     1      35.248 -20.554 -20.006  0.00  0.00    +0.001 C 
ATOM     27  C   UNL     1      34.165 -19.914 -20.653  0.00  0.00    +0.001 C 
ATOM     28  C   UNL     1      32.856 -20.361 -20.407  0.00  0.00    +0.001 C 
ATOM     29  C   UNL     1      36.556 -20.108 -20.253  0.00  0.00    +0.001 C 
ATOM     30  C   UNL     1      34.422 -18.845 -21.528  0.00  0.00    +0.011 C 
ATOM     31  C   UNL     1      36.793 -19.045 -21.125  0.00  0.00    +0.011 C 
ATOM     32  C   UNL     1      35.728 -18.415 -21.761  0.00  0.00    +0.058 C 
ENDBRANCH  19  23
ENDBRANCH   1  19
TORSDOF 5
ENDMDL
MODEL 5
REMARK VINA RESULT:     -10.5      1.382      2.024
REMARK  Name = 6852168
REMARK  5 active torsions:
REMARK  status: ('A' for Active; 'I' for Inactive)
REMARK    1  A    between atoms: N_1  and  C_5
REMARK    2  A    between atoms: N_1  and  S_19
REMARK    3  A    between atoms: N_4  and  C_9
REMARK    4  A    between atoms: C_9  and  C_14
REMARK    5  A    between atoms: S_19  and  C_23
REMARK                            x       y       z     vdW  Elec       q    Type
REMARK                         _______ _______ _______ _____ _____    ______ ____
ROOT
ATOM      1  N   UNL     1      36.020 -17.002 -21.702  0.00  0.00    -0.172 NA
ATOM      2  H   UNL     1      36.471 -16.358 -22.351  0.00  0.00    +0.149 HD
ENDROOT
BRANCH   1   5
ATOM      3  O   UNL     1      34.156 -16.425 -24.027  0.00  0.00    -0.273 OA
ATOM      4  N   UNL     1      34.258 -14.533 -22.632  0.00  0.00    -0.272 N 
ATOM      5  C   UNL     1      34.595 -16.626 -21.652  0.00  0.00    +0.153 C 
ATOM      6  C   UNL     1      34.333 -15.592 -20.563  0.00  0.00    +0.048 C 
ATOM      7  C   UNL     1      34.568 -14.258 -21.248  0.00  0.00    +0.096 C 
ATOM      8  C   UNL     1      34.293 -15.893 -22.934  0.00  0.00    +0.242 C 
BRANCH   4   9
ATOM      9  C   UNL     1      34.097 -13.467 -23.596  0.00  0.00    +0.152 C 
ATOM     10  C   UNL     1      33.539 -13.959 -24.911  0.00  0.00    +0.031 C 
BRANCH   9  14
ATOM     11  O   UNL     1      33.966  -8.429 -23.285  0.00  0.00    -0.350 OA
ATOM     12  O   UNL     1      32.293 -12.942 -22.149  0.00  0.00    -0.273 OA
ATOM     13  N   UNL     1      33.280 -11.161 -23.265  0.00  0.00    -0.273 N 
ATOM     14  C   UNL     1      33.138 -12.507 -22.936  0.00  0.00    +0.244 C 
ATOM     15  C   UNL     1      34.185 -10.627 -24.288  0.00  0.00    +0.126 C 
ATOM     16  C   UNL     1      32.394 -10.163 -22.666  0.00  0.00    +0.126 C 
ATOM     17  C   UNL     1      34.908  -9.394 -23.760  0.00  0.00    +0.164 C 
ATOM     18  C   UNL     1      33.194  -8.954 -22.202  0.00  0.00    +0.164 C 
ENDBRANCH   9  14
ENDBRANCH   4   9
ENDBRANCH   1   5
BRANCH   1  19
ATOM     19  S   UNL     1      36.471 -18.574 -22.177  0.00  0.00    +0.061 S 
ATOM     20  O   UNL     1      37.863 -18.796 -21.833  0.00  0.00    -0.153 OA
ATOM     21  O   UNL     1      36.008 -18.811 -23.531  0.00  0.00    -0.153 OA
BRANCH  19  23
ATOM     22 CL   UNL     1      32.773 -23.657 -16.507  0.00  0.00    -0.082 Cl
ATOM     23  C   UNL     1      35.479 -19.574 -21.110  0.00  0.00    +0.122 C 
ATOM     24  C   UNL     1      36.091 -20.295 -20.099  0.00  0.00    +0.020 C 
ATOM     25  C   UNL     1      34.113 -19.618 -21.306  0.00  0.00    +0.020 C 
ATOM     26  C   UNL     1      35.316 -21.095 -19.242  0.00  0.00    +0.001 C 
ATOM     27  C   UNL     1      33.914 -21.151 -19.427  0.00  0.00    +0.001 C 
ATOM     28  C   UNL     1      33.328 -20.406 -20.464  0.00  0.00    +0.001 C 
ATOM     29  C   UNL     1      35.902 -21.839 -18.205  0.00  0.00    +0.001 C 
ATOM     30  C   UNL     1      33.140 -21.951 -18.571  0.00  0.00    +0.011 C 
ATOM     31  C   UNL     1      35.117 -22.628 -17.363  0.00  0.00    +0.011 C 
ATOM     32  C   UNL     1      33.739 -22.684 -17.546  0.00  0.00    +0.058 C 
ENDBRANCH  19  23
ENDBRANCH   1  19
TORSDOF 5
ENDMDL
MODEL 6
REMARK VINA RESULT:     -10.5      3.794      6.512
REMARK  Name = 6852168
REMARK  5 active torsions:
REMARK  status: ('A' for Active; 'I' for Inactive)
REMARK    1  A    between atoms: N_1  and  C_5
REMARK    2  A    between atoms: N_1  and  S_19
REMARK    3  A    between atoms: N_4  and  C_9
REMARK    4  A    between atoms: C_9  and  C_14
REMARK    5  A    between atoms: S_19  and  C_23
REMARK                            x       y       z     vdW  Elec       q    Type
REMARK                         _______ _______ _______ _____ _____    ______ ____
ROOT
ATOM      1  N   UNL     1      33.756 -21.634 -18.394  0.00  0.00    -0.172 NA
ATOM      2  H   UNL     1      34.694 -21.436 -18.045  0.00  0.00    +0.149 HD
ENDROOT
BRANCH   1   5
ATOM      3  O   UNL     1      36.214 -21.205 -20.122  0.00  0.00    -0.273 OA
ATOM      4  N   UNL     1      34.573 -19.623 -20.707  0.00  0.00    -0.272 N 
ATOM      5  C   UNL     1      33.851 -21.677 -19.864  0.00  0.00    +0.153 C 
ATOM      6  C   UNL     1      32.678 -20.956 -20.517  0.00  0.00    +0.048 C 
ATOM      7  C   UNL     1      33.136 -19.513 -20.620  0.00  0.00    +0.096 C 
ATOM      8  C   UNL     1      35.051 -20.849 -20.248  0.00  0.00    +0.242 C 
BRANCH   4   9
ATOM      9  C   UNL     1      35.396 -18.494 -21.084  0.00  0.00    +0.152 C 
ATOM     10  C   UNL     1      36.861 -18.729 -20.800  0.00  0.00    +0.031 C 
BRANCH   9  14
ATOM     11  O   UNL     1      33.790 -14.620 -23.896  0.00  0.00    -0.350 OA
ATOM     12  O   UNL     1      35.156 -19.334 -23.288  0.00  0.00    -0.273 OA
ATOM     13  N   UNL     1      34.946 -17.037 -23.025  0.00  0.00    -0.273 N 
ATOM     14  C   UNL     1      35.158 -18.334 -22.564  0.00  0.00    +0.244 C 
ATOM     15  C   UNL     1      35.068 -15.818 -22.217  0.00  0.00    +0.126 C 
ATOM     16  C   UNL     1      34.703 -16.794 -24.446  0.00  0.00    +0.126 C 
ATOM     17  C   UNL     1      33.897 -14.884 -22.495  0.00  0.00    +0.164 C 
ATOM     18  C   UNL     1      33.544 -15.824 -24.628  0.00  0.00    +0.164 C 
ENDBRANCH   9  14
ENDBRANCH   4   9
ENDBRANCH   1   5
BRANCH   1  19
ATOM     19  S   UNL     1      33.189 -22.991 -17.535  0.00  0.00    +0.061 S 
ATOM     20  O   UNL     1      33.355 -24.178 -18.352  0.00  0.00    -0.153 OA
ATOM     21  O   UNL     1      31.896 -22.679 -16.956  0.00  0.00    -0.153 OA
BRANCH  19  23
ATOM     22 CL   UNL     1      37.802 -23.930 -10.498  0.00  0.00    -0.082 Cl
ATOM     23  C   UNL     1      34.344 -23.082 -16.200  0.00  0.00    +0.122 C 
ATOM     24  C   UNL     1      33.937 -23.618 -14.990  0.00  0.00    +0.020 C 
ATOM     25  C   UNL     1      35.630 -22.616 -16.389  0.00  0.00    +0.020 C 
ATOM     26  C   UNL     1      34.842 -23.697 -13.919  0.00  0.00    +0.001 C 
ATOM     27  C   UNL     1      36.165 -23.225 -14.095  0.00  0.00    +0.001 C 
ATOM     28  C   UNL     1      36.543 -22.688 -15.337  0.00  0.00    +0.001 C 
ATOM     29  C   UNL     1      34.464 -24.235 -12.679  0.00  0.00    +0.001 C 
ATOM     30  C   UNL     1      37.070 -23.304 -13.025  0.00  0.00    +0.011 C 
ATOM     31  C   UNL     1      35.378 -24.306 -11.626  0.00  0.00    +0.011 C 
ATOM     32  C   UNL     1      36.678 -23.841 -11.799  0.00  0.00    +0.058 C 
ENDBRANCH  19  23
ENDBRANCH   1  19
TORSDOF 5
ENDMDL
MODEL 7
REMARK VINA RESULT:     -10.2      4.725     10.623
REMARK  Name = 6852168
REMARK  5 active torsions:
REMARK  status: ('A' for Active; 'I' for Inactive)
REMARK    1  A    between atoms: N_1  and  C_5
REMARK    2  A    between atoms: N_1  and  S_19
REMARK    3  A    between atoms: N_4  and  C_9
REMARK    4  A    between atoms: C_9  and  C_14
REMARK    5  A    between atoms: S_19  and  C_23
REMARK                            x       y       z     vdW  Elec       q    Type
REMARK                         _______ _______ _______ _____ _____    ______ ____
ROOT
ATOM      1  N   UNL     1      34.768 -19.972 -20.318  0.00  0.00    -0.172 NA
ATOM      2  H   UNL     1      33.978 -19.810 -20.942  0.00  0.00    +0.149 HD
ENDROOT
BRANCH   1   5
ATOM      3  O   UNL     1      32.613 -21.997 -19.634  0.00  0.00    -0.273 OA
ATOM      4  N   UNL     1      34.325 -22.118 -18.023  0.00  0.00    -0.272 N 
ATOM      5  C   UNL     1      34.907 -21.433 -20.179  0.00  0.00    +0.153 C 
ATOM      6  C   UNL     1      36.168 -21.800 -19.405  0.00  0.00    +0.048 C 
ATOM      7  C   UNL     1      35.731 -21.794 -17.952  0.00  0.00    +0.096 C 
ATOM      8  C   UNL     1      33.781 -21.895 -19.287  0.00  0.00    +0.242 C 
BRANCH   4   9
ATOM      9  C   UNL     1      33.571 -22.476 -16.841  0.00  0.00    +0.152 C 
ATOM     10  C   UNL     1      32.081 -22.488 -17.091  0.00  0.00    +0.031 C 
BRANCH   9  14
ATOM     11  O   UNL     1      37.088 -24.132 -13.619  0.00  0.00    -0.350 OA
ATOM     12  O   UNL     1      33.734 -24.816 -17.189  0.00  0.00    -0.273 OA
ATOM     13  N   UNL     1      34.883 -23.955 -15.365  0.00  0.00    -0.273 N 
ATOM     14  C   UNL     1      34.064 -23.856 -16.487  0.00  0.00    +0.244 C 
ATOM     15  C   UNL     1      35.190 -22.861 -14.437  0.00  0.00    +0.126 C 
ATOM     16  C   UNL     1      35.409 -25.257 -14.953  0.00  0.00    +0.126 C 
ATOM     17  C   UNL     1      36.677 -22.852 -14.106  0.00  0.00    +0.164 C 
ATOM     18  C   UNL     1      36.887 -25.146 -14.607  0.00  0.00    +0.164 C 
ENDBRANCH   9  14
ENDBRANCH   4   9
ENDBRANCH   1   5
BRANCH   1  19
ATOM     19  S   UNL     1      36.065 -19.045 -20.917  0.00  0.00    +0.061 S 
ATOM     20  O   UNL     1      37.030 -19.925 -21.548  0.00  0.00    -0.153 OA
ATOM     21  O   UNL     1      36.491 -18.110 -19.894  0.00  0.00    -0.153 OA
BRANCH  19  23
ATOM     22 CL   UNL     1      32.566 -13.534 -26.307  0.00  0.00    -0.082 Cl
ATOM     23  C   UNL     1      35.278 -18.100 -22.185  0.00  0.00    +0.122 C 
ATOM     24  C   UNL     1      35.206 -16.723 -22.056  0.00  0.00    +0.020 C 
ATOM     25  C   UNL     1      34.748 -18.752 -23.281  0.00  0.00    +0.020 C 
ATOM     26  C   UNL     1      34.584 -15.958 -23.056  0.00  0.00    +0.001 C 
ATOM     27  C   UNL     1      34.036 -16.609 -24.186  0.00  0.00    +0.001 C 
ATOM     28  C   UNL     1      34.127 -18.007 -24.284  0.00  0.00    +0.001 C 
ATOM     29  C   UNL     1      34.494 -14.559 -22.958  0.00  0.00    +0.001 C 
ATOM     30  C   UNL     1      33.413 -15.843 -25.185  0.00  0.00    +0.011 C 
ATOM     31  C   UNL     1      33.872 -13.814 -23.961  0.00  0.00    +0.011 C 
ATOM     32  C   UNL     1      33.333 -14.456 -25.072  0.00  0.00    +0.058 C 
ENDBRANCH  19  23
ENDBRANCH   1  19
TORSDOF 5
ENDMDL
MODEL 8
REMARK VINA RESULT:     -10.2      2.041      3.133
REMARK  Name = 6852168
REMARK  5 active torsions:
REMARK  status: ('A' for Active; 'I' for Inactive)
REMARK    1  A    between atoms: N_1  and  C_5
REMARK    2  A    between atoms: N_1  and  S_19
REMARK    3  A    between atoms: N_4  and  C_9
REMARK    4  A    between atoms: C_9  and  C_14
REMARK    5  A    between atoms: S_19  and  C_23
REMARK                            x       y       z     vdW  Elec       q    Type
REMARK                         _______ _______ _______ _____ _____    ______ ____
ROOT
ATOM      1  N   UNL     1      34.625 -15.830 -23.760  0.00  0.00    -0.172 NA
ATOM      2  H   UNL     1      34.970 -15.306 -24.564  0.00  0.00    +0.149 HD
ENDROOT
BRANCH   1   5
ATOM      3  O   UNL     1      32.957 -13.683 -25.108  0.00  0.00    -0.273 OA
ATOM      4  N   UNL     1      34.019 -12.763 -23.220  0.00  0.00    -0.272 N 
ATOM      5  C   UNL     1      33.520 -15.044 -23.183  0.00  0.00    +0.153 C 
ATOM      6  C   UNL     1      33.851 -14.574 -21.771  0.00  0.00    +0.048 C 
ATOM      7  C   UNL     1      34.565 -13.251 -21.975  0.00  0.00    +0.096 C 
ATOM      8  C   UNL     1      33.428 -13.769 -23.982  0.00  0.00    +0.242 C 
BRANCH   4   9
ATOM      9  C   UNL     1      34.233 -11.400 -23.656  0.00  0.00    +0.152 C 
ATOM     10  C   UNL     1      34.167 -11.260 -25.159  0.00  0.00    +0.031 C 
BRANCH   9  14
ATOM     11  O   UNL     1      33.787  -6.551 -22.323  0.00  0.00    -0.350 OA
ATOM     12  O   UNL     1      32.176 -11.223 -22.490  0.00  0.00    -0.273 OA
ATOM     13  N   UNL     1      33.251  -9.232 -23.005  0.00  0.00    -0.273 N 
ATOM     14  C   UNL     1      33.124 -10.618 -22.998  0.00  0.00    +0.244 C 
ATOM     15  C   UNL     1      34.295  -8.477 -23.708  0.00  0.00    +0.126 C 
ATOM     16  C   UNL     1      32.222  -8.397 -22.384  0.00  0.00    +0.126 C 
ATOM     17  C   UNL     1      34.847  -7.378 -22.808  0.00  0.00    +0.164 C 
ATOM     18  C   UNL     1      32.863  -7.308 -21.537  0.00  0.00    +0.164 C 
ENDBRANCH   9  14
ENDBRANCH   4   9
ENDBRANCH   1   5
BRANCH   1  19
ATOM     19  S   UNL     1      34.352 -17.424 -24.294  0.00  0.00    +0.061 S 
ATOM     20  O   UNL     1      35.229 -17.710 -25.413  0.00  0.00    -0.153 OA
ATOM     21  O   UNL     1      32.923 -17.646 -24.412  0.00  0.00    -0.153 OA
BRANCH  19  23
ATOM     22 CL   UNL     1      35.850 -22.320 -17.552  0.00  0.00    -0.082 Cl
ATOM     23  C   UNL     1      34.908 -18.370 -22.909  0.00  0.00    +0.122 C 
ATOM     24  C   UNL     1      33.997 -19.138 -22.206  0.00  0.00    +0.020 C 
ATOM     25  C   UNL     1      36.242 -18.323 -22.554  0.00  0.00    +0.020 C 
ATOM     26  C   UNL     1      34.423 -19.895 -21.102  0.00  0.00    +0.001 C 
ATOM     27  C   UNL     1      35.787 -19.861 -20.725  0.00  0.00    +0.001 C 
ATOM     28  C   UNL     1      36.684 -19.070 -21.462  0.00  0.00    +0.001 C 
ATOM     29  C   UNL     1      33.526 -20.687 -20.367  0.00  0.00    +0.001 C 
ATOM     30  C   UNL     1      36.213 -20.618 -19.622  0.00  0.00    +0.011 C 
ATOM     31  C   UNL     1      33.968 -21.433 -19.273  0.00  0.00    +0.011 C 
ATOM     32  C   UNL     1      35.308 -21.398 -18.901  0.00  0.00    +0.058 C 
ENDBRANCH  19  23
ENDBRANCH   1  19
TORSDOF 5
ENDMDL
MODEL 9
REMARK VINA RESULT:     -10.0      7.418     10.968
REMARK  Name = 6852168
REMARK  5 active torsions:
REMARK  status: ('A' for Active; 'I' for Inactive)
REMARK    1  A    between atoms: N_1  and  C_5
REMARK    2  A    between atoms: N_1  and  S_19
REMARK    3  A    between atoms: N_4  and  C_9
REMARK    4  A    between atoms: C_9  and  C_14
REMARK    5  A    between atoms: S_19  and  C_23
REMARK                            x       y       z     vdW  Elec       q    Type
REMARK                         _______ _______ _______ _____ _____    ______ ____
ROOT
ATOM      1  N   UNL     1      35.637 -22.558 -15.474  0.00  0.00    -0.172 NA
ATOM      2  H   UNL     1      34.803 -22.398 -16.039  0.00  0.00    +0.149 HD
ENDROOT
BRANCH   1   5
ATOM      3  O   UNL     1      33.844 -24.787 -16.489  0.00  0.00    -0.273 OA
ATOM      4  N   UNL     1      33.437 -24.453 -14.195  0.00  0.00    -0.272 N 
ATOM      5  C   UNL     1      35.570 -23.954 -15.005  0.00  0.00    +0.153 C 
ATOM      6  C   UNL     1      35.609 -24.029 -13.483  0.00  0.00    +0.048 C 
ATOM      7  C   UNL     1      34.155 -23.915 -13.064  0.00  0.00    +0.096 C 
ATOM      8  C   UNL     1      34.198 -24.469 -15.363  0.00  0.00    +0.242 C 
BRANCH   4   9
ATOM      9  C   UNL     1      32.029 -24.775 -14.112  0.00  0.00    +0.152 C 
ATOM     10  C   UNL     1      31.637 -25.299 -12.750  0.00  0.00    +0.031 C 
BRANCH   9  14
ATOM     11  O   UNL     1      27.651 -23.674 -16.375  0.00  0.00    -0.350 OA
ATOM     12  O   UNL     1      31.941 -22.410 -14.263  0.00  0.00    -0.273 OA
ATOM     13  N   UNL     1      30.005 -23.559 -14.830  0.00  0.00    -0.273 N 
ATOM     14  C   UNL     1      31.328 -23.472 -14.405  0.00  0.00    +0.244 C 
ATOM     15  C   UNL     1      29.209 -24.790 -14.887  0.00  0.00    +0.126 C 
ATOM     16  C   UNL     1      29.252 -22.343 -15.140  0.00  0.00    +0.126 C 
ATOM     17  C   UNL     1      28.435 -24.857 -16.198  0.00  0.00    +0.164 C 
ATOM     18  C   UNL     1      28.483 -22.513 -16.441  0.00  0.00    +0.164 C 
ENDBRANCH   9  14
ENDBRANCH   4   9
ENDBRANCH   1   5
BRANCH   1  19
ATOM     19  S   UNL     1      36.965 -22.031 -16.400  0.00  0.00    +0.061 S 
ATOM     20  O   UNL     1      37.802 -23.170 -16.727  0.00  0.00    -0.153 OA
ATOM     21  O   UNL     1      37.544 -20.858 -15.773  0.00  0.00    -0.153 OA
BRANCH  19  23
ATOM     22 CL   UNL     1      34.194 -18.731 -23.686  0.00  0.00    -0.082 Cl
ATOM     23  C   UNL     1      36.179 -21.487 -17.885  0.00  0.00    +0.122 C 
ATOM     24  C   UNL     1      36.825 -20.568 -18.695  0.00  0.00    +0.020 C 
ATOM     25  C   UNL     1      34.933 -21.987 -18.210  0.00  0.00    +0.020 C 
ATOM     26  C   UNL     1      36.212 -20.126 -19.879  0.00  0.00    +0.001 C 
ATOM     27  C   UNL     1      34.936 -20.629 -20.228  0.00  0.00    +0.001 C 
ATOM     28  C   UNL     1      34.310 -21.560 -19.382  0.00  0.00    +0.001 C 
ATOM     29  C   UNL     1      36.839 -19.196 -20.724  0.00  0.00    +0.001 C 
ATOM     30  C   UNL     1      34.324 -20.186 -21.411  0.00  0.00    +0.011 C 
ATOM     31  C   UNL     1      36.216 -18.768 -21.897  0.00  0.00    +0.011 C 
ATOM     32  C   UNL     1      34.960 -19.262 -22.239  0.00  0.00    +0.058 C 
ENDBRANCH  19  23
ENDBRANCH   1  19
TORSDOF 5
ENDMDL
