MODEL 1
REMARK VINA RESULT:     -11.5      0.000      0.000
REMARK  Name = 23586145
REMARK  7 active torsions:
REMARK  status: ('A' for Active; 'I' for Inactive)
REMARK    1  A    between atoms: C_5  and  O_24
REMARK    2  A    between atoms: C_7  and  N_10
REMARK    3  A    between atoms: N_10  and  C_12
REMARK    4  A    between atoms: C_15  and  S_18
REMARK    5  A    between atoms: S_18  and  N_21
REMARK    6  A    between atoms: O_24  and  C_25
REMARK    7  A    between atoms: C_25  and  C_26
REMARK                            x       y       z     vdW  Elec       q    Type
REMARK                         _______ _______ _______ _____ _____    ______ ____
ROOT
ATOM      1  N   UNL     1      31.377 -23.513 -15.929  0.00  0.00    -0.299 NA
ATOM      2  N   UNL     1      32.178 -24.502 -13.888  0.00  0.00    -0.106 N 
ATOM      3  N   UNL     1      31.660 -25.119 -12.794  0.00  0.00    -0.139 NA
ATOM      4  N   UNL     1      29.984 -24.531 -14.221  0.00  0.00    -0.145 NA
ATOM      5  C   UNL     1      32.622 -23.266 -16.182  0.00  0.00    +0.291 C 
ATOM      6  C   UNL     1      33.797 -23.594 -15.346  0.00  0.00    +0.105 C 
ATOM      7  C   UNL     1      33.519 -24.221 -14.189  0.00  0.00    +0.142 C 
ATOM      8  C   UNL     1      31.130 -24.150 -14.749  0.00  0.00    +0.178 C 
ATOM      9  C   UNL     1      30.356 -25.107 -13.049  0.00  0.00    +0.230 C 
ENDROOT
BRANCH   7  10
ATOM     10  N   UNL     1      34.464 -24.607 -13.282  0.00  0.00    -0.299 N 
ATOM     11  H   UNL     1      34.145 -24.739 -12.360  0.00  0.00    +0.153 HD
BRANCH  10  12
ATOM     12  C   UNL     1      35.828 -24.838 -13.494  0.00  0.00    +0.049 C 
ATOM     13  C   UNL     1      36.250 -25.752 -14.468  0.00  0.00    +0.016 C 
ATOM     14  C   UNL     1      36.788 -24.157 -12.733  0.00  0.00    +0.016 C 
ATOM     15  C   UNL     1      38.559 -25.300 -13.916  0.00  0.00    +0.122 C 
ATOM     16  C   UNL     1      37.610 -25.981 -14.678  0.00  0.00    +0.021 C 
ATOM     17  C   UNL     1      38.148 -24.387 -12.943  0.00  0.00    +0.021 C 
BRANCH  15  18
ATOM     18  S   UNL     1      40.260 -25.587 -14.179  0.00  0.00    +0.057 S 
ATOM     19  O   UNL     1      40.965 -24.320 -14.053  0.00  0.00    -0.153 OA
ATOM     20  O   UNL     1      40.668 -26.726 -13.368  0.00  0.00    -0.153 OA
BRANCH  18  21
ATOM     21  N   UNL     1      40.260 -26.057 -15.822  0.00  0.00    -0.203 NA
ATOM     22  H   UNL     1      41.203 -26.332 -16.097  0.00  0.00    +0.144 HD
ATOM     23  H   UNL     1      39.952 -25.275 -16.399  0.00  0.00    +0.144 HD
ENDBRANCH  18  21
ENDBRANCH  15  18
ENDBRANCH  10  12
ENDBRANCH   7  10
BRANCH   5  24
ATOM     24  O   UNL     1      32.962 -22.648 -17.309  0.00  0.00    -0.451 OA
BRANCH  24  25
ATOM     25  C   UNL     1      34.307 -22.823 -17.711  0.00  0.00    +0.208 C 
BRANCH  25  26
ATOM     26  C   UNL     1      34.512 -22.102 -19.042  0.00  0.00    +0.044 C 
ATOM     27  C   UNL     1      33.335 -21.161 -19.335  0.00  0.00    +0.004 C 
ATOM     28  C   UNL     1      35.840 -21.333 -19.043  0.00  0.00    +0.004 C 
ATOM     29  C   UNL     1      33.541 -20.388 -20.637  0.00  0.00    +0.000 C 
ATOM     30  C   UNL     1      36.042 -20.559 -20.345  0.00  0.00    +0.000 C 
ATOM     31  C   UNL     1      34.866 -19.633 -20.637  0.00  0.00    +0.000 C 
ENDBRANCH  25  26
ENDBRANCH  24  25
ENDBRANCH   5  24
TORSDOF 7
ENDMDL
MODEL 2
REMARK VINA RESULT:     -11.4      3.371      6.676
REMARK  Name = 23586145
REMARK  7 active torsions:
REMARK  status: ('A' for Active; 'I' for Inactive)
REMARK    1  A    between atoms: C_5  and  O_24
REMARK    2  A    between atoms: C_7  and  N_10
REMARK    3  A    between atoms: N_10  and  C_12
REMARK    4  A    between atoms: C_15  and  S_18
REMARK    5  A    between atoms: S_18  and  N_21
REMARK    6  A    between atoms: O_24  and  C_25
REMARK    7  A    between atoms: C_25  and  C_26
REMARK                            x       y       z     vdW  Elec       q    Type
REMARK                         _______ _______ _______ _____ _____    ______ ____
ROOT
ATOM      1  N   UNL     1      37.106 -23.778 -13.313  0.00  0.00    -0.299 NA
ATOM      2  N   UNL     1      35.185 -24.456 -12.034  0.00  0.00    -0.106 N 
ATOM      3  N   UNL     1      34.863 -24.667 -10.731  0.00  0.00    -0.139 NA
ATOM      4  N   UNL     1      37.038 -24.014 -10.897  0.00  0.00    -0.145 NA
ATOM      5  C   UNL     1      36.341 -23.911 -14.347  0.00  0.00    +0.291 C 
ATOM      6  C   UNL     1      34.921 -24.324 -14.375  0.00  0.00    +0.105 C 
ATOM      7  C   UNL     1      34.378 -24.591 -13.174  0.00  0.00    +0.142 C 
ATOM      8  C   UNL     1      36.525 -24.056 -12.110  0.00  0.00    +0.178 C 
ATOM      9  C   UNL     1      36.002 -24.389 -10.105  0.00  0.00    +0.230 C 
ENDROOT
BRANCH   7  10
ATOM     10  N   UNL     1      33.085 -24.986 -12.989  0.00  0.00    -0.299 N 
ATOM     11  H   UNL     1      32.939 -25.665 -12.292  0.00  0.00    +0.153 HD
BRANCH  10  12
ATOM     12  C   UNL     1      31.939 -24.550 -13.665  0.00  0.00    +0.049 C 
ATOM     13  C   UNL     1      30.805 -25.369 -13.739  0.00  0.00    +0.016 C 
ATOM     14  C   UNL     1      31.913 -23.290 -14.275  0.00  0.00    +0.016 C 
ATOM     15  C   UNL     1      29.646 -23.678 -15.017  0.00  0.00    +0.122 C 
ATOM     16  C   UNL     1      29.664 -24.935 -14.412  0.00  0.00    +0.021 C 
ATOM     17  C   UNL     1      30.771 -22.855 -14.949  0.00  0.00    +0.021 C 
BRANCH  15  18
ATOM     18  S   UNL     1      28.217 -23.134 -15.860  0.00  0.00    +0.057 S 
ATOM     19  O   UNL     1      27.168 -22.896 -14.879  0.00  0.00    -0.153 OA
ATOM     20  O   UNL     1      28.600 -22.075 -16.783  0.00  0.00    -0.153 OA
BRANCH  18  21
ATOM     21  N   UNL     1      27.822 -24.531 -16.763  0.00  0.00    -0.203 NA
ATOM     22  H   UNL     1      26.932 -24.385 -17.240  0.00  0.00    +0.144 HD
ATOM     23  H   UNL     1      27.745 -25.330 -16.135  0.00  0.00    +0.144 HD
ENDBRANCH  18  21
ENDBRANCH  15  18
ENDBRANCH  10  12
ENDBRANCH   7  10
BRANCH   5  24
ATOM     24  O   UNL     1      36.817 -23.662 -15.563  0.00  0.00    -0.451 OA
BRANCH  24  25
ATOM     25  C   UNL     1      36.595 -22.349 -16.042  0.00  0.00    +0.208 C 
BRANCH  25  26
ATOM     26  C   UNL     1      35.912 -22.440 -17.406  0.00  0.00    +0.044 C 
ATOM     27  C   UNL     1      34.386 -22.385 -17.252  0.00  0.00    +0.004 C 
ATOM     28  C   UNL     1      36.408 -21.326 -18.336  0.00  0.00    +0.004 C 
ATOM     29  C   UNL     1      33.681 -22.422 -18.607  0.00  0.00    +0.000 C 
ATOM     30  C   UNL     1      35.700 -21.364 -19.689  0.00  0.00    +0.000 C 
ATOM     31  C   UNL     1      34.184 -21.318 -19.531  0.00  0.00    +0.000 C 
ENDBRANCH  25  26
ENDBRANCH  24  25
ENDBRANCH   5  24
TORSDOF 7
ENDMDL
MODEL 3
REMARK VINA RESULT:     -11.0      1.364      2.193
REMARK  Name = 23586145
REMARK  7 active torsions:
REMARK  status: ('A' for Active; 'I' for Inactive)
REMARK    1  A    between atoms: C_5  and  O_24
REMARK    2  A    between atoms: C_7  and  N_10
REMARK    3  A    between atoms: N_10  and  C_12
REMARK    4  A    between atoms: C_15  and  S_18
REMARK    5  A    between atoms: S_18  and  N_21
REMARK    6  A    between atoms: O_24  and  C_25
REMARK    7  A    between atoms: C_25  and  C_26
REMARK                            x       y       z     vdW  Elec       q    Type
REMARK                         _______ _______ _______ _____ _____    ______ ____
ROOT
ATOM      1  N   UNL     1      32.259 -22.251 -17.966  0.00  0.00    -0.299 NA
ATOM      2  N   UNL     1      32.379 -23.305 -15.808  0.00  0.00    -0.106 N 
ATOM      3  N   UNL     1      31.526 -23.683 -14.820  0.00  0.00    -0.139 NA
ATOM      4  N   UNL     1      30.362 -22.728 -16.528  0.00  0.00    -0.145 NA
ATOM      5  C   UNL     1      33.545 -22.384 -17.993  0.00  0.00    +0.291 C 
ATOM      6  C   UNL     1      34.415 -22.982 -16.957  0.00  0.00    +0.105 C 
ATOM      7  C   UNL     1      33.775 -23.436 -15.865  0.00  0.00    +0.142 C 
ATOM      8  C   UNL     1      31.641 -22.721 -16.845  0.00  0.00    +0.178 C 
ATOM      9  C   UNL     1      30.345 -23.316 -15.305  0.00  0.00    +0.230 C 
ENDROOT
BRANCH   7  10
ATOM     10  N   UNL     1      34.398 -24.020 -14.800  0.00  0.00    -0.299 N 
ATOM     11  H   UNL     1      33.828 -24.210 -14.020  0.00  0.00    +0.153 HD
BRANCH  10  12
ATOM     12  C   UNL     1      35.744 -24.384 -14.674  0.00  0.00    +0.049 C 
ATOM     13  C   UNL     1      36.103 -25.726 -14.497  0.00  0.00    +0.016 C 
ATOM     14  C   UNL     1      36.748 -23.408 -14.723  0.00  0.00    +0.016 C 
ATOM     15  C   UNL     1      38.438 -25.109 -14.421  0.00  0.00    +0.122 C 
ATOM     16  C   UNL     1      37.444 -26.087 -14.371  0.00  0.00    +0.021 C 
ATOM     17  C   UNL     1      38.090 -23.769 -14.597  0.00  0.00    +0.021 C 
BRANCH  15  18
ATOM     18  S   UNL     1      40.117 -25.562 -14.264  0.00  0.00    +0.057 S 
ATOM     19  O   UNL     1      40.896 -24.356 -14.021  0.00  0.00    -0.153 OA
ATOM     20  O   UNL     1      40.209 -26.682 -13.338  0.00  0.00    -0.153 OA
BRANCH  18  21
ATOM     21  N   UNL     1      40.450 -26.126 -15.842  0.00  0.00    -0.203 NA
ATOM     22  H   UNL     1      39.787 -26.861 -16.086  0.00  0.00    +0.144 HD
ATOM     23  H   UNL     1      41.398 -26.499 -15.876  0.00  0.00    +0.144 HD
ENDBRANCH  18  21
ENDBRANCH  15  18
ENDBRANCH  10  12
ENDBRANCH   7  10
BRANCH   5  24
ATOM     24  O   UNL     1      34.236 -21.956 -19.045  0.00  0.00    -0.451 OA
BRANCH  24  25
ATOM     25  C   UNL     1      33.526 -21.111 -19.931  0.00  0.00    +0.208 C 
BRANCH  25  26
ATOM     26  C   UNL     1      34.445 -19.964 -20.348  0.00  0.00    +0.044 C 
ATOM     27  C   UNL     1      35.918 -20.373 -20.207  0.00  0.00    +0.004 C 
ATOM     28  C   UNL     1      34.137 -19.517 -21.783  0.00  0.00    +0.004 C 
ATOM     29  C   UNL     1      36.858 -19.260 -20.668  0.00  0.00    +0.000 C 
ATOM     30  C   UNL     1      35.080 -18.406 -22.242  0.00  0.00    +0.000 C 
ATOM     31  C   UNL     1      36.543 -18.813 -22.092  0.00  0.00    +0.000 C 
ENDBRANCH  25  26
ENDBRANCH  24  25
ENDBRANCH   5  24
TORSDOF 7
ENDMDL
MODEL 4
REMARK VINA RESULT:     -10.9      4.169      7.365
REMARK  Name = 23586145
REMARK  7 active torsions:
REMARK  status: ('A' for Active; 'I' for Inactive)
REMARK    1  A    between atoms: C_5  and  O_24
REMARK    2  A    between atoms: C_7  and  N_10
REMARK    3  A    between atoms: N_10  and  C_12
REMARK    4  A    between atoms: C_15  and  S_18
REMARK    5  A    between atoms: S_18  and  N_21
REMARK    6  A    between atoms: O_24  and  C_25
REMARK    7  A    between atoms: C_25  and  C_26
REMARK                            x       y       z     vdW  Elec       q    Type
REMARK                         _______ _______ _______ _____ _____    ______ ____
ROOT
ATOM      1  N   UNL     1      32.239 -23.299 -14.178  0.00  0.00    -0.299 NA
ATOM      2  N   UNL     1      33.915 -23.556 -15.885  0.00  0.00    -0.106 N 
ATOM      3  N   UNL     1      35.235 -23.866 -15.965  0.00  0.00    -0.139 NA
ATOM      4  N   UNL     1      34.561 -23.891 -13.789  0.00  0.00    -0.145 NA
ATOM      5  C   UNL     1      31.432 -23.021 -15.151  0.00  0.00    +0.291 C 
ATOM      6  C   UNL     1      31.741 -22.972 -16.596  0.00  0.00    +0.105 C 
ATOM      7  C   UNL     1      33.017 -23.250 -16.919  0.00  0.00    +0.142 C 
ATOM      8  C   UNL     1      33.525 -23.577 -14.540  0.00  0.00    +0.178 C 
ATOM      9  C   UNL     1      35.563 -24.055 -14.691  0.00  0.00    +0.230 C 
ENDROOT
BRANCH   7  10
ATOM     10  N   UNL     1      33.499 -23.258 -18.196  0.00  0.00    -0.299 N 
ATOM     11  H   UNL     1      33.472 -24.126 -18.660  0.00  0.00    +0.153 HD
BRANCH  10  12
ATOM     12  C   UNL     1      34.029 -22.191 -18.931  0.00  0.00    +0.049 C 
ATOM     13  C   UNL     1      33.182 -21.321 -19.629  0.00  0.00    +0.016 C 
ATOM     14  C   UNL     1      35.413 -21.981 -18.976  0.00  0.00    +0.016 C 
ATOM     15  C   UNL     1      35.091 -20.056 -20.401  0.00  0.00    +0.122 C 
ATOM     16  C   UNL     1      33.711 -20.258 -20.361  0.00  0.00    +0.021 C 
ATOM     17  C   UNL     1      35.942 -20.918 -19.708  0.00  0.00    +0.021 C 
BRANCH  15  18
ATOM     18  S   UNL     1      35.753 -18.725 -21.317  0.00  0.00    +0.057 S 
ATOM     19  O   UNL     1      35.481 -18.959 -22.728  0.00  0.00    -0.153 OA
ATOM     20  O   UNL     1      35.327 -17.479 -20.696  0.00  0.00    -0.153 OA
BRANCH  18  21
ATOM     21  N   UNL     1      37.425 -18.936 -21.034  0.00  0.00    -0.203 NA
ATOM     22  H   UNL     1      37.568 -19.753 -20.441  0.00  0.00    +0.144 HD
ATOM     23  H   UNL     1      37.797 -18.109 -20.569  0.00  0.00    +0.144 HD
ENDBRANCH  18  21
ENDBRANCH  15  18
ENDBRANCH  10  12
ENDBRANCH   7  10
BRANCH   5  24
ATOM     24  O   UNL     1      30.158 -22.737 -14.898  0.00  0.00    -0.451 OA
BRANCH  24  25
ATOM     25  C   UNL     1      29.294 -23.855 -14.819  0.00  0.00    +0.208 C 
BRANCH  25  26
ATOM     26  C   UNL     1      27.971 -23.491 -15.490  0.00  0.00    +0.044 C 
ATOM     27  C   UNL     1      27.249 -22.389 -14.701  0.00  0.00    +0.004 C 
ATOM     28  C   UNL     1      28.200 -23.061 -16.944  0.00  0.00    +0.004 C 
ATOM     29  C   UNL     1      25.946 -21.972 -15.380  0.00  0.00    +0.000 C 
ATOM     30  C   UNL     1      26.895 -22.642 -17.620  0.00  0.00    +0.000 C 
ATOM     31  C   UNL     1      26.177 -21.554 -16.829  0.00  0.00    +0.000 C 
ENDBRANCH  25  26
ENDBRANCH  24  25
ENDBRANCH   5  24
TORSDOF 7
ENDMDL
MODEL 5
REMARK VINA RESULT:     -10.6      6.758     10.205
REMARK  Name = 23586145
REMARK  7 active torsions:
REMARK  status: ('A' for Active; 'I' for Inactive)
REMARK    1  A    between atoms: C_5  and  O_24
REMARK    2  A    between atoms: C_7  and  N_10
REMARK    3  A    between atoms: N_10  and  C_12
REMARK    4  A    between atoms: C_15  and  S_18
REMARK    5  A    between atoms: S_18  and  N_21
REMARK    6  A    between atoms: O_24  and  C_25
REMARK    7  A    between atoms: C_25  and  C_26
REMARK                            x       y       z     vdW  Elec       q    Type
REMARK                         _______ _______ _______ _____ _____    ______ ____
ROOT
ATOM      1  N   UNL     1      33.721 -15.606 -23.938  0.00  0.00    -0.299 NA
ATOM      2  N   UNL     1      34.386 -17.889 -23.577  0.00  0.00    -0.106 N 
ATOM      3  N   UNL     1      34.143 -19.110 -24.121  0.00  0.00    -0.139 NA
ATOM      4  N   UNL     1      32.971 -17.511 -25.243  0.00  0.00    -0.145 NA
ATOM      5  C   UNL     1      34.490 -15.327 -22.936  0.00  0.00    +0.291 C 
ATOM      6  C   UNL     1      35.299 -16.265 -22.127  0.00  0.00    +0.105 C 
ATOM      7  C   UNL     1      35.212 -17.557 -22.492  0.00  0.00    +0.142 C 
ATOM      8  C   UNL     1      33.656 -16.924 -24.282  0.00  0.00    +0.178 C 
ATOM      9  C   UNL     1      33.297 -18.821 -25.105  0.00  0.00    +0.230 C 
ENDROOT
BRANCH   7  10
ATOM     10  N   UNL     1      35.882 -18.573 -21.873  0.00  0.00    -0.299 N 
ATOM     11  H   UNL     1      36.846 -18.631 -22.064  0.00  0.00    +0.153 HD
BRANCH  10  12
ATOM     12  C   UNL     1      35.373 -19.545 -21.004  0.00  0.00    +0.049 C 
ATOM     13  C   UNL     1      36.241 -20.366 -20.273  0.00  0.00    +0.016 C 
ATOM     14  C   UNL     1      33.990 -19.709 -20.856  0.00  0.00    +0.016 C 
ATOM     15  C   UNL     1      34.355 -21.491 -19.265  0.00  0.00    +0.122 C 
ATOM     16  C   UNL     1      35.733 -21.335 -19.407  0.00  0.00    +0.021 C 
ATOM     17  C   UNL     1      33.482 -20.677 -19.990  0.00  0.00    +0.021 C 
BRANCH  15  18
ATOM     18  S   UNL     1      33.720 -22.704 -18.181  0.00  0.00    +0.057 S 
ATOM     19  O   UNL     1      34.668 -22.887 -17.092  0.00  0.00    -0.153 OA
ATOM     20  O   UNL     1      32.332 -22.378 -17.885  0.00  0.00    -0.153 OA
BRANCH  18  21
ATOM     21  N   UNL     1      33.757 -24.087 -19.184  0.00  0.00    -0.203 NA
ATOM     22  H   UNL     1      33.327 -24.872 -18.695  0.00  0.00    +0.144 HD
ATOM     23  H   UNL     1      34.724 -24.316 -19.411  0.00  0.00    +0.144 HD
ENDBRANCH  18  21
ENDBRANCH  15  18
ENDBRANCH  10  12
ENDBRANCH   7  10
BRANCH   5  24
ATOM     24  O   UNL     1      34.618 -14.069 -22.526  0.00  0.00    -0.451 OA
BRANCH  24  25
ATOM     25  C   UNL     1      33.874 -13.116 -23.261  0.00  0.00    +0.208 C 
BRANCH  25  26
ATOM     26  C   UNL     1      32.713 -12.634 -22.393  0.00  0.00    +0.044 C 
ATOM     27  C   UNL     1      32.785 -13.263 -20.995  0.00  0.00    +0.004 C 
ATOM     28  C   UNL     1      32.702 -11.103 -22.304  0.00  0.00    +0.004 C 
ATOM     29  C   UNL     1      31.663 -12.756 -20.091  0.00  0.00    +0.000 C 
ATOM     30  C   UNL     1      31.580 -10.599 -21.397  0.00  0.00    +0.000 C 
ATOM     31  C   UNL     1      31.650 -11.233 -20.012  0.00  0.00    +0.000 C 
ENDBRANCH  25  26
ENDBRANCH  24  25
ENDBRANCH   5  24
TORSDOF 7
ENDMDL
MODEL 6
REMARK VINA RESULT:     -10.3      7.823     11.269
REMARK  Name = 23586145
REMARK  7 active torsions:
REMARK  status: ('A' for Active; 'I' for Inactive)
REMARK    1  A    between atoms: C_5  and  O_24
REMARK    2  A    between atoms: C_7  and  N_10
REMARK    3  A    between atoms: N_10  and  C_12
REMARK    4  A    between atoms: C_15  and  S_18
REMARK    5  A    between atoms: S_18  and  N_21
REMARK    6  A    between atoms: O_24  and  C_25
REMARK    7  A    between atoms: C_25  and  C_26
REMARK                            x       y       z     vdW  Elec       q    Type
REMARK                         _______ _______ _______ _____ _____    ______ ____
ROOT
ATOM      1  N   UNL     1      33.102 -13.794 -23.195  0.00  0.00    -0.299 NA
ATOM      2  N   UNL     1      34.294 -15.727 -23.987  0.00  0.00    -0.106 N 
ATOM      3  N   UNL     1      34.460 -16.403 -25.154  0.00  0.00    -0.139 NA
ATOM      4  N   UNL     1      33.070 -14.628 -25.476  0.00  0.00    -0.145 NA
ATOM      5  C   UNL     1      33.624 -14.066 -22.044  0.00  0.00    +0.291 C 
ATOM      6  C   UNL     1      34.536 -15.180 -21.704  0.00  0.00    +0.105 C 
ATOM      7  C   UNL     1      34.846 -15.998 -22.726  0.00  0.00    +0.142 C 
ATOM      8  C   UNL     1      33.437 -14.642 -24.210  0.00  0.00    +0.178 C 
ATOM      9  C   UNL     1      33.711 -15.703 -26.000  0.00  0.00    +0.230 C 
ENDROOT
BRANCH   7  10
ATOM     10  N   UNL     1      35.671 -17.081 -22.617  0.00  0.00    -0.299 N 
ATOM     11  H   UNL     1      36.471 -17.070 -23.189  0.00  0.00    +0.153 HD
BRANCH  10  12
ATOM     12  C   UNL     1      35.523 -18.205 -21.797  0.00  0.00    +0.049 C 
ATOM     13  C   UNL     1      36.596 -18.662 -21.021  0.00  0.00    +0.016 C 
ATOM     14  C   UNL     1      34.301 -18.887 -21.743  0.00  0.00    +0.016 C 
ATOM     15  C   UNL     1      35.227 -20.457 -20.156  0.00  0.00    +0.122 C 
ATOM     16  C   UNL     1      36.448 -19.783 -20.204  0.00  0.00    +0.021 C 
ATOM     17  C   UNL     1      34.153 -20.008 -20.926  0.00  0.00    +0.021 C 
BRANCH  15  18
ATOM     18  S   UNL     1      35.043 -21.860 -19.134  0.00  0.00    +0.057 S 
ATOM     19  O   UNL     1      35.154 -23.051 -19.964  0.00  0.00    -0.153 OA
ATOM     20  O   UNL     1      35.909 -21.704 -17.974  0.00  0.00    -0.153 OA
BRANCH  18  21
ATOM     21  N   UNL     1      33.419 -21.685 -18.633  0.00  0.00    -0.203 NA
ATOM     22  H   UNL     1      33.395 -21.331 -17.676  0.00  0.00    +0.144 HD
ATOM     23  H   UNL     1      32.951 -22.590 -18.672  0.00  0.00    +0.144 HD
ENDBRANCH  18  21
ENDBRANCH  15  18
ENDBRANCH  10  12
ENDBRANCH   7  10
BRANCH   5  24
ATOM     24  O   UNL     1      33.356 -13.297 -20.993  0.00  0.00    -0.451 OA
BRANCH  24  25
ATOM     25  C   UNL     1      32.007 -13.305 -20.568  0.00  0.00    +0.208 C 
BRANCH  25  26
ATOM     26  C   UNL     1      31.487 -11.869 -20.578  0.00  0.00    +0.044 C 
ATOM     27  C   UNL     1      31.887 -11.138 -19.288  0.00  0.00    +0.004 C 
ATOM     28  C   UNL     1      31.998 -11.116 -21.813  0.00  0.00    +0.004 C 
ATOM     29  C   UNL     1      31.423  -9.683 -19.298  0.00  0.00    +0.000 C 
ATOM     30  C   UNL     1      31.534  -9.660 -21.818  0.00  0.00    +0.000 C 
ATOM     31  C   UNL     1      31.926  -8.941 -20.532  0.00  0.00    +0.000 C 
ENDBRANCH  25  26
ENDBRANCH  24  25
ENDBRANCH   5  24
TORSDOF 7
ENDMDL
MODEL 7
REMARK VINA RESULT:     -10.3      3.433      6.713
REMARK  Name = 23586145
REMARK  7 active torsions:
REMARK  status: ('A' for Active; 'I' for Inactive)
REMARK    1  A    between atoms: C_5  and  O_24
REMARK    2  A    between atoms: C_7  and  N_10
REMARK    3  A    between atoms: N_10  and  C_12
REMARK    4  A    between atoms: C_15  and  S_18
REMARK    5  A    between atoms: S_18  and  N_21
REMARK    6  A    between atoms: O_24  and  C_25
REMARK    7  A    between atoms: C_25  and  C_26
REMARK                            x       y       z     vdW  Elec       q    Type
REMARK                         _______ _______ _______ _____ _____    ______ ____
ROOT
ATOM      1  N   UNL     1      37.578 -22.882 -15.600  0.00  0.00    -0.299 NA
ATOM      2  N   UNL     1      36.199 -24.196 -14.131  0.00  0.00    -0.106 N 
ATOM      3  N   UNL     1      36.365 -25.100 -13.131  0.00  0.00    -0.139 NA
ATOM      4  N   UNL     1      38.395 -24.417 -13.906  0.00  0.00    -0.145 NA
ATOM      5  C   UNL     1      36.464 -22.435 -16.085  0.00  0.00    +0.291 C 
ATOM      6  C   UNL     1      35.090 -22.795 -15.673  0.00  0.00    +0.105 C 
ATOM      7  C   UNL     1      35.007 -23.694 -14.677  0.00  0.00    +0.142 C 
ATOM      8  C   UNL     1      37.458 -23.791 -14.590  0.00  0.00    +0.178 C 
ATOM      9  C   UNL     1      37.688 -25.190 -13.042  0.00  0.00    +0.230 C 
ENDROOT
BRANCH   7  10
ATOM     10  N   UNL     1      33.832 -24.153 -14.156  0.00  0.00    -0.299 N 
ATOM     11  H   UNL     1      33.909 -24.704 -13.343  0.00  0.00    +0.153 HD
BRANCH  10  12
ATOM     12  C   UNL     1      32.531 -23.944 -14.629  0.00  0.00    +0.049 C 
ATOM     13  C   UNL     1      32.316 -23.260 -15.832  0.00  0.00    +0.016 C 
ATOM     14  C   UNL     1      31.429 -24.416 -13.905  0.00  0.00    +0.016 C 
ATOM     15  C   UNL     1      29.928 -23.525 -15.576  0.00  0.00    +0.122 C 
ATOM     16  C   UNL     1      31.020 -23.052 -16.303  0.00  0.00    +0.021 C 
ATOM     17  C   UNL     1      30.133 -24.208 -14.376  0.00  0.00    +0.021 C 
BRANCH  15  18
ATOM     18  S   UNL     1      28.306 -23.265 -16.166  0.00  0.00    +0.057 S 
ATOM     19  O   UNL     1      28.271 -21.988 -16.865  0.00  0.00    -0.153 OA
ATOM     20  O   UNL     1      27.861 -24.473 -16.845  0.00  0.00    -0.153 OA
BRANCH  18  21
ATOM     21  N   UNL     1      27.447 -23.113 -14.696  0.00  0.00    -0.203 NA
ATOM     22  H   UNL     1      28.058 -23.363 -13.919  0.00  0.00    +0.144 HD
ATOM     23  H   UNL     1      26.640 -23.737 -14.709  0.00  0.00    +0.144 HD
ENDBRANCH  18  21
ENDBRANCH  15  18
ENDBRANCH  10  12
ENDBRANCH   7  10
BRANCH   5  24
ATOM     24  O   UNL     1      36.479 -21.545 -17.072  0.00  0.00    -0.451 OA
BRANCH  24  25
ATOM     25  C   UNL     1      36.083 -22.040 -18.337  0.00  0.00    +0.208 C 
BRANCH  25  26
ATOM     26  C   UNL     1      35.343 -20.930 -19.081  0.00  0.00    +0.044 C 
ATOM     27  C   UNL     1      36.190 -20.402 -20.247  0.00  0.00    +0.004 C 
ATOM     28  C   UNL     1      33.979 -21.427 -19.579  0.00  0.00    +0.004 C 
ATOM     29  C   UNL     1      35.450 -19.326 -21.040  0.00  0.00    +0.000 C 
ATOM     30  C   UNL     1      33.242 -20.350 -20.373  0.00  0.00    +0.000 C 
ATOM     31  C   UNL     1      34.091 -19.821 -21.525  0.00  0.00    +0.000 C 
ENDBRANCH  25  26
ENDBRANCH  24  25
ENDBRANCH   5  24
TORSDOF 7
ENDMDL
MODEL 8
REMARK VINA RESULT:     -10.1      8.341     12.758
REMARK  Name = 23586145
REMARK  7 active torsions:
REMARK  status: ('A' for Active; 'I' for Inactive)
REMARK    1  A    between atoms: C_5  and  O_24
REMARK    2  A    between atoms: C_7  and  N_10
REMARK    3  A    between atoms: N_10  and  C_12
REMARK    4  A    between atoms: C_15  and  S_18
REMARK    5  A    between atoms: S_18  and  N_21
REMARK    6  A    between atoms: O_24  and  C_25
REMARK    7  A    between atoms: C_25  and  C_26
REMARK                            x       y       z     vdW  Elec       q    Type
REMARK                         _______ _______ _______ _____ _____    ______ ____
ROOT
ATOM      1  N   UNL     1      34.238 -18.937 -23.911  0.00  0.00    -0.299 NA
ATOM      2  N   UNL     1      33.734 -16.642 -24.425  0.00  0.00    -0.106 N 
ATOM      3  N   UNL     1      32.871 -15.950 -25.214  0.00  0.00    -0.139 NA
ATOM      4  N   UNL     1      32.524 -18.188 -25.459  0.00  0.00    -0.145 NA
ATOM      5  C   UNL     1      35.142 -18.457 -23.119  0.00  0.00    +0.291 C 
ATOM      6  C   UNL     1      35.466 -17.036 -22.871  0.00  0.00    +0.105 C 
ATOM      7  C   UNL     1      34.723 -16.151 -23.559  0.00  0.00    +0.142 C 
ATOM      8  C   UNL     1      33.502 -18.012 -24.593  0.00  0.00    +0.178 C 
ATOM      9  C   UNL     1      32.179 -16.921 -25.802  0.00  0.00    +0.230 C 
ENDROOT
BRANCH   7  10
ATOM     10  N   UNL     1      34.867 -14.796 -23.469  0.00  0.00    -0.299 N 
ATOM     11  H   UNL     1      35.645 -14.415 -23.937  0.00  0.00    +0.153 HD
BRANCH  10  12
ATOM     12  C   UNL     1      34.053 -13.879 -22.794  0.00  0.00    +0.049 C 
ATOM     13  C   UNL     1      33.786 -12.623 -23.352  0.00  0.00    +0.016 C 
ATOM     14  C   UNL     1      33.496 -14.208 -21.551  0.00  0.00    +0.016 C 
ATOM     15  C   UNL     1      32.424 -12.045 -21.441  0.00  0.00    +0.122 C 
ATOM     16  C   UNL     1      32.975 -11.710 -22.678  0.00  0.00    +0.021 C 
ATOM     17  C   UNL     1      32.685 -13.295 -20.877  0.00  0.00    +0.021 C 
BRANCH  15  18
ATOM     18  S   UNL     1      31.409 -10.902 -20.598  0.00  0.00    +0.057 S 
ATOM     19  O   UNL     1      30.026 -11.149 -20.978  0.00  0.00    -0.153 OA
ATOM     20  O   UNL     1      31.784 -10.900 -19.191  0.00  0.00    -0.153 OA
BRANCH  18  21
ATOM     21  N   UNL     1      31.921  -9.432 -21.304  0.00  0.00    -0.203 NA
ATOM     22  H   UNL     1      31.495  -8.650 -20.805  0.00  0.00    +0.144 HD
ATOM     23  H   UNL     1      31.636  -9.407 -22.282  0.00  0.00    +0.144 HD
ENDBRANCH  18  21
ENDBRANCH  15  18
ENDBRANCH  10  12
ENDBRANCH   7  10
BRANCH   5  24
ATOM     24  O   UNL     1      35.911 -19.280 -22.412  0.00  0.00    -0.451 OA
BRANCH  24  25
ATOM     25  C   UNL     1      35.744 -19.204 -21.009  0.00  0.00    +0.208 C 
BRANCH  25  26
ATOM     26  C   UNL     1      35.041 -20.476 -20.535  0.00  0.00    +0.044 C 
ATOM     27  C   UNL     1      35.768 -21.076 -19.324  0.00  0.00    +0.004 C 
ATOM     28  C   UNL     1      33.571 -20.191 -20.203  0.00  0.00    +0.004 C 
ATOM     29  C   UNL     1      35.055 -22.321 -18.799  0.00  0.00    +0.000 C 
ATOM     30  C   UNL     1      32.860 -21.437 -19.676  0.00  0.00    +0.000 C 
ATOM     31  C   UNL     1      33.591 -22.036 -18.479  0.00  0.00    +0.000 C 
ENDBRANCH  25  26
ENDBRANCH  24  25
ENDBRANCH   5  24
TORSDOF 7
ENDMDL
MODEL 9
REMARK VINA RESULT:      -9.8      3.166      4.603
REMARK  Name = 23586145
REMARK  7 active torsions:
REMARK  status: ('A' for Active; 'I' for Inactive)
REMARK    1  A    between atoms: C_5  and  O_24
REMARK    2  A    between atoms: C_7  and  N_10
REMARK    3  A    between atoms: N_10  and  C_12
REMARK    4  A    between atoms: C_15  and  S_18
REMARK    5  A    between atoms: S_18  and  N_21
REMARK    6  A    between atoms: O_24  and  C_25
REMARK    7  A    between atoms: C_25  and  C_26
REMARK                            x       y       z     vdW  Elec       q    Type
REMARK                         _______ _______ _______ _____ _____    ______ ____
ROOT
ATOM      1  N   UNL     1      34.258 -21.586 -19.484  0.00  0.00    -0.299 NA
ATOM      2  N   UNL     1      35.056 -22.515 -17.414  0.00  0.00    -0.106 N 
ATOM      3  N   UNL     1      34.571 -23.266 -16.391  0.00  0.00    -0.139 NA
ATOM      4  N   UNL     1      32.939 -22.917 -17.940  0.00  0.00    -0.145 NA
ATOM      5  C   UNL     1      35.454 -21.111 -19.617  0.00  0.00    +0.291 C 
ATOM      6  C   UNL     1      36.597 -21.264 -18.691  0.00  0.00    +0.105 C 
ATOM      7  C   UNL     1      36.345 -21.986 -17.585  0.00  0.00    +0.142 C 
ATOM      8  C   UNL     1      34.036 -22.314 -18.352  0.00  0.00    +0.178 C 
ATOM      9  C   UNL     1      33.312 -23.474 -16.760  0.00  0.00    +0.230 C 
ENDROOT
BRANCH   7  10
ATOM     10  N   UNL     1      37.267 -22.241 -16.611  0.00  0.00    -0.299 N 
ATOM     11  H   UNL     1      38.177 -21.908 -16.784  0.00  0.00    +0.153 HD
BRANCH  10  12
ATOM     12  C   UNL     1      37.085 -22.918 -15.399  0.00  0.00    +0.049 C 
ATOM     13  C   UNL     1      37.731 -24.138 -15.165  0.00  0.00    +0.016 C 
ATOM     14  C   UNL     1      36.256 -22.381 -14.406  0.00  0.00    +0.016 C 
ATOM     15  C   UNL     1      36.722 -24.270 -12.973  0.00  0.00    +0.122 C 
ATOM     16  C   UNL     1      37.549 -24.811 -13.956  0.00  0.00    +0.021 C 
ATOM     17  C   UNL     1      36.074 -23.054 -13.198  0.00  0.00    +0.021 C 
BRANCH  15  18
ATOM     18  S   UNL     1      36.495 -25.113 -11.461  0.00  0.00    +0.057 S 
ATOM     19  O   UNL     1      36.877 -26.505 -11.650  0.00  0.00    -0.153 OA
ATOM     20  O   UNL     1      37.112 -24.332 -10.399  0.00  0.00    -0.153 OA
BRANCH  18  21
ATOM     21  N   UNL     1      34.797 -25.024 -11.291  0.00  0.00    -0.203 NA
ATOM     22  H   UNL     1      34.530 -25.373 -10.371  0.00  0.00    +0.144 HD
ATOM     23  H   UNL     1      34.353 -25.592 -12.012  0.00  0.00    +0.144 HD
ENDBRANCH  18  21
ENDBRANCH  15  18
ENDBRANCH  10  12
ENDBRANCH   7  10
BRANCH   5  24
ATOM     24  O   UNL     1      35.767 -20.388 -20.689  0.00  0.00    -0.451 OA
BRANCH  24  25
ATOM     25  C   UNL     1      35.203 -19.091 -20.728  0.00  0.00    +0.208 C 
BRANCH  25  26
ATOM     26  C   UNL     1      35.242 -18.589 -22.170  0.00  0.00    +0.044 C 
ATOM     27  C   UNL     1      34.143 -19.259 -23.007  0.00  0.00    +0.004 C 
ATOM     28  C   UNL     1      35.109 -17.061 -22.216  0.00  0.00    +0.004 C 
ATOM     29  C   UNL     1      34.129 -18.735 -24.441  0.00  0.00    +0.000 C 
ATOM     30  C   UNL     1      35.092 -16.540 -23.653  0.00  0.00    +0.000 C 
ATOM     31  C   UNL     1      34.005 -17.215 -24.483  0.00  0.00    +0.000 C 
ENDBRANCH  25  26
ENDBRANCH  24  25
ENDBRANCH   5  24
TORSDOF 7
ENDMDL
