MODEL 1
REMARK VINA RESULT:     -12.0      0.000      0.000
REMARK  Name = 24996872
REMARK  6 active torsions:
REMARK  status: ('A' for Active; 'I' for Inactive)
REMARK    1  A    between atoms: O_1  and  C_3
REMARK    2  A    between atoms: O_1  and  C_18
REMARK    3  A    between atoms: C_7  and  C_8
REMARK    4  A    between atoms: C_11  and  S_14
REMARK    5  A    between atoms: C_18  and  C_23
REMARK    6  A    between atoms: C_29  and  C_30
REMARK                            x       y       z     vdW  Elec       q    Type
REMARK                         _______ _______ _______ _____ _____    ______ ____
ROOT
ATOM      1  O   UNL     1      34.908 -16.042 -24.602  0.00  0.00    -0.474 OA
ENDROOT
BRANCH   1   3
ATOM      2  N   UNL     1      33.998 -19.158 -22.909  0.00  0.00    -0.241 NA
ATOM      3  C   UNL     1      34.780 -16.978 -23.606  0.00  0.00    +0.158 C 
ATOM      4  C   UNL     1      35.269 -16.737 -22.327  0.00  0.00    +0.040 C 
ATOM      5  C   UNL     1      34.158 -18.194 -23.843  0.00  0.00    +0.136 C 
ATOM      6  C   UNL     1      35.123 -17.704 -21.338  0.00  0.00    +0.022 C 
ATOM      7  C   UNL     1      34.487 -18.887 -21.678  0.00  0.00    +0.082 C 
BRANCH   7   8
ATOM      8  C   UNL     1      34.300 -19.936 -20.704  0.00  0.00    +0.018 C 
ATOM      9  C   UNL     1      35.407 -20.597 -20.169  0.00  0.00    +0.003 C 
ATOM     10  C   UNL     1      33.014 -20.288 -20.295  0.00  0.00    +0.003 C 
ATOM     11  C   UNL     1      33.940 -21.962 -18.820  0.00  0.00    +0.106 C 
ATOM     12  C   UNL     1      35.226 -21.610 -19.228  0.00  0.00    +0.018 C 
ATOM     13  C   UNL     1      32.833 -21.301 -19.354  0.00  0.00    +0.018 C 
BRANCH  11  14
ATOM     14  S   UNL     1      33.713 -23.230 -17.641  0.00  0.00    +0.010 S 
ATOM     15  O   UNL     1      33.499 -24.478 -18.361  0.00  0.00    -0.169 OA
ATOM     16  O   UNL     1      34.772 -23.144 -16.645  0.00  0.00    -0.169 OA
ATOM     17  C   UNL     1      32.194 -22.805 -16.820  0.00  0.00    +0.182 C 
ENDBRANCH  11  14
ENDBRANCH   7   8
ENDBRANCH   1   3
BRANCH   1  18
ATOM     18  C   UNL     1      33.788 -15.215 -24.857  0.00  0.00    +0.205 C 
BRANCH  18  23
ATOM     19  O   UNL     1      32.721  -8.997 -23.754  0.00  0.00    -0.296 OA
ATOM     20  N   UNL     1      33.117 -11.259 -23.291  0.00  0.00    -0.251 N 
ATOM     21  N   UNL     1      32.398  -9.610 -21.624  0.00  0.00    -0.300 NA
ATOM     22  N   UNL     1      32.319  -7.841 -23.071  0.00  0.00    -0.010 NA
ATOM     23  C   UNL     1      33.996 -13.883 -24.141  0.00  0.00    +0.047 C 
ATOM     24  C   UNL     1      32.971 -13.702 -23.016  0.00  0.00    +0.025 C 
ATOM     25  C   UNL     1      33.887 -12.712 -25.123  0.00  0.00    +0.025 C 
ATOM     26  C   UNL     1      33.143 -12.355 -22.314  0.00  0.00    +0.096 C 
ATOM     27  C   UNL     1      34.051 -11.366 -24.417  0.00  0.00    +0.096 C 
ATOM     28  C   UNL     1      32.740  -9.992 -22.828  0.00  0.00    +0.379 C 
ATOM     29  C   UNL     1      32.148  -8.284 -21.822  0.00  0.00    +0.104 C 
BRANCH  29  30
ATOM     30  C   UNL     1      31.718  -7.398 -20.736  0.00  0.00    +0.101 C 
ATOM     31  C   UNL     1      32.779  -7.241 -19.616  0.00  0.00    +0.017 C 
ATOM     32  C   UNL     1      31.294  -5.989 -21.223  0.00  0.00    +0.017 C 
ENDBRANCH  29  30
ENDBRANCH  18  23
ENDBRANCH   1  18
TORSDOF 6
ENDMDL
MODEL 2
REMARK VINA RESULT:     -11.8      3.627     11.613
REMARK  Name = 24996872
REMARK  6 active torsions:
REMARK  status: ('A' for Active; 'I' for Inactive)
REMARK    1  A    between atoms: O_1  and  C_3
REMARK    2  A    between atoms: O_1  and  C_18
REMARK    3  A    between atoms: C_7  and  C_8
REMARK    4  A    between atoms: C_11  and  S_14
REMARK    5  A    between atoms: C_18  and  C_23
REMARK    6  A    between atoms: C_29  and  C_30
REMARK                            x       y       z     vdW  Elec       q    Type
REMARK                         _______ _______ _______ _____ _____    ______ ____
ROOT
ATOM      1  O   UNL     1      35.064 -18.137 -23.151  0.00  0.00    -0.474 OA
ENDROOT
BRANCH   1   3
ATOM      2  N   UNL     1      34.439 -14.747 -21.918  0.00  0.00    -0.241 NA
ATOM      3  C   UNL     1      34.646 -16.829 -23.130  0.00  0.00    +0.158 C 
ATOM      4  C   UNL     1      34.030 -16.256 -24.236  0.00  0.00    +0.040 C 
ATOM      5  C   UNL     1      34.826 -16.040 -22.005  0.00  0.00    +0.136 C 
ATOM      6  C   UNL     1      33.617 -14.929 -24.185  0.00  0.00    +0.022 C 
ATOM      7  C   UNL     1      33.843 -14.224 -23.014  0.00  0.00    +0.082 C 
BRANCH   7   8
ATOM      8  C   UNL     1      33.442 -12.843 -22.889  0.00  0.00    +0.018 C 
ATOM      9  C   UNL     1      32.503 -12.474 -21.925  0.00  0.00    +0.003 C 
ATOM     10  C   UNL     1      33.993 -11.878 -23.730  0.00  0.00    +0.003 C 
ATOM     11  C   UNL     1      32.667 -10.173 -22.647  0.00  0.00    +0.106 C 
ATOM     12  C   UNL     1      32.116 -11.139 -21.805  0.00  0.00    +0.018 C 
ATOM     13  C   UNL     1      33.606 -10.543 -23.611  0.00  0.00    +0.018 C 
BRANCH  11  14
ATOM     14  S   UNL     1      32.183  -8.504 -22.496  0.00  0.00    +0.010 S 
ATOM     15  O   UNL     1      33.156  -7.688 -23.211  0.00  0.00    -0.169 OA
ATOM     16  O   UNL     1      30.768  -8.390 -22.822  0.00  0.00    -0.169 OA
ATOM     17  C   UNL     1      32.345  -8.150 -20.760  0.00  0.00    +0.182 C 
ENDBRANCH  11  14
ENDBRANCH   7   8
ENDBRANCH   1   3
BRANCH   1  18
ATOM     18  C   UNL     1      35.900 -18.563 -22.091  0.00  0.00    +0.205 C 
BRANCH  18  23
ATOM     19  O   UNL     1      34.736 -22.684 -17.328  0.00  0.00    -0.296 OA
ATOM     20  N   UNL     1      34.323 -21.344 -19.205  0.00  0.00    -0.251 N 
ATOM     21  N   UNL     1      32.575 -22.400 -17.846  0.00  0.00    -0.300 NA
ATOM     22  N   UNL     1      34.008 -23.404 -16.372  0.00  0.00    -0.010 NA
ATOM     23  C   UNL     1      35.290 -19.814 -21.464  0.00  0.00    +0.047 C 
ATOM     24  C   UNL     1      33.958 -19.486 -20.780  0.00  0.00    +0.025 C 
ATOM     25  C   UNL     1      36.248 -20.437 -20.444  0.00  0.00    +0.025 C 
ATOM     26  C   UNL     1      33.352 -20.721 -20.115  0.00  0.00    +0.096 C 
ATOM     27  C   UNL     1      35.636 -21.667 -19.774  0.00  0.00    +0.096 C 
ATOM     28  C   UNL     1      33.817 -22.123 -18.157  0.00  0.00    +0.379 C 
ATOM     29  C   UNL     1      32.743 -23.187 -16.745  0.00  0.00    +0.104 C 
BRANCH  29  30
ATOM     30  C   UNL     1      31.609 -23.760 -16.013  0.00  0.00    +0.101 C 
ATOM     31  C   UNL     1      31.910 -24.013 -14.513  0.00  0.00    +0.017 C 
ATOM     32  C   UNL     1      30.314 -22.916 -16.127  0.00  0.00    +0.017 C 
ENDBRANCH  29  30
ENDBRANCH  18  23
ENDBRANCH   1  18
TORSDOF 6
ENDMDL
MODEL 3
REMARK VINA RESULT:     -11.5      2.936      4.841
REMARK  Name = 24996872
REMARK  6 active torsions:
REMARK  status: ('A' for Active; 'I' for Inactive)
REMARK    1  A    between atoms: O_1  and  C_3
REMARK    2  A    between atoms: O_1  and  C_18
REMARK    3  A    between atoms: C_7  and  C_8
REMARK    4  A    between atoms: C_11  and  S_14
REMARK    5  A    between atoms: C_18  and  C_23
REMARK    6  A    between atoms: C_29  and  C_30
REMARK                            x       y       z     vdW  Elec       q    Type
REMARK                         _______ _______ _______ _____ _____    ______ ____
ROOT
ATOM      1  O   UNL     1      33.754 -19.605 -21.826  0.00  0.00    -0.474 OA
ENDROOT
BRANCH   1   3
ATOM      2  N   UNL     1      35.871 -20.987 -19.178  0.00  0.00    -0.241 NA
ATOM      3  C   UNL     1      34.120 -20.287 -20.692  0.00  0.00    +0.158 C 
ATOM      4  C   UNL     1      33.176 -20.952 -19.919  0.00  0.00    +0.040 C 
ATOM      5  C   UNL     1      35.443 -20.334 -20.283  0.00  0.00    +0.136 C 
ATOM      6  C   UNL     1      33.577 -21.635 -18.776  0.00  0.00    +0.022 C 
ATOM      7  C   UNL     1      34.924 -21.622 -18.452  0.00  0.00    +0.082 C 
BRANCH   7   8
ATOM      8  C   UNL     1      35.413 -22.309 -17.280  0.00  0.00    +0.018 C 
ATOM      9  C   UNL     1      36.742 -22.154 -16.884  0.00  0.00    +0.003 C 
ATOM     10  C   UNL     1      34.557 -23.126 -16.543  0.00  0.00    +0.003 C 
ATOM     11  C   UNL     1      36.357 -23.636 -15.014  0.00  0.00    +0.106 C 
ATOM     12  C   UNL     1      37.213 -22.818 -15.752  0.00  0.00    +0.018 C 
ATOM     13  C   UNL     1      35.028 -23.790 -15.411  0.00  0.00    +0.018 C 
BRANCH  11  14
ATOM     14  S   UNL     1      36.947 -24.466 -13.597  0.00  0.00    +0.010 S 
ATOM     15  O   UNL     1      37.880 -23.580 -12.914  0.00  0.00    -0.169 OA
ATOM     16  O   UNL     1      35.815 -25.023 -12.870  0.00  0.00    -0.169 OA
ATOM     17  C   UNL     1      37.874 -25.840 -14.244  0.00  0.00    +0.182 C 
ENDBRANCH  11  14
ENDBRANCH   7   8
ENDBRANCH   1   3
BRANCH   1  18
ATOM     18  C   UNL     1      34.657 -19.635 -22.915  0.00  0.00    +0.205 C 
BRANCH  18  23
ATOM     19  O   UNL     1      33.399 -13.702 -24.975  0.00  0.00    -0.296 OA
ATOM     20  N   UNL     1      34.348 -15.407 -23.679  0.00  0.00    -0.251 N 
ATOM     21  N   UNL     1      34.433 -13.023 -23.107  0.00  0.00    -0.300 NA
ATOM     22  N   UNL     1      33.268 -12.307 -24.941  0.00  0.00    -0.010 NA
ATOM     23  C   UNL     1      35.011 -18.198 -23.291  0.00  0.00    +0.047 C 
ATOM     24  C   UNL     1      34.782 -17.253 -22.107  0.00  0.00    +0.025 C 
ATOM     25  C   UNL     1      34.181 -17.726 -24.489  0.00  0.00    +0.025 C 
ATOM     26  C   UNL     1      35.096 -15.804 -22.479  0.00  0.00    +0.096 C 
ATOM     27  C   UNL     1      34.491 -16.274 -24.853  0.00  0.00    +0.096 C 
ATOM     28  C   UNL     1      34.096 -14.041 -23.859  0.00  0.00    +0.379 C 
ATOM     29  C   UNL     1      33.903 -11.982 -23.811  0.00  0.00    +0.104 C 
BRANCH  29  30
ATOM     30  C   UNL     1      34.020 -10.592 -23.359  0.00  0.00    +0.101 C 
ATOM     31  C   UNL     1      34.941  -9.729 -24.260  0.00  0.00    +0.017 C 
ATOM     32  C   UNL     1      32.653  -9.877 -23.212  0.00  0.00    +0.017 C 
ENDBRANCH  29  30
ENDBRANCH  18  23
ENDBRANCH   1  18
TORSDOF 6
ENDMDL
MODEL 4
REMARK VINA RESULT:     -11.4      2.874      4.865
REMARK  Name = 24996872
REMARK  6 active torsions:
REMARK  status: ('A' for Active; 'I' for Inactive)
REMARK    1  A    between atoms: O_1  and  C_3
REMARK    2  A    between atoms: O_1  and  C_18
REMARK    3  A    between atoms: C_7  and  C_8
REMARK    4  A    between atoms: C_11  and  S_14
REMARK    5  A    between atoms: C_18  and  C_23
REMARK    6  A    between atoms: C_29  and  C_30
REMARK                            x       y       z     vdW  Elec       q    Type
REMARK                         _______ _______ _______ _____ _____    ______ ____
ROOT
ATOM      1  O   UNL     1      35.460 -19.880 -21.578  0.00  0.00    -0.474 OA
ENDROOT
BRANCH   1   3
ATOM      2  N   UNL     1      33.034 -21.176 -19.162  0.00  0.00    -0.241 NA
ATOM      3  C   UNL     1      34.954 -20.548 -20.490  0.00  0.00    +0.158 C 
ATOM      4  C   UNL     1      35.788 -21.253 -19.631  0.00  0.00    +0.040 C 
ATOM      5  C   UNL     1      33.596 -20.540 -20.214  0.00  0.00    +0.136 C 
ATOM      6  C   UNL     1      35.248 -21.920 -18.536  0.00  0.00    +0.022 C 
ATOM      7  C   UNL     1      33.877 -21.852 -18.349  0.00  0.00    +0.082 C 
BRANCH   7   8
ATOM      8  C   UNL     1      33.245 -22.519 -17.235  0.00  0.00    +0.018 C 
ATOM      9  C   UNL     1      31.854 -22.571 -17.150  0.00  0.00    +0.003 C 
ATOM     10  C   UNL     1      34.027 -23.114 -16.245  0.00  0.00    +0.003 C 
ATOM     11  C   UNL     1      32.026 -23.811 -15.083  0.00  0.00    +0.106 C 
ATOM     12  C   UNL     1      31.245 -23.216 -16.074  0.00  0.00    +0.018 C 
ATOM     13  C   UNL     1      33.418 -23.759 -15.168  0.00  0.00    +0.018 C 
BRANCH  11  14
ATOM     14  S   UNL     1      31.264 -24.618 -13.737  0.00  0.00    +0.010 S 
ATOM     15  O   UNL     1      32.113 -25.735 -13.344  0.00  0.00    -0.169 OA
ATOM     16  O   UNL     1      30.876 -23.623 -12.746  0.00  0.00    -0.169 OA
ATOM     17  C   UNL     1      29.761 -25.287 -14.415  0.00  0.00    +0.182 C 
ENDBRANCH  11  14
ENDBRANCH   7   8
ENDBRANCH   1   3
BRANCH   1  18
ATOM     18  C   UNL     1      34.549 -19.545 -22.608  0.00  0.00    +0.205 C 
BRANCH  18  23
ATOM     19  O   UNL     1      33.324 -13.942 -25.459  0.00  0.00    -0.296 OA
ATOM     20  N   UNL     1      34.216 -15.451 -23.906  0.00  0.00    -0.251 N 
ATOM     21  N   UNL     1      34.220 -13.015 -23.628  0.00  0.00    -0.300 NA
ATOM     22  N   UNL     1      33.167 -12.558 -25.606  0.00  0.00    -0.010 NA
ATOM     23  C   UNL     1      34.901 -18.156 -23.135  0.00  0.00    +0.047 C 
ATOM     24  C   UNL     1      34.577 -17.080 -22.093  0.00  0.00    +0.025 C 
ATOM     25  C   UNL     1      34.144 -17.856 -24.432  0.00  0.00    +0.025 C 
ATOM     26  C   UNL     1      34.890 -15.680 -22.620  0.00  0.00    +0.096 C 
ATOM     27  C   UNL     1      34.452 -16.451 -24.952  0.00  0.00    +0.096 C 
ATOM     28  C   UNL     1      33.952 -14.125 -24.268  0.00  0.00    +0.379 C 
ATOM     29  C   UNL     1      33.720 -12.081 -24.487  0.00  0.00    +0.104 C 
BRANCH  29  30
ATOM     30  C   UNL     1      33.782 -10.644 -24.203  0.00  0.00    +0.101 C 
ATOM     31  C   UNL     1      33.106 -10.253 -22.863  0.00  0.00    +0.017 C 
ATOM     32  C   UNL     1      35.224 -10.076 -24.218  0.00  0.00    +0.017 C 
ENDBRANCH  29  30
ENDBRANCH  18  23
ENDBRANCH   1  18
TORSDOF 6
ENDMDL
MODEL 5
REMARK VINA RESULT:     -11.1      3.587      5.958
REMARK  Name = 24996872
REMARK  6 active torsions:
REMARK  status: ('A' for Active; 'I' for Inactive)
REMARK    1  A    between atoms: O_1  and  C_3
REMARK    2  A    between atoms: O_1  and  C_18
REMARK    3  A    between atoms: C_7  and  C_8
REMARK    4  A    between atoms: C_11  and  S_14
REMARK    5  A    between atoms: C_18  and  C_23
REMARK    6  A    between atoms: C_29  and  C_30
REMARK                            x       y       z     vdW  Elec       q    Type
REMARK                         _______ _______ _______ _____ _____    ______ ____
ROOT
ATOM      1  O   UNL     1      35.912 -20.356 -20.717  0.00  0.00    -0.474 OA
ENDROOT
BRANCH   1   3
ATOM      2  N   UNL     1      36.873 -21.490 -17.372  0.00  0.00    -0.241 NA
ATOM      3  C   UNL     1      35.842 -20.988 -19.501  0.00  0.00    +0.158 C 
ATOM      4  C   UNL     1      34.730 -21.744 -19.149  0.00  0.00    +0.040 C 
ATOM      5  C   UNL     1      36.878 -20.893 -18.585  0.00  0.00    +0.136 C 
ATOM      6  C   UNL     1      34.688 -22.374 -17.909  0.00  0.00    +0.022 C 
ATOM      7  C   UNL     1      35.775 -22.216 -17.065  0.00  0.00    +0.082 C 
BRANCH   7   8
ATOM      8  C   UNL     1      35.801 -22.840 -15.763  0.00  0.00    +0.018 C 
ATOM      9  C   UNL     1      37.016 -23.027 -15.103  0.00  0.00    +0.003 C 
ATOM     10  C   UNL     1      34.612 -23.256 -15.165  0.00  0.00    +0.003 C 
ATOM     11  C   UNL     1      35.851 -24.046 -13.247  0.00  0.00    +0.106 C 
ATOM     12  C   UNL     1      37.040 -23.630 -13.846  0.00  0.00    +0.018 C 
ATOM     13  C   UNL     1      34.636 -23.859 -13.908  0.00  0.00    +0.018 C 
BRANCH  11  14
ATOM     14  S   UNL     1      35.882 -24.800 -11.674  0.00  0.00    +0.010 S 
ATOM     15  O   UNL     1      34.506 -24.924 -11.209  0.00  0.00    -0.169 OA
ATOM     16  O   UNL     1      36.733 -25.980 -11.732  0.00  0.00    -0.169 OA
ATOM     17  C   UNL     1      36.706 -23.617 -10.632  0.00  0.00    +0.182 C 
ENDBRANCH  11  14
ENDBRANCH   7   8
ENDBRANCH   1   3
BRANCH   1  18
ATOM     18  C   UNL     1      34.706 -19.826 -21.237  0.00  0.00    +0.205 C 
BRANCH  18  23
ATOM     19  O   UNL     1      33.395 -14.915 -25.134  0.00  0.00    -0.296 OA
ATOM     20  N   UNL     1      34.288 -16.068 -23.302  0.00  0.00    -0.251 N 
ATOM     21  N   UNL     1      34.214 -13.625 -23.496  0.00  0.00    -0.300 NA
ATOM     22  N   UNL     1      33.201 -13.590 -25.547  0.00  0.00    -0.010 NA
ATOM     23  C   UNL     1      35.032 -18.552 -22.013  0.00  0.00    +0.047 C 
ATOM     24  C   UNL     1      34.649 -17.308 -21.204  0.00  0.00    +0.025 C 
ATOM     25  C   UNL     1      34.301 -18.530 -23.359  0.00  0.00    +0.025 C 
ATOM     26  C   UNL     1      34.934 -16.025 -21.983  0.00  0.00    +0.096 C 
ATOM     27  C   UNL     1      34.581 -17.241 -24.132  0.00  0.00    +0.096 C 
ATOM     28  C   UNL     1      33.996 -14.845 -23.917  0.00  0.00    +0.379 C 
ATOM     29  C   UNL     1      33.709 -12.890 -24.529  0.00  0.00    +0.104 C 
BRANCH  29  30
ATOM     30  C   UNL     1      33.722 -11.424 -24.524  0.00  0.00    +0.101 C 
ATOM     31  C   UNL     1      33.462 -10.812 -23.123  0.00  0.00    +0.017 C 
ATOM     32  C   UNL     1      35.028 -10.818 -25.099  0.00  0.00    +0.017 C 
ENDBRANCH  29  30
ENDBRANCH  18  23
ENDBRANCH   1  18
TORSDOF 6
ENDMDL
MODEL 6
REMARK VINA RESULT:     -10.8      2.772      4.613
REMARK  Name = 24996872
REMARK  6 active torsions:
REMARK  status: ('A' for Active; 'I' for Inactive)
REMARK    1  A    between atoms: O_1  and  C_3
REMARK    2  A    between atoms: O_1  and  C_18
REMARK    3  A    between atoms: C_7  and  C_8
REMARK    4  A    between atoms: C_11  and  S_14
REMARK    5  A    between atoms: C_18  and  C_23
REMARK    6  A    between atoms: C_29  and  C_30
REMARK                            x       y       z     vdW  Elec       q    Type
REMARK                         _______ _______ _______ _____ _____    ______ ____
ROOT
ATOM      1  O   UNL     1      34.871 -19.759 -21.868  0.00  0.00    -0.474 OA
ENDROOT
BRANCH   1   3
ATOM      2  N   UNL     1      32.690 -21.142 -19.273  0.00  0.00    -0.241 NA
ATOM      3  C   UNL     1      34.477 -20.440 -20.743  0.00  0.00    +0.158 C 
ATOM      4  C   UNL     1      35.403 -21.100 -19.944  0.00  0.00    +0.040 C 
ATOM      5  C   UNL     1      33.144 -20.490 -20.368  0.00  0.00    +0.136 C 
ATOM      6  C   UNL     1      34.975 -21.782 -18.810  0.00  0.00    +0.022 C 
ATOM      7  C   UNL     1      33.620 -21.772 -18.521  0.00  0.00    +0.082 C 
BRANCH   7   8
ATOM      8  C   UNL     1      33.103 -22.458 -17.361  0.00  0.00    +0.018 C 
ATOM      9  C   UNL     1      31.726 -22.511 -17.137  0.00  0.00    +0.003 C 
ATOM     10  C   UNL     1      33.978 -23.069 -16.464  0.00  0.00    +0.003 C 
ATOM     11  C   UNL     1      32.104 -23.784 -15.119  0.00  0.00    +0.106 C 
ATOM     12  C   UNL     1      31.228 -23.174 -16.016  0.00  0.00    +0.018 C 
ATOM     13  C   UNL     1      33.480 -23.731 -15.343  0.00  0.00    +0.018 C 
BRANCH  11  14
ATOM     14  S   UNL     1      31.480 -24.614 -13.716  0.00  0.00    +0.010 S 
ATOM     15  O   UNL     1      32.430 -25.656 -13.351  0.00  0.00    -0.169 OA
ATOM     16  O   UNL     1      31.075 -23.627 -12.724  0.00  0.00    -0.169 OA
ATOM     17  C   UNL     1      29.996 -25.406 -14.294  0.00  0.00    +0.182 C 
ENDBRANCH  11  14
ENDBRANCH   7   8
ENDBRANCH   1   3
BRANCH   1  18
ATOM     18  C   UNL     1      36.115 -19.086 -21.811  0.00  0.00    +0.205 C 
BRANCH  18  23
ATOM     19  O   UNL     1      32.851 -13.773 -23.272  0.00  0.00    -0.296 OA
ATOM     20  N   UNL     1      34.108 -15.279 -21.993  0.00  0.00    -0.251 N 
ATOM     21  N   UNL     1      32.939 -13.326 -21.079  0.00  0.00    -0.300 NA
ATOM     22  N   UNL     1      32.091 -12.611 -23.079  0.00  0.00    -0.010 NA
ATOM     23  C   UNL     1      35.853 -17.582 -21.815  0.00  0.00    +0.047 C 
ATOM     24  C   UNL     1      34.920 -17.188 -20.664  0.00  0.00    +0.025 C 
ATOM     25  C   UNL     1      35.238 -17.138 -23.146  0.00  0.00    +0.025 C 
ATOM     26  C   UNL     1      34.618 -15.690 -20.678  0.00  0.00    +0.096 C 
ATOM     27  C   UNL     1      34.929 -15.641 -23.153  0.00  0.00    +0.096 C 
ATOM     28  C   UNL     1      33.313 -14.127 -22.044  0.00  0.00    +0.379 C 
ATOM     29  C   UNL     1      32.191 -12.413 -21.762  0.00  0.00    +0.104 C 
BRANCH  29  30
ATOM     30  C   UNL     1      31.536 -11.283 -21.095  0.00  0.00    +0.101 C 
ATOM     31  C   UNL     1      31.826 -11.217 -19.573  0.00  0.00    +0.017 C 
ATOM     32  C   UNL     1      31.882  -9.911 -21.729  0.00  0.00    +0.017 C 
ENDBRANCH  29  30
ENDBRANCH  18  23
ENDBRANCH   1  18
TORSDOF 6
ENDMDL
MODEL 7
REMARK VINA RESULT:     -10.8      3.812      6.464
REMARK  Name = 24996872
REMARK  6 active torsions:
REMARK  status: ('A' for Active; 'I' for Inactive)
REMARK    1  A    between atoms: O_1  and  C_3
REMARK    2  A    between atoms: O_1  and  C_18
REMARK    3  A    between atoms: C_7  and  C_8
REMARK    4  A    between atoms: C_11  and  S_14
REMARK    5  A    between atoms: C_18  and  C_23
REMARK    6  A    between atoms: C_29  and  C_30
REMARK                            x       y       z     vdW  Elec       q    Type
REMARK                         _______ _______ _______ _____ _____    ______ ____
ROOT
ATOM      1  O   UNL     1      35.210 -21.017 -20.600  0.00  0.00    -0.474 OA
ENDROOT
BRANCH   1   3
ATOM      2  N   UNL     1      34.601 -22.767 -17.442  0.00  0.00    -0.241 NA
ATOM      3  C   UNL     1      35.422 -21.503 -19.333  0.00  0.00    +0.158 C 
ATOM      4  C   UNL     1      36.610 -21.249 -18.657  0.00  0.00    +0.040 C 
ATOM      5  C   UNL     1      34.457 -22.260 -18.687  0.00  0.00    +0.136 C 
ATOM      6  C   UNL     1      36.795 -21.753 -17.374  0.00  0.00    +0.022 C 
ATOM      7  C   UNL     1      35.770 -22.500 -16.817  0.00  0.00    +0.082 C 
BRANCH   7   8
ATOM      8  C   UNL     1      35.892 -23.056 -15.490  0.00  0.00    +0.018 C 
ATOM      9  C   UNL     1      34.786 -23.641 -14.874  0.00  0.00    +0.003 C 
ATOM     10  C   UNL     1      37.117 -23.008 -14.824  0.00  0.00    +0.003 C 
ATOM     11  C   UNL     1      36.130 -24.130 -12.926  0.00  0.00    +0.106 C 
ATOM     12  C   UNL     1      34.905 -24.177 -13.592  0.00  0.00    +0.018 C 
ATOM     13  C   UNL     1      37.236 -23.544 -13.542  0.00  0.00    +0.018 C 
BRANCH  11  14
ATOM     14  S   UNL     1      36.279 -24.801 -11.322  0.00  0.00    +0.010 S 
ATOM     15  O   UNL     1      37.166 -23.937 -10.554  0.00  0.00    -0.169 OA
ATOM     16  O   UNL     1      34.949 -25.106 -10.811  0.00  0.00    -0.169 OA
ATOM     17  C   UNL     1      37.108 -26.355 -11.568  0.00  0.00    +0.182 C 
ENDBRANCH  11  14
ENDBRANCH   7   8
ENDBRANCH   1   3
BRANCH   1  18
ATOM     18  C   UNL     1      36.034 -19.947 -21.025  0.00  0.00    +0.205 C 
BRANCH  18  23
ATOM     19  O   UNL     1      34.648 -13.791 -22.119  0.00  0.00    -0.296 OA
ATOM     20  N   UNL     1      34.714 -16.107 -22.461  0.00  0.00    -0.251 N 
ATOM     21  N   UNL     1      34.019 -14.476 -24.156  0.00  0.00    -0.300 NA
ATOM     22  N   UNL     1      34.319 -12.633 -22.836  0.00  0.00    -0.010 NA
ATOM     23  C   UNL     1      35.139 -18.787 -21.453  0.00  0.00    +0.047 C 
ATOM     24  C   UNL     1      35.369 -18.435 -22.926  0.00  0.00    +0.025 C 
ATOM     25  C   UNL     1      35.396 -17.550 -20.586  0.00  0.00    +0.025 C 
ATOM     26  C   UNL     1      34.507 -17.250 -23.360  0.00  0.00    +0.096 C 
ATOM     27  C   UNL     1      34.539 -16.364 -21.028  0.00  0.00    +0.096 C 
ATOM     28  C   UNL     1      34.444 -14.830 -22.970  0.00  0.00    +0.379 C 
ATOM     29  C   UNL     1      33.958 -13.120 -24.027  0.00  0.00    +0.104 C 
BRANCH  29  30
ATOM     30  C   UNL     1      33.524 -12.248 -25.124  0.00  0.00    +0.101 C 
ATOM     31  C   UNL     1      34.466 -11.038 -25.354  0.00  0.00    +0.017 C 
ATOM     32  C   UNL     1      33.336 -12.998 -26.467  0.00  0.00    +0.017 C 
ENDBRANCH  29  30
ENDBRANCH  18  23
ENDBRANCH   1  18
TORSDOF 6
ENDMDL
MODEL 8
REMARK VINA RESULT:     -10.8      4.025     11.687
REMARK  Name = 24996872
REMARK  6 active torsions:
REMARK  status: ('A' for Active; 'I' for Inactive)
REMARK    1  A    between atoms: O_1  and  C_3
REMARK    2  A    between atoms: O_1  and  C_18
REMARK    3  A    between atoms: C_7  and  C_8
REMARK    4  A    between atoms: C_11  and  S_14
REMARK    5  A    between atoms: C_18  and  C_23
REMARK    6  A    between atoms: C_29  and  C_30
REMARK                            x       y       z     vdW  Elec       q    Type
REMARK                         _______ _______ _______ _____ _____    ______ ____
ROOT
ATOM      1  O   UNL     1      35.213 -17.537 -22.969  0.00  0.00    -0.474 OA
ENDROOT
BRANCH   1   3
ATOM      2  N   UNL     1      34.211 -14.271 -21.652  0.00  0.00    -0.241 NA
ATOM      3  C   UNL     1      34.720 -16.256 -22.936  0.00  0.00    +0.158 C 
ATOM      4  C   UNL     1      34.240 -15.643 -24.087  0.00  0.00    +0.040 C 
ATOM      5  C   UNL     1      34.683 -15.534 -21.753  0.00  0.00    +0.136 C 
ATOM      6  C   UNL     1      33.745 -14.344 -24.023  0.00  0.00    +0.022 C 
ATOM      7  C   UNL     1      33.754 -13.708 -22.793  0.00  0.00    +0.082 C 
BRANCH   7   8
ATOM      8  C   UNL     1      33.257 -12.360 -22.650  0.00  0.00    +0.018 C 
ATOM      9  C   UNL     1      32.268 -12.077 -21.707  0.00  0.00    +0.003 C 
ATOM     10  C   UNL     1      33.765 -11.341 -23.455  0.00  0.00    +0.003 C 
ATOM     11  C   UNL     1      32.297  -9.755 -22.375  0.00  0.00    +0.106 C 
ATOM     12  C   UNL     1      31.789 -10.774 -21.571  0.00  0.00    +0.018 C 
ATOM     13  C   UNL     1      33.285 -10.038 -23.319  0.00  0.00    +0.018 C 
BRANCH  11  14
ATOM     14  S   UNL     1      31.696  -8.125 -22.204  0.00  0.00    +0.010 S 
ATOM     15  O   UNL     1      30.491  -8.003 -23.012  0.00  0.00    -0.169 OA
ATOM     16  O   UNL     1      31.654  -7.783 -20.789  0.00  0.00    -0.169 OA
ATOM     17  C   UNL     1      32.955  -7.109 -22.945  0.00  0.00    +0.182 C 
ENDBRANCH  11  14
ENDBRANCH   7   8
ENDBRANCH   1   3
BRANCH   1  18
ATOM     18  C   UNL     1      34.285 -18.589 -22.783  0.00  0.00    +0.205 C 
BRANCH  18  23
ATOM     19  O   UNL     1      37.219 -20.788 -17.532  0.00  0.00    -0.296 OA
ATOM     20  N   UNL     1      35.738 -20.740 -19.346  0.00  0.00    -0.251 N 
ATOM     21  N   UNL     1      35.598 -22.333 -17.486  0.00  0.00    -0.300 NA
ATOM     22  N   UNL     1      37.416 -21.526 -16.357  0.00  0.00    -0.010 NA
ATOM     23  C   UNL     1      34.934 -19.659 -21.907  0.00  0.00    +0.047 C 
ATOM     24  C   UNL     1      33.915 -20.254 -20.929  0.00  0.00    +0.025 C 
ATOM     25  C   UNL     1      36.116 -19.079 -21.124  0.00  0.00    +0.025 C 
ATOM     26  C   UNL     1      34.559 -21.300 -20.020  0.00  0.00    +0.096 C 
ATOM     27  C   UNL     1      36.752 -20.126 -20.209  0.00  0.00    +0.096 C 
ATOM     28  C   UNL     1      36.129 -21.328 -18.136  0.00  0.00    +0.379 C 
ATOM     29  C   UNL     1      36.421 -22.417 -16.401  0.00  0.00    +0.104 C 
BRANCH  29  30
ATOM     30  C   UNL     1      36.229 -23.419 -15.349  0.00  0.00    +0.101 C 
ATOM     31  C   UNL     1      37.098 -23.162 -14.090  0.00  0.00    +0.017 C 
ATOM     32  C   UNL     1      34.750 -23.575 -14.912  0.00  0.00    +0.017 C 
ENDBRANCH  29  30
ENDBRANCH  18  23
ENDBRANCH   1  18
TORSDOF 6
ENDMDL
MODEL 9
REMARK VINA RESULT:     -10.7      3.653     11.554
REMARK  Name = 24996872
REMARK  6 active torsions:
REMARK  status: ('A' for Active; 'I' for Inactive)
REMARK    1  A    between atoms: O_1  and  C_3
REMARK    2  A    between atoms: O_1  and  C_18
REMARK    3  A    between atoms: C_7  and  C_8
REMARK    4  A    between atoms: C_11  and  S_14
REMARK    5  A    between atoms: C_18  and  C_23
REMARK    6  A    between atoms: C_29  and  C_30
REMARK                            x       y       z     vdW  Elec       q    Type
REMARK                         _______ _______ _______ _____ _____    ______ ____
ROOT
ATOM      1  O   UNL     1      34.898 -18.235 -23.651  0.00  0.00    -0.474 OA
ENDROOT
BRANCH   1   3
ATOM      2  N   UNL     1      34.576 -14.831 -22.343  0.00  0.00    -0.241 NA
ATOM      3  C   UNL     1      34.537 -16.913 -23.573  0.00  0.00    +0.158 C 
ATOM      4  C   UNL     1      33.798 -16.310 -24.584  0.00  0.00    +0.040 C 
ATOM      5  C   UNL     1      34.898 -16.137 -22.483  0.00  0.00    +0.136 C 
ATOM      6  C   UNL     1      33.447 -14.969 -24.477  0.00  0.00    +0.022 C 
ATOM      7  C   UNL     1      33.857 -14.280 -23.347  0.00  0.00    +0.082 C 
BRANCH   7   8
ATOM      8  C   UNL     1      33.530 -12.885 -23.168  0.00  0.00    +0.018 C 
ATOM      9  C   UNL     1      34.112 -11.920 -23.990  0.00  0.00    +0.003 C 
ATOM     10  C   UNL     1      32.630 -12.502 -22.173  0.00  0.00    +0.003 C 
ATOM     11  C   UNL     1      32.896 -10.190 -22.822  0.00  0.00    +0.106 C 
ATOM     12  C   UNL     1      33.795 -10.574 -23.816  0.00  0.00    +0.018 C 
ATOM     13  C   UNL     1      32.313 -11.155 -21.999  0.00  0.00    +0.018 C 
BRANCH  11  14
ATOM     14  S   UNL     1      32.499  -8.505 -22.605  0.00  0.00    +0.010 S 
ATOM     15  O   UNL     1      33.675  -7.718 -22.954  0.00  0.00    -0.169 OA
ATOM     16  O   UNL     1      31.227  -8.230 -23.259  0.00  0.00    -0.169 OA
ATOM     17  C   UNL     1      32.229  -8.335 -20.855  0.00  0.00    +0.182 C 
ENDBRANCH  11  14
ENDBRANCH   7   8
ENDBRANCH   1   3
BRANCH   1  18
ATOM     18  C   UNL     1      36.001 -18.649 -22.866  0.00  0.00    +0.205 C 
BRANCH  18  23
ATOM     19  O   UNL     1      32.986 -22.502 -18.732  0.00  0.00    -0.296 OA
ATOM     20  N   UNL     1      34.627 -21.054 -19.567  0.00  0.00    -0.251 N 
ATOM     21  N   UNL     1      34.872 -22.396 -17.528  0.00  0.00    -0.300 NA
ATOM     22  N   UNL     1      32.808 -23.375 -17.650  0.00  0.00    -0.010 NA
ATOM     23  C   UNL     1      35.486 -19.070 -21.491  0.00  0.00    +0.047 C 
ATOM     24  C   UNL     1      36.484 -20.004 -20.798  0.00  0.00    +0.025 C 
ATOM     25  C   UNL     1      34.128 -19.768 -21.607  0.00  0.00    +0.025 C 
ATOM     26  C   UNL     1      35.966 -20.464 -19.436  0.00  0.00    +0.096 C 
ATOM     27  C   UNL     1      33.616 -20.234 -20.243  0.00  0.00    +0.096 C 
ATOM     28  C   UNL     1      34.226 -21.968 -18.584  0.00  0.00    +0.379 C 
ATOM     29  C   UNL     1      33.962 -23.257 -16.988  0.00  0.00    +0.104 C 
BRANCH  29  30
ATOM     30  C   UNL     1      34.231 -24.007 -15.757  0.00  0.00    +0.101 C 
ATOM     31  C   UNL     1      35.602 -23.665 -15.117  0.00  0.00    +0.017 C 
ATOM     32  C   UNL     1      33.125 -23.845 -14.684  0.00  0.00    +0.017 C 
ENDBRANCH  29  30
ENDBRANCH  18  23
ENDBRANCH   1  18
TORSDOF 6
ENDMDL
