MODEL 1
REMARK VINA RESULT:     -11.4      0.000      0.000
REMARK  Name = 9804992
REMARK  10 active torsions:
REMARK  status: ('A' for Active; 'I' for Inactive)
REMARK    1  A    between atoms: C_1  and  C_9
REMARK    2  A    between atoms: C_1  and  O_19
REMARK    3  A    between atoms: C_2  and  C_12
REMARK    4  A    between atoms: C_12  and  N_13
REMARK    5  A    between atoms: N_13  and  C_15
REMARK    6  A    between atoms: N_13  and  C_17
REMARK    7  A    between atoms: O_19  and  C_22
REMARK    8  A    between atoms: N_21  and  C_24
REMARK    9  A    between atoms: C_27  and  C_32
REMARK   10  A    between atoms: N_31  and  O_34
REMARK                            x       y       z     vdW  Elec       q    Type
REMARK                         _______ _______ _______ _____ _____    ______ ____
ROOT
ATOM      1  C   UNL     1      36.646 -21.005 -19.948  0.00  0.00    +0.237 C 
ENDROOT
BRANCH   1   9
ATOM      2  C   UNL     1      32.348 -23.398 -15.672  0.00  0.00    -0.043 C 
ATOM      3  C   UNL     1      33.254 -22.343 -17.668  0.00  0.00    -0.000 C 
ATOM      4  C   UNL     1      34.563 -22.526 -17.162  0.00  0.00    -0.000 C 
ATOM      5  C   UNL     1      32.157 -22.785 -16.910  0.00  0.00    -0.006 C 
ATOM      6  C   UNL     1      33.635 -23.578 -15.175  0.00  0.00    -0.006 C 
ATOM      7  C   UNL     1      34.736 -23.145 -15.913  0.00  0.00    -0.000 C 
ATOM      8  C   UNL     1      35.660 -22.084 -17.919  0.00  0.00    -0.001 C 
ATOM      9  C   UNL     1      35.469 -21.469 -19.158  0.00  0.00    +0.021 C 
ATOM     10  C   UNL     1      33.080 -21.723 -18.916  0.00  0.00    -0.000 C 
ATOM     11  C   UNL     1      34.182 -21.290 -19.655  0.00  0.00    -0.001 C 
BRANCH   2  12
ATOM     12  C   UNL     1      31.171 -23.862 -14.881  0.00  0.00    -0.050 C 
BRANCH  12  13
ATOM     13  N   UNL     1      29.907 -23.648 -15.586  0.00  0.00    +0.390 N 
ATOM     14  H   UNL     1      30.112 -23.397 -16.552  0.00  0.00    -0.079 HD
BRANCH  13  15
ATOM     15  C   UNL     1      29.111 -24.874 -15.586  0.00  0.00    -0.077 C 
ATOM     16  C   UNL     1      29.496 -25.780 -14.430  0.00  0.00    -0.025 C 
ENDBRANCH  13  15
BRANCH  13  17
ATOM     17  C   UNL     1      29.160 -22.552 -14.972  0.00  0.00    -0.077 C 
ATOM     18  C   UNL     1      27.700 -22.580 -15.391  0.00  0.00    -0.025 C 
ENDBRANCH  13  17
ENDBRANCH  12  13
ENDBRANCH   2  12
ENDBRANCH   1   9
BRANCH   1  19
ATOM     19  O   UNL     1      36.805 -19.603 -19.779  0.00  0.00    -0.429 OA
BRANCH  19  22
ATOM     20  O   UNL     1      37.784 -18.639 -21.608  0.00  0.00    -0.226 OA
ATOM     21  N   UNL     1      35.504 -18.383 -21.142  0.00  0.00    -0.250 N 
ATOM     22  C   UNL     1      36.788 -18.843 -20.924  0.00  0.00    +0.406 C 
ATOM     23  H   UNL     1      34.829 -18.655 -20.477  0.00  0.00    +0.158 HD
BRANCH  21  24
ATOM     24  C   UNL     1      35.038 -17.570 -22.200  0.00  0.00    +0.053 C 
ATOM     25  C   UNL     1      34.966 -16.186 -22.037  0.00  0.00    +0.015 C 
ATOM     26  C   UNL     1      34.649 -18.152 -23.407  0.00  0.00    +0.015 C 
ATOM     27  C   UNL     1      34.116 -15.967 -24.289  0.00  0.00    +0.055 C 
ATOM     28  C   UNL     1      34.505 -15.385 -23.081  0.00  0.00    +0.006 C 
ATOM     29  C   UNL     1      34.188 -17.350 -24.451  0.00  0.00    +0.006 C 
BRANCH  27  32
ATOM     30  O   UNL     1      33.392 -15.618 -26.496  0.00  0.00    -0.268 OA
ATOM     31  N   UNL     1      33.475 -13.778 -25.112  0.00  0.00    -0.193 N 
ATOM     32  C   UNL     1      33.635 -15.130 -25.376  0.00  0.00    +0.268 C 
ATOM     33  H   UNL     1      33.669 -13.400 -24.223  0.00  0.00    +0.183 HD
BRANCH  31  34
ATOM     34  O   UNL     1      33.023 -12.974 -26.168  0.00  0.00    -0.295 OA
ATOM     35  H   UNL     1      33.016 -13.492 -26.989  0.00  0.00    +0.241 HD
ENDBRANCH  31  34
ENDBRANCH  27  32
ENDBRANCH  21  24
ENDBRANCH  19  22
ENDBRANCH   1  19
TORSDOF 10
ENDMDL
MODEL 2
REMARK VINA RESULT:     -11.3      2.832      4.136
REMARK  Name = 9804992
REMARK  10 active torsions:
REMARK  status: ('A' for Active; 'I' for Inactive)
REMARK    1  A    between atoms: C_1  and  C_9
REMARK    2  A    between atoms: C_1  and  O_19
REMARK    3  A    between atoms: C_2  and  C_12
REMARK    4  A    between atoms: C_12  and  N_13
REMARK    5  A    between atoms: N_13  and  C_15
REMARK    6  A    between atoms: N_13  and  C_17
REMARK    7  A    between atoms: O_19  and  C_22
REMARK    8  A    between atoms: N_21  and  C_24
REMARK    9  A    between atoms: C_27  and  C_32
REMARK   10  A    between atoms: N_31  and  O_34
REMARK                            x       y       z     vdW  Elec       q    Type
REMARK                         _______ _______ _______ _____ _____    ______ ____
ROOT
ATOM      1  C   UNL     1      35.391 -20.722 -20.189  0.00  0.00    +0.237 C 
ENDROOT
BRANCH   1   9
ATOM      2  C   UNL     1      35.837 -23.771 -14.445  0.00  0.00    -0.043 C 
ATOM      3  C   UNL     1      34.910 -22.937 -16.533  0.00  0.00    -0.000 C 
ATOM      4  C   UNL     1      36.151 -22.325 -16.832  0.00  0.00    -0.000 C 
ATOM      5  C   UNL     1      34.769 -23.656 -15.336  0.00  0.00    -0.006 C 
ATOM      6  C   UNL     1      37.057 -23.170 -14.740  0.00  0.00    -0.006 C 
ATOM      7  C   UNL     1      37.215 -22.452 -15.924  0.00  0.00    -0.000 C 
ATOM      8  C   UNL     1      36.291 -21.606 -18.030  0.00  0.00    -0.001 C 
ATOM      9  C   UNL     1      35.223 -21.490 -18.921  0.00  0.00    +0.021 C 
ATOM     10  C   UNL     1      33.846 -22.810 -17.442  0.00  0.00    -0.000 C 
ATOM     11  C   UNL     1      34.003 -22.092 -18.628  0.00  0.00    -0.001 C 
BRANCH   2  12
ATOM     12  C   UNL     1      35.670 -24.538 -13.177  0.00  0.00    -0.050 C 
BRANCH  12  13
ATOM     13  N   UNL     1      36.949 -24.822 -12.525  0.00  0.00    +0.390 N 
ATOM     14  H   UNL     1      37.696 -24.411 -13.083  0.00  0.00    -0.079 HD
BRANCH  13  15
ATOM     15  C   UNL     1      36.985 -24.223 -11.192  0.00  0.00    -0.077 C 
ATOM     16  C   UNL     1      35.641 -24.352 -10.495  0.00  0.00    -0.025 C 
ENDBRANCH  13  15
BRANCH  13  17
ATOM     17  C   UNL     1      37.171 -26.264 -12.445  0.00  0.00    -0.077 C 
ATOM     18  C   UNL     1      37.217 -26.891 -13.828  0.00  0.00    -0.025 C 
ENDBRANCH  13  17
ENDBRANCH  12  13
ENDBRANCH   2  12
ENDBRANCH   1   9
BRANCH   1  19
ATOM     19  O   UNL     1      36.546 -19.898 -20.093  0.00  0.00    -0.429 OA
BRANCH  19  22
ATOM     20  O   UNL     1      37.612 -18.555 -21.606  0.00  0.00    -0.226 OA
ATOM     21  N   UNL     1      35.396 -18.173 -20.954  0.00  0.00    -0.250 N 
ATOM     22  C   UNL     1      36.610 -18.832 -20.957  0.00  0.00    +0.406 C 
ATOM     23  H   UNL     1      34.703 -18.549 -20.362  0.00  0.00    +0.158 HD
BRANCH  21  24
ATOM     24  C   UNL     1      35.025 -17.028 -21.694  0.00  0.00    +0.053 C 
ATOM     25  C   UNL     1      35.038 -17.065 -23.089  0.00  0.00    +0.015 C 
ATOM     26  C   UNL     1      34.646 -15.861 -21.030  0.00  0.00    +0.015 C 
ATOM     27  C   UNL     1      34.294 -14.767 -23.155  0.00  0.00    +0.055 C 
ATOM     28  C   UNL     1      34.673 -15.935 -23.819  0.00  0.00    +0.006 C 
ATOM     29  C   UNL     1      34.280 -14.731 -21.761  0.00  0.00    +0.006 C 
BRANCH  27  32
ATOM     30  O   UNL     1      33.310 -13.699 -25.001  0.00  0.00    -0.268 OA
ATOM     31  N   UNL     1      34.263 -12.354 -23.391  0.00  0.00    -0.193 N 
ATOM     32  C   UNL     1      33.913 -13.589 -23.918  0.00  0.00    +0.268 C 
ATOM     33  H   UNL     1      34.740 -12.276 -22.533  0.00  0.00    +0.183 HD
BRANCH  31  34
ATOM     34  O   UNL     1      33.905 -11.222 -24.137  0.00  0.00    -0.295 OA
ATOM     35  H   UNL     1      34.702 -10.719 -24.366  0.00  0.00    +0.241 HD
ENDBRANCH  31  34
ENDBRANCH  27  32
ENDBRANCH  21  24
ENDBRANCH  19  22
ENDBRANCH   1  19
TORSDOF 10
ENDMDL
MODEL 3
REMARK VINA RESULT:     -10.9      2.772      4.316
REMARK  Name = 9804992
REMARK  10 active torsions:
REMARK  status: ('A' for Active; 'I' for Inactive)
REMARK    1  A    between atoms: C_1  and  C_9
REMARK    2  A    between atoms: C_1  and  O_19
REMARK    3  A    between atoms: C_2  and  C_12
REMARK    4  A    between atoms: C_12  and  N_13
REMARK    5  A    between atoms: N_13  and  C_15
REMARK    6  A    between atoms: N_13  and  C_17
REMARK    7  A    between atoms: O_19  and  C_22
REMARK    8  A    between atoms: N_21  and  C_24
REMARK    9  A    between atoms: C_27  and  C_32
REMARK   10  A    between atoms: N_31  and  O_34
REMARK                            x       y       z     vdW  Elec       q    Type
REMARK                         _______ _______ _______ _____ _____    ______ ____
ROOT
ATOM      1  C   UNL     1      35.305 -21.314 -19.932  0.00  0.00    +0.237 C 
ENDROOT
BRANCH   1   9
ATOM      2  C   UNL     1      34.888 -23.844 -13.939  0.00  0.00    -0.043 C 
ATOM      3  C   UNL     1      35.799 -22.732 -15.902  0.00  0.00    -0.000 C 
ATOM      4  C   UNL     1      34.565 -22.916 -16.571  0.00  0.00    -0.000 C 
ATOM      5  C   UNL     1      35.944 -23.202 -14.586  0.00  0.00    -0.006 C 
ATOM      6  C   UNL     1      33.674 -24.024 -14.597  0.00  0.00    -0.006 C 
ATOM      7  C   UNL     1      33.512 -23.564 -15.903  0.00  0.00    -0.000 C 
ATOM      8  C   UNL     1      34.420 -22.447 -17.886  0.00  0.00    -0.001 C 
ATOM      9  C   UNL     1      35.477 -21.806 -18.534  0.00  0.00    +0.021 C 
ATOM     10  C   UNL     1      36.851 -22.085 -16.569  0.00  0.00    -0.000 C 
ATOM     11  C   UNL     1      36.690 -21.624 -17.877  0.00  0.00    -0.001 C 
BRANCH   2  12
ATOM     12  C   UNL     1      35.059 -24.336 -12.542  0.00  0.00    -0.050 C 
BRANCH  12  13
ATOM     13  N   UNL     1      36.464 -24.374 -12.133  0.00  0.00    +0.390 N 
ATOM     14  H   UNL     1      37.010 -23.823 -12.795  0.00  0.00    -0.079 HD
BRANCH  13  15
ATOM     15  C   UNL     1      36.623 -23.786 -10.803  0.00  0.00    -0.077 C 
ATOM     16  C   UNL     1      35.596 -24.341  -9.831  0.00  0.00    -0.025 C 
ENDBRANCH  13  15
BRANCH  13  17
ATOM     17  C   UNL     1      36.963 -25.747 -12.149  0.00  0.00    -0.077 C 
ATOM     18  C   UNL     1      38.210 -25.868 -13.009  0.00  0.00    -0.025 C 
ENDBRANCH  13  17
ENDBRANCH  12  13
ENDBRANCH   2  12
ENDBRANCH   1   9
BRANCH   1  19
ATOM     19  O   UNL     1      35.676 -19.943 -19.999  0.00  0.00    -0.429 OA
BRANCH  19  22
ATOM     20  O   UNL     1      34.201 -19.637 -21.720  0.00  0.00    -0.226 OA
ATOM     21  N   UNL     1      35.459 -17.871 -20.836  0.00  0.00    -0.250 N 
ATOM     22  C   UNL     1      35.027 -19.179 -20.939  0.00  0.00    +0.406 C 
ATOM     23  H   UNL     1      36.133 -17.693 -20.140  0.00  0.00    +0.158 HD
BRANCH  21  24
ATOM     24  C   UNL     1      35.053 -16.757 -21.605  0.00  0.00    +0.053 C 
ATOM     25  C   UNL     1      35.146 -16.800 -22.996  0.00  0.00    +0.015 C 
ATOM     26  C   UNL     1      34.562 -15.615 -20.973  0.00  0.00    +0.015 C 
ATOM     27  C   UNL     1      34.255 -14.557 -23.123  0.00  0.00    +0.055 C 
ATOM     28  C   UNL     1      34.747 -15.700 -23.756  0.00  0.00    +0.006 C 
ATOM     29  C   UNL     1      34.163 -14.515 -21.732  0.00  0.00    +0.006 C 
BRANCH  27  32
ATOM     30  O   UNL     1      33.192 -13.564 -24.967  0.00  0.00    -0.268 OA
ATOM     31  N   UNL     1      34.207 -12.155 -23.453  0.00  0.00    -0.193 N 
ATOM     32  C   UNL     1      33.840 -13.411 -23.915  0.00  0.00    +0.268 C 
ATOM     33  H   UNL     1      34.720 -12.042 -22.619  0.00  0.00    +0.183 HD
BRANCH  31  34
ATOM     34  O   UNL     1      33.815 -11.055 -24.228  0.00  0.00    -0.295 OA
ATOM     35  H   UNL     1      34.592 -10.671 -24.664  0.00  0.00    +0.241 HD
ENDBRANCH  31  34
ENDBRANCH  27  32
ENDBRANCH  21  24
ENDBRANCH  19  22
ENDBRANCH   1  19
TORSDOF 10
ENDMDL
MODEL 4
REMARK VINA RESULT:     -10.9      4.415     10.956
REMARK  Name = 9804992
REMARK  10 active torsions:
REMARK  status: ('A' for Active; 'I' for Inactive)
REMARK    1  A    between atoms: C_1  and  C_9
REMARK    2  A    between atoms: C_1  and  O_19
REMARK    3  A    between atoms: C_2  and  C_12
REMARK    4  A    between atoms: C_12  and  N_13
REMARK    5  A    between atoms: N_13  and  C_15
REMARK    6  A    between atoms: N_13  and  C_17
REMARK    7  A    between atoms: O_19  and  C_22
REMARK    8  A    between atoms: N_21  and  C_24
REMARK    9  A    between atoms: C_27  and  C_32
REMARK   10  A    between atoms: N_31  and  O_34
REMARK                            x       y       z     vdW  Elec       q    Type
REMARK                         _______ _______ _______ _____ _____    ______ ____
ROOT
ATOM      1  C   UNL     1      35.418 -16.595 -23.015  0.00  0.00    +0.237 C 
ENDROOT
BRANCH   1   9
ATOM      2  C   UNL     1      31.791 -11.463 -21.287  0.00  0.00    -0.043 C 
ATOM      3  C   UNL     1      33.152 -12.959 -22.637  0.00  0.00    -0.000 C 
ATOM      4  C   UNL     1      33.270 -13.838 -21.534  0.00  0.00    -0.000 C 
ATOM      5  C   UNL     1      32.409 -11.776 -22.497  0.00  0.00    -0.006 C 
ATOM      6  C   UNL     1      31.906 -12.327 -20.202  0.00  0.00    -0.006 C 
ATOM      7  C   UNL     1      32.640 -13.507 -20.323  0.00  0.00    -0.000 C 
ATOM      8  C   UNL     1      34.013 -15.021 -21.674  0.00  0.00    -0.001 C 
ATOM      9  C   UNL     1      34.632 -15.334 -22.885  0.00  0.00    +0.021 C 
ATOM     10  C   UNL     1      33.782 -13.290 -23.849  0.00  0.00    -0.000 C 
ATOM     11  C   UNL     1      34.516 -14.471 -23.970  0.00  0.00    -0.001 C 
BRANCH   2  12
ATOM     12  C   UNL     1      31.005 -10.202 -21.155  0.00  0.00    -0.050 C 
BRANCH  12  13
ATOM     13  N   UNL     1      31.850  -9.009 -21.234  0.00  0.00    +0.390 N 
ATOM     14  H   UNL     1      32.685  -9.237 -21.772  0.00  0.00    -0.079 HD
BRANCH  13  15
ATOM     15  C   UNL     1      31.141  -7.927 -21.917  0.00  0.00    -0.077 C 
ATOM     16  C   UNL     1      31.639  -7.759 -23.342  0.00  0.00    -0.025 C 
ENDBRANCH  13  15
BRANCH  13  17
ATOM     17  C   UNL     1      32.261  -8.587 -19.896  0.00  0.00    -0.077 C 
ATOM     18  C   UNL     1      32.548  -7.096 -19.854  0.00  0.00    -0.025 C 
ENDBRANCH  13  17
ENDBRANCH  12  13
ENDBRANCH   2  12
ENDBRANCH   1   9
BRANCH   1  19
ATOM     19  O   UNL     1      34.657 -17.553 -23.740  0.00  0.00    -0.429 OA
BRANCH  19  22
ATOM     20  O   UNL     1      34.528 -19.833 -23.862  0.00  0.00    -0.226 OA
ATOM     21  N   UNL     1      34.547 -18.699 -21.814  0.00  0.00    -0.250 N 
ATOM     22  C   UNL     1      34.571 -18.809 -23.190  0.00  0.00    +0.406 C 
ATOM     23  H   UNL     1      34.592 -17.783 -21.453  0.00  0.00    +0.158 HD
BRANCH  21  24
ATOM     24  C   UNL     1      34.465 -19.738 -20.859  0.00  0.00    +0.053 C 
ATOM     25  C   UNL     1      35.631 -20.279 -20.316  0.00  0.00    +0.015 C 
ATOM     26  C   UNL     1      33.220 -20.223 -20.460  0.00  0.00    +0.015 C 
ATOM     27  C   UNL     1      34.305 -21.790 -18.976  0.00  0.00    +0.055 C 
ATOM     28  C   UNL     1      35.551 -21.305 -19.375  0.00  0.00    +0.006 C 
ATOM     29  C   UNL     1      33.140 -21.248 -19.518  0.00  0.00    +0.006 C 
BRANCH  27  32
ATOM     30  O   UNL     1      33.502 -23.855 -18.196  0.00  0.00    -0.268 OA
ATOM     31  N   UNL     1      34.966 -22.712 -16.833  0.00  0.00    -0.193 N 
ATOM     32  C   UNL     1      34.222 -22.859 -17.994  0.00  0.00    +0.268 C 
ATOM     33  H   UNL     1      35.534 -21.921 -16.681  0.00  0.00    +0.183 HD
BRANCH  31  34
ATOM     34  O   UNL     1      34.872 -23.741 -15.884  0.00  0.00    -0.295 OA
ATOM     35  H   UNL     1      35.725 -24.196 -15.815  0.00  0.00    +0.241 HD
ENDBRANCH  31  34
ENDBRANCH  27  32
ENDBRANCH  21  24
ENDBRANCH  19  22
ENDBRANCH   1  19
TORSDOF 10
ENDMDL
MODEL 5
REMARK VINA RESULT:     -10.7      5.079     11.909
REMARK  Name = 9804992
REMARK  10 active torsions:
REMARK  status: ('A' for Active; 'I' for Inactive)
REMARK    1  A    between atoms: C_1  and  C_9
REMARK    2  A    between atoms: C_1  and  O_19
REMARK    3  A    between atoms: C_2  and  C_12
REMARK    4  A    between atoms: C_12  and  N_13
REMARK    5  A    between atoms: N_13  and  C_15
REMARK    6  A    between atoms: N_13  and  C_17
REMARK    7  A    between atoms: O_19  and  C_22
REMARK    8  A    between atoms: N_21  and  C_24
REMARK    9  A    between atoms: C_27  and  C_32
REMARK   10  A    between atoms: N_31  and  O_34
REMARK                            x       y       z     vdW  Elec       q    Type
REMARK                         _______ _______ _______ _____ _____    ______ ____
ROOT
ATOM      1  C   UNL     1      34.020 -15.298 -23.925  0.00  0.00    +0.237 C 
ENDROOT
BRANCH   1   9
ATOM      2  C   UNL     1      31.967  -9.575 -21.579  0.00  0.00    -0.043 C 
ATOM      3  C   UNL     1      33.069 -11.206 -23.007  0.00  0.00    -0.000 C 
ATOM      4  C   UNL     1      32.587 -12.247 -22.179  0.00  0.00    -0.000 C 
ATOM      5  C   UNL     1      32.750  -9.875 -22.693  0.00  0.00    -0.006 C 
ATOM      6  C   UNL     1      31.492 -10.599 -20.765  0.00  0.00    -0.006 C 
ATOM      7  C   UNL     1      31.799 -11.926 -21.061  0.00  0.00    -0.000 C 
ATOM      8  C   UNL     1      32.905 -13.578 -22.493  0.00  0.00    -0.001 C 
ATOM      9  C   UNL     1      33.690 -13.879 -23.607  0.00  0.00    +0.021 C 
ATOM     10  C   UNL     1      33.857 -11.526 -24.125  0.00  0.00    -0.000 C 
ATOM     11  C   UNL     1      34.164 -12.855 -24.422  0.00  0.00    -0.001 C 
BRANCH   2  12
ATOM     12  C   UNL     1      31.638  -8.155 -21.260  0.00  0.00    -0.050 C 
BRANCH  12  13
ATOM     13  N   UNL     1      31.863  -7.262 -22.397  0.00  0.00    +0.390 N 
ATOM     14  H   UNL     1      32.085  -7.828 -23.215  0.00  0.00    -0.079 HD
BRANCH  13  15
ATOM     15  C   UNL     1      30.655  -6.489 -22.684  0.00  0.00    -0.077 C 
ATOM     16  C   UNL     1      30.378  -5.476 -21.587  0.00  0.00    -0.025 C 
ENDBRANCH  13  15
BRANCH  13  17
ATOM     17  C   UNL     1      32.990  -6.371 -22.130  0.00  0.00    -0.077 C 
ATOM     18  C   UNL     1      34.239  -6.831 -22.863  0.00  0.00    -0.025 C 
ENDBRANCH  13  17
ENDBRANCH  12  13
ENDBRANCH   2  12
ENDBRANCH   1   9
BRANCH   1  19
ATOM     19  O   UNL     1      35.203 -15.675 -23.233  0.00  0.00    -0.429 OA
BRANCH  19  22
ATOM     20  O   UNL     1      34.795 -15.893 -20.994  0.00  0.00    -0.226 OA
ATOM     21  N   UNL     1      35.169 -17.748 -22.372  0.00  0.00    -0.250 N 
ATOM     22  C   UNL     1      35.032 -16.404 -22.082  0.00  0.00    +0.406 C 
ATOM     23  H   UNL     1      35.360 -17.968 -23.313  0.00  0.00    +0.158 HD
BRANCH  21  24
ATOM     24  C   UNL     1      35.070 -18.845 -21.487  0.00  0.00    +0.053 C 
ATOM     25  C   UNL     1      36.217 -19.352 -20.874  0.00  0.00    +0.015 C 
ATOM     26  C   UNL     1      33.827 -19.421 -21.225  0.00  0.00    +0.015 C 
ATOM     27  C   UNL     1      34.876 -21.012 -19.740  0.00  0.00    +0.055 C 
ATOM     28  C   UNL     1      36.120 -20.435 -20.001  0.00  0.00    +0.006 C 
ATOM     29  C   UNL     1      33.730 -20.504 -20.352  0.00  0.00    +0.006 C 
BRANCH  27  32
ATOM     30  O   UNL     1      35.672 -22.370 -17.997  0.00  0.00    -0.268 OA
ATOM     31  N   UNL     1      33.652 -22.947 -18.943  0.00  0.00    -0.193 N 
ATOM     32  C   UNL     1      34.775 -22.141 -18.830  0.00  0.00    +0.268 C 
ATOM     33  H   UNL     1      32.946 -22.758 -19.605  0.00  0.00    +0.183 HD
BRANCH  31  34
ATOM     34  O   UNL     1      33.567 -24.042 -18.071  0.00  0.00    -0.295 OA
ATOM     35  H   UNL     1      32.635 -24.239 -17.888  0.00  0.00    +0.241 HD
ENDBRANCH  31  34
ENDBRANCH  27  32
ENDBRANCH  21  24
ENDBRANCH  19  22
ENDBRANCH   1  19
TORSDOF 10
ENDMDL
MODEL 6
REMARK VINA RESULT:     -10.6      2.752      4.577
REMARK  Name = 9804992
REMARK  10 active torsions:
REMARK  status: ('A' for Active; 'I' for Inactive)
REMARK    1  A    between atoms: C_1  and  C_9
REMARK    2  A    between atoms: C_1  and  O_19
REMARK    3  A    between atoms: C_2  and  C_12
REMARK    4  A    between atoms: C_12  and  N_13
REMARK    5  A    between atoms: N_13  and  C_15
REMARK    6  A    between atoms: N_13  and  C_17
REMARK    7  A    between atoms: O_19  and  C_22
REMARK    8  A    between atoms: N_21  and  C_24
REMARK    9  A    between atoms: C_27  and  C_32
REMARK   10  A    between atoms: N_31  and  O_34
REMARK                            x       y       z     vdW  Elec       q    Type
REMARK                         _______ _______ _______ _____ _____    ______ ____
ROOT
ATOM      1  C   UNL     1      36.119 -17.557 -22.263  0.00  0.00    +0.237 C 
ENDROOT
BRANCH   1   9
ATOM      2  C   UNL     1      33.811 -22.385 -18.542  0.00  0.00    -0.043 C 
ATOM      3  C   UNL     1      35.378 -20.875 -19.629  0.00  0.00    -0.000 C 
ATOM      4  C   UNL     1      34.295 -20.218 -20.261  0.00  0.00    -0.000 C 
ATOM      5  C   UNL     1      35.118 -21.957 -18.772  0.00  0.00    -0.006 C 
ATOM      6  C   UNL     1      32.747 -21.738 -19.163  0.00  0.00    -0.006 C 
ATOM      7  C   UNL     1      32.985 -20.662 -20.017  0.00  0.00    -0.000 C 
ATOM      8  C   UNL     1      34.554 -19.136 -21.118  0.00  0.00    -0.001 C 
ATOM      9  C   UNL     1      35.863 -18.708 -21.349  0.00  0.00    +0.021 C 
ATOM     10  C   UNL     1      36.687 -20.431 -19.873  0.00  0.00    -0.000 C 
ATOM     11  C   UNL     1      36.927 -19.354 -20.728  0.00  0.00    -0.001 C 
BRANCH   2  12
ATOM     12  C   UNL     1      33.554 -23.536 -17.629  0.00  0.00    -0.050 C 
BRANCH  12  13
ATOM     13  N   UNL     1      33.240 -23.107 -16.266  0.00  0.00    +0.390 N 
ATOM     14  H   UNL     1      33.347 -22.094 -16.211  0.00  0.00    -0.079 HD
BRANCH  13  15
ATOM     15  C   UNL     1      31.856 -23.443 -15.932  0.00  0.00    -0.077 C 
ATOM     16  C   UNL     1      31.457 -22.854 -14.590  0.00  0.00    -0.025 C 
ENDBRANCH  13  15
BRANCH  13  17
ATOM     17  C   UNL     1      34.161 -23.722 -15.312  0.00  0.00    -0.077 C 
ATOM     18  C   UNL     1      35.454 -22.931 -15.209  0.00  0.00    -0.025 C 
ENDBRANCH  13  17
ENDBRANCH  12  13
ENDBRANCH   2  12
ENDBRANCH   1   9
BRANCH   1  19
ATOM     19  O   UNL     1      35.248 -17.641 -23.384  0.00  0.00    -0.429 OA
BRANCH  19  22
ATOM     20  O   UNL     1      33.747 -16.435 -24.618  0.00  0.00    -0.226 OA
ATOM     21  N   UNL     1      34.571 -15.663 -22.567  0.00  0.00    -0.250 N 
ATOM     22  C   UNL     1      34.446 -16.550 -23.618  0.00  0.00    +0.406 C 
ATOM     23  H   UNL     1      35.185 -15.932 -21.846  0.00  0.00    +0.158 HD
BRANCH  21  24
ATOM     24  C   UNL     1      33.926 -14.416 -22.398  0.00  0.00    +0.053 C 
ATOM     25  C   UNL     1      33.151 -14.181 -21.262  0.00  0.00    +0.015 C 
ATOM     26  C   UNL     1      34.064 -13.423 -23.368  0.00  0.00    +0.015 C 
ATOM     27  C   UNL     1      32.652 -11.957 -22.066  0.00  0.00    +0.055 C 
ATOM     28  C   UNL     1      32.514 -12.951 -21.096  0.00  0.00    +0.006 C 
ATOM     29  C   UNL     1      33.427 -12.193 -23.201  0.00  0.00    +0.006 C 
BRANCH  27  32
ATOM     30  O   UNL     1      31.031 -10.556 -21.104  0.00  0.00    -0.268 OA
ATOM     31  N   UNL     1      32.457  -9.611 -22.647  0.00  0.00    -0.193 N 
ATOM     32  C   UNL     1      31.987 -10.676 -21.892  0.00  0.00    +0.268 C 
ATOM     33  H   UNL     1      33.215  -9.714 -23.268  0.00  0.00    +0.183 HD
BRANCH  31  34
ATOM     34  O   UNL     1      31.804  -8.381 -22.484  0.00  0.00    -0.295 OA
ATOM     35  H   UNL     1      32.167  -7.736 -23.111  0.00  0.00    +0.241 HD
ENDBRANCH  31  34
ENDBRANCH  27  32
ENDBRANCH  21  24
ENDBRANCH  19  22
ENDBRANCH   1  19
TORSDOF 10
ENDMDL
MODEL 7
REMARK VINA RESULT:     -10.5      5.589      9.249
REMARK  Name = 9804992
REMARK  10 active torsions:
REMARK  status: ('A' for Active; 'I' for Inactive)
REMARK    1  A    between atoms: C_1  and  C_9
REMARK    2  A    between atoms: C_1  and  O_19
REMARK    3  A    between atoms: C_2  and  C_12
REMARK    4  A    between atoms: C_12  and  N_13
REMARK    5  A    between atoms: N_13  and  C_15
REMARK    6  A    between atoms: N_13  and  C_17
REMARK    7  A    between atoms: O_19  and  C_22
REMARK    8  A    between atoms: N_21  and  C_24
REMARK    9  A    between atoms: C_27  and  C_32
REMARK   10  A    between atoms: N_31  and  O_34
REMARK                            x       y       z     vdW  Elec       q    Type
REMARK                         _______ _______ _______ _____ _____    ______ ____
ROOT
ATOM      1  C   UNL     1      33.691 -12.859 -24.570  0.00  0.00    +0.237 C 
ENDROOT
BRANCH   1   9
ATOM      2  C   UNL     1      35.020 -18.645 -21.878  0.00  0.00    -0.043 C 
ATOM      3  C   UNL     1      34.381 -16.974 -23.527  0.00  0.00    -0.000 C 
ATOM      4  C   UNL     1      34.570 -15.958 -22.560  0.00  0.00    -0.000 C 
ATOM      5  C   UNL     1      34.610 -18.313 -23.170  0.00  0.00    -0.006 C 
ATOM      6  C   UNL     1      35.206 -17.646 -20.928  0.00  0.00    -0.006 C 
ATOM      7  C   UNL     1      34.983 -16.311 -21.265  0.00  0.00    -0.000 C 
ATOM      8  C   UNL     1      34.341 -14.619 -22.917  0.00  0.00    -0.001 C 
ATOM      9  C   UNL     1      33.930 -14.287 -24.209  0.00  0.00    +0.021 C 
ATOM     10  C   UNL     1      33.968 -16.622 -24.822  0.00  0.00    -0.000 C 
ATOM     11  C   UNL     1      33.745 -15.286 -25.159  0.00  0.00    -0.001 C 
BRANCH   2  12
ATOM     12  C   UNL     1      35.259 -20.072 -21.516  0.00  0.00    -0.050 C 
BRANCH  12  13
ATOM     13  N   UNL     1      35.203 -20.298 -20.071  0.00  0.00    +0.390 N 
ATOM     14  H   UNL     1      35.091 -19.397 -19.606  0.00  0.00    -0.079 HD
BRANCH  13  15
ATOM     15  C   UNL     1      34.057 -21.139 -19.731  0.00  0.00    -0.077 C 
ATOM     16  C   UNL     1      32.751 -20.481 -20.140  0.00  0.00    -0.025 C 
ENDBRANCH  13  15
BRANCH  13  17
ATOM     17  C   UNL     1      36.445 -20.909 -19.603  0.00  0.00    -0.077 C 
ATOM     18  C   UNL     1      36.223 -21.688 -18.318  0.00  0.00    -0.025 C 
ENDBRANCH  13  17
ENDBRANCH  12  13
ENDBRANCH   2  12
ENDBRANCH   1   9
BRANCH   1  19
ATOM     19  O   UNL     1      33.815 -12.051 -23.407  0.00  0.00    -0.429 OA
BRANCH  19  22
ATOM     20  O   UNL     1      34.702 -10.129 -24.274  0.00  0.00    -0.226 OA
ATOM     21  N   UNL     1      32.771 -10.117 -22.950  0.00  0.00    -0.250 N 
ATOM     22  C   UNL     1      33.842 -10.692 -23.607  0.00  0.00    +0.406 C 
ATOM     23  H   UNL     1      32.181 -10.737 -22.462  0.00  0.00    +0.158 HD
BRANCH  21  24
ATOM     24  C   UNL     1      32.418  -8.750 -22.892  0.00  0.00    +0.053 C 
ATOM     25  C   UNL     1      31.074  -8.375 -22.925  0.00  0.00    +0.015 C 
ATOM     26  C   UNL     1      33.411  -7.775 -22.802  0.00  0.00    +0.015 C 
ATOM     27  C   UNL     1      31.719  -6.051 -22.779  0.00  0.00    +0.055 C 
ATOM     28  C   UNL     1      30.725  -7.026 -22.869  0.00  0.00    +0.006 C 
ATOM     29  C   UNL     1      33.062  -6.426 -22.746  0.00  0.00    +0.006 C 
BRANCH  27  32
ATOM     30  O   UNL     1      31.958  -3.801 -23.409  0.00  0.00    -0.268 OA
ATOM     31  N   UNL     1      30.323  -4.294 -21.862  0.00  0.00    -0.193 N 
ATOM     32  C   UNL     1      31.355  -4.645 -22.720  0.00  0.00    +0.268 C 
ATOM     33  H   UNL     1      29.850  -4.968 -21.321  0.00  0.00    +0.183 HD
BRANCH  31  34
ATOM     34  O   UNL     1      29.984  -2.934 -21.801  0.00  0.00    -0.295 OA
ATOM     35  H   UNL     1      30.718  -2.435 -21.409  0.00  0.00    +0.241 HD
ENDBRANCH  31  34
ENDBRANCH  27  32
ENDBRANCH  21  24
ENDBRANCH  19  22
ENDBRANCH   1  19
TORSDOF 10
ENDMDL
MODEL 8
REMARK VINA RESULT:     -10.5      2.059      2.979
REMARK  Name = 9804992
REMARK  10 active torsions:
REMARK  status: ('A' for Active; 'I' for Inactive)
REMARK    1  A    between atoms: C_1  and  C_9
REMARK    2  A    between atoms: C_1  and  O_19
REMARK    3  A    between atoms: C_2  and  C_12
REMARK    4  A    between atoms: C_12  and  N_13
REMARK    5  A    between atoms: N_13  and  C_15
REMARK    6  A    between atoms: N_13  and  C_17
REMARK    7  A    between atoms: O_19  and  C_22
REMARK    8  A    between atoms: N_21  and  C_24
REMARK    9  A    between atoms: C_27  and  C_32
REMARK   10  A    between atoms: N_31  and  O_34
REMARK                            x       y       z     vdW  Elec       q    Type
REMARK                         _______ _______ _______ _____ _____    ______ ____
ROOT
ATOM      1  C   UNL     1      35.768 -19.372 -21.749  0.00  0.00    +0.237 C 
ENDROOT
BRANCH   1   9
ATOM      2  C   UNL     1      33.382 -23.029 -16.910  0.00  0.00    -0.043 C 
ATOM      3  C   UNL     1      33.469 -21.590 -18.869  0.00  0.00    -0.000 C 
ATOM      4  C   UNL     1      34.882 -21.581 -18.791  0.00  0.00    -0.000 C 
ATOM      5  C   UNL     1      32.733 -22.319 -17.921  0.00  0.00    -0.006 C 
ATOM      6  C   UNL     1      34.771 -23.021 -16.834  0.00  0.00    -0.006 C 
ATOM      7  C   UNL     1      35.518 -22.302 -17.767  0.00  0.00    -0.000 C 
ATOM      8  C   UNL     1      35.618 -20.852 -19.739  0.00  0.00    -0.001 C 
ATOM      9  C   UNL     1      34.970 -20.141 -20.750  0.00  0.00    +0.021 C 
ATOM     10  C   UNL     1      32.834 -20.869 -19.893  0.00  0.00    -0.000 C 
ATOM     11  C   UNL     1      33.581 -20.150 -20.827  0.00  0.00    -0.001 C 
BRANCH   2  12
ATOM     12  C   UNL     1      32.584 -23.798 -15.911  0.00  0.00    -0.050 C 
BRANCH  12  13
ATOM     13  N   UNL     1      31.460 -23.025 -15.381  0.00  0.00    +0.390 N 
ATOM     14  H   UNL     1      31.407 -22.141 -15.886  0.00  0.00    -0.079 HD
BRANCH  13  15
ATOM     15  C   UNL     1      30.205 -23.748 -15.583  0.00  0.00    -0.077 C 
ATOM     16  C   UNL     1      29.140 -22.843 -16.177  0.00  0.00    -0.025 C 
ENDBRANCH  13  15
BRANCH  13  17
ATOM     17  C   UNL     1      31.663 -22.737 -13.963  0.00  0.00    -0.077 C 
ATOM     18  C   UNL     1      32.541 -23.790 -13.308  0.00  0.00    -0.025 C 
ENDBRANCH  13  17
ENDBRANCH  12  13
ENDBRANCH   2  12
ENDBRANCH   1   9
BRANCH   1  19
ATOM     19  O   UNL     1      35.123 -19.429 -23.014  0.00  0.00    -0.429 OA
BRANCH  19  22
ATOM     20  O   UNL     1      33.591 -18.292 -24.275  0.00  0.00    -0.226 OA
ATOM     21  N   UNL     1      34.957 -17.211 -22.712  0.00  0.00    -0.250 N 
ATOM     22  C   UNL     1      34.467 -18.292 -23.419  0.00  0.00    +0.406 C 
ATOM     23  H   UNL     1      35.668 -17.410 -22.058  0.00  0.00    +0.158 HD
BRANCH  21  24
ATOM     24  C   UNL     1      34.567 -15.857 -22.810  0.00  0.00    +0.053 C 
ATOM     25  C   UNL     1      34.470 -15.074 -21.658  0.00  0.00    +0.015 C 
ATOM     26  C   UNL     1      34.277 -15.302 -24.056  0.00  0.00    +0.015 C 
ATOM     27  C   UNL     1      33.794 -13.183 -23.002  0.00  0.00    +0.055 C 
ATOM     28  C   UNL     1      34.084 -13.737 -21.755  0.00  0.00    +0.006 C 
ATOM     29  C   UNL     1      33.891 -13.966 -24.153  0.00  0.00    +0.006 C 
BRANCH  27  32
ATOM     30  O   UNL     1      33.866 -11.050 -23.983  0.00  0.00    -0.268 OA
ATOM     31  N   UNL     1      32.472 -11.328 -22.170  0.00  0.00    -0.193 N 
ATOM     32  C   UNL     1      33.391 -11.790 -23.102  0.00  0.00    +0.268 C 
ATOM     33  H   UNL     1      32.100 -11.920 -21.476  0.00  0.00    +0.183 HD
BRANCH  31  34
ATOM     34  O   UNL     1      32.097  -9.980 -22.264  0.00  0.00    -0.295 OA
ATOM     35  H   UNL     1      32.305  -9.528 -21.431  0.00  0.00    +0.241 HD
ENDBRANCH  31  34
ENDBRANCH  27  32
ENDBRANCH  21  24
ENDBRANCH  19  22
ENDBRANCH   1  19
TORSDOF 10
ENDMDL
MODEL 9
REMARK VINA RESULT:     -10.4      2.808      4.280
REMARK  Name = 9804992
REMARK  10 active torsions:
REMARK  status: ('A' for Active; 'I' for Inactive)
REMARK    1  A    between atoms: C_1  and  C_9
REMARK    2  A    between atoms: C_1  and  O_19
REMARK    3  A    between atoms: C_2  and  C_12
REMARK    4  A    between atoms: C_12  and  N_13
REMARK    5  A    between atoms: N_13  and  C_15
REMARK    6  A    between atoms: N_13  and  C_17
REMARK    7  A    between atoms: O_19  and  C_22
REMARK    8  A    between atoms: N_21  and  C_24
REMARK    9  A    between atoms: C_27  and  C_32
REMARK   10  A    between atoms: N_31  and  O_34
REMARK                            x       y       z     vdW  Elec       q    Type
REMARK                         _______ _______ _______ _____ _____    ______ ____
ROOT
ATOM      1  C   UNL     1      34.701 -21.309 -20.125  0.00  0.00    +0.237 C 
ENDROOT
BRANCH   1   9
ATOM      2  C   UNL     1      35.890 -23.469 -14.091  0.00  0.00    -0.043 C 
ATOM      3  C   UNL     1      36.222 -22.410 -16.255  0.00  0.00    -0.000 C 
ATOM      4  C   UNL     1      34.897 -22.749 -16.617  0.00  0.00    -0.000 C 
ATOM      5  C   UNL     1      36.704 -22.777 -14.989  0.00  0.00    -0.006 C 
ATOM      6  C   UNL     1      34.587 -23.801 -14.446  0.00  0.00    -0.006 C 
ATOM      7  C   UNL     1      34.092 -23.445 -15.700  0.00  0.00    -0.000 C 
ATOM      8  C   UNL     1      34.415 -22.382 -17.884  0.00  0.00    -0.001 C 
ATOM      9  C   UNL     1      35.229 -21.691 -18.783  0.00  0.00    +0.021 C 
ATOM     10  C   UNL     1      37.028 -21.715 -17.172  0.00  0.00    -0.000 C 
ATOM     11  C   UNL     1      36.532 -21.357 -18.427  0.00  0.00    -0.001 C 
BRANCH   2  12
ATOM     12  C   UNL     1      36.419 -23.851 -12.749  0.00  0.00    -0.050 C 
BRANCH  12  13
ATOM     13  N   UNL     1      35.949 -25.169 -12.320  0.00  0.00    +0.390 N 
ATOM     14  H   UNL     1      35.080 -25.380 -12.811  0.00  0.00    -0.079 HD
BRANCH  13  15
ATOM     15  C   UNL     1      36.933 -26.196 -12.661  0.00  0.00    -0.077 C 
ATOM     16  C   UNL     1      38.348 -25.701 -12.421  0.00  0.00    -0.025 C 
ENDBRANCH  13  15
BRANCH  13  17
ATOM     17  C   UNL     1      35.681 -25.172 -10.883  0.00  0.00    -0.077 C 
ATOM     18  C   UNL     1      35.993 -23.821 -10.263  0.00  0.00    -0.025 C 
ENDBRANCH  13  17
ENDBRANCH  12  13
ENDBRANCH   2  12
ENDBRANCH   1   9
BRANCH   1  19
ATOM     19  O   UNL     1      35.419 -20.183 -20.612  0.00  0.00    -0.429 OA
BRANCH  19  22
ATOM     20  O   UNL     1      33.651 -19.566 -21.926  0.00  0.00    -0.226 OA
ATOM     21  N   UNL     1      35.371 -18.075 -21.380  0.00  0.00    -0.250 N 
ATOM     22  C   UNL     1      34.707 -19.285 -21.370  0.00  0.00    +0.406 C 
ATOM     23  H   UNL     1      36.213 -18.040 -20.868  0.00  0.00    +0.158 HD
BRANCH  21  24
ATOM     24  C   UNL     1      34.994 -16.879 -22.032  0.00  0.00    +0.053 C 
ATOM     25  C   UNL     1      34.984 -16.819 -23.426  0.00  0.00    +0.015 C 
ATOM     26  C   UNL     1      34.632 -15.760 -21.283  0.00  0.00    +0.015 C 
ATOM     27  C   UNL     1      34.251 -14.519 -23.320  0.00  0.00    +0.055 C 
ATOM     28  C   UNL     1      34.613 -15.639 -24.070  0.00  0.00    +0.006 C 
ATOM     29  C   UNL     1      34.261 -14.580 -21.927  0.00  0.00    +0.006 C 
BRANCH  27  32
ATOM     30  O   UNL     1      33.226 -13.321 -25.061  0.00  0.00    -0.268 OA
ATOM     31  N   UNL     1      34.247 -12.095 -23.398  0.00  0.00    -0.193 N 
ATOM     32  C   UNL     1      33.864 -13.289 -23.993  0.00  0.00    +0.268 C 
ATOM     33  H   UNL     1      34.751 -12.079 -22.552  0.00  0.00    +0.183 HD
BRANCH  31  34
ATOM     34  O   UNL     1      33.882 -10.913 -24.058  0.00  0.00    -0.295 OA
ATOM     35  H   UNL     1      32.921 -10.791 -23.997  0.00  0.00    +0.241 HD
ENDBRANCH  31  34
ENDBRANCH  27  32
ENDBRANCH  21  24
ENDBRANCH  19  22
ENDBRANCH   1  19
TORSDOF 10
ENDMDL
