MODEL 1
REMARK VINA RESULT:     -11.6      0.000      0.000
REMARK  Name = 11992146
REMARK  2 active torsions:
REMARK  status: ('A' for Active; 'I' for Inactive)
REMARK    1  A    between atoms: C_2  and  C_14
REMARK    2  A    between atoms: C_5  and  C_20
REMARK                            x       y       z     vdW  Elec       q    Type
REMARK                         _______ _______ _______ _____ _____    ______ ____
ROOT
ATOM      1  N   UNL     1      32.284 -22.426 -17.794  0.00  0.00    -0.244 NA
ATOM      2  C   UNL     1      34.032 -23.385 -15.837  0.00  0.00    +0.016 C 
ATOM      3  C   UNL     1      34.524 -22.658 -16.914  0.00  0.00    +0.020 C 
ATOM      4  C   UNL     1      32.668 -23.634 -15.736  0.00  0.00    +0.022 C 
ATOM      5  C   UNL     1      33.616 -22.205 -17.858  0.00  0.00    +0.084 C 
ATOM      6  C   UNL     1      31.843 -23.137 -16.733  0.00  0.00    +0.099 C 
ENDROOT
BRANCH   2  14
ATOM      7  O   UNL     1      37.187 -27.259 -13.289  0.00  0.00    -0.270 OA
ATOM      8  N   UNL     1      35.329 -23.108 -13.762  0.00  0.00    -0.316 N 
ATOM      9  N   UNL     1      37.918 -25.621 -11.832  0.00  0.00    -0.300 N 
ATOM     10  C   UNL     1      36.172 -23.837 -12.974  0.00  0.00    +0.031 C 
ATOM     11  C   UNL     1      36.800 -23.382 -11.712  0.00  0.00    +0.063 C 
ATOM     12  C   UNL     1      36.329 -25.087 -13.533  0.00  0.00    +0.064 C 
ATOM     13  C   UNL     1      38.081 -24.199 -11.505  0.00  0.00    +0.096 C 
ATOM     14  C   UNL     1      34.933 -23.881 -14.825  0.00  0.00    +0.048 C 
ATOM     15  C   UNL     1      35.535 -25.119 -14.706  0.00  0.00    +0.020 C 
ATOM     16  C   UNL     1      37.166 -26.092 -12.908  0.00  0.00    +0.247 C 
ATOM     17  H   UNL     1      35.050 -22.177 -13.595  0.00  0.00    +0.152 HD
ATOM     18  H   UNL     1      38.367 -26.282 -11.257  0.00  0.00    +0.150 HD
ENDBRANCH   2  14
BRANCH   5  20
ATOM     19  F   UNL     1      36.329 -21.966 -18.552  0.00  0.00    -0.204 F 
ATOM     20  C   UNL     1      34.053 -21.442 -19.004  0.00  0.00    +0.045 C 
ATOM     21  C   UNL     1      35.412 -21.349 -19.311  0.00  0.00    +0.142 C 
ATOM     22  C   UNL     1      33.114 -20.794 -19.808  0.00  0.00    +0.004 C 
ATOM     23  C   UNL     1      35.829 -20.608 -20.418  0.00  0.00    +0.030 C 
ATOM     24  C   UNL     1      33.530 -20.053 -20.913  0.00  0.00    +0.000 C 
ATOM     25  C   UNL     1      34.888 -19.960 -21.219  0.00  0.00    +0.002 C 
ENDBRANCH   5  20
TORSDOF 2
ENDMDL
MODEL 2
REMARK VINA RESULT:     -11.3      1.110      1.291
REMARK  Name = 11992146
REMARK  2 active torsions:
REMARK  status: ('A' for Active; 'I' for Inactive)
REMARK    1  A    between atoms: C_2  and  C_14
REMARK    2  A    between atoms: C_5  and  C_20
REMARK                            x       y       z     vdW  Elec       q    Type
REMARK                         _______ _______ _______ _____ _____    ______ ____
ROOT
ATOM      1  N   UNL     1      32.207 -22.447 -17.635  0.00  0.00    -0.244 NA
ATOM      2  C   UNL     1      34.078 -23.458 -15.824  0.00  0.00    +0.016 C 
ATOM      3  C   UNL     1      34.502 -22.726 -16.927  0.00  0.00    +0.020 C 
ATOM      4  C   UNL     1      32.722 -23.687 -15.625  0.00  0.00    +0.022 C 
ATOM      5  C   UNL     1      33.534 -22.246 -17.796  0.00  0.00    +0.084 C 
ATOM      6  C   UNL     1      31.834 -23.164 -16.552  0.00  0.00    +0.099 C 
ENDROOT
BRANCH   2  14
ATOM      7  O   UNL     1      35.795 -25.505 -10.892  0.00  0.00    -0.270 OA
ATOM      8  N   UNL     1      36.381 -24.060 -15.192  0.00  0.00    -0.316 N 
ATOM      9  N   UNL     1      37.889 -25.818 -11.818  0.00  0.00    -0.300 N 
ATOM     10  C   UNL     1      37.047 -24.587 -14.122  0.00  0.00    +0.031 C 
ATOM     11  C   UNL     1      38.508 -24.813 -14.028  0.00  0.00    +0.063 C 
ATOM     12  C   UNL     1      36.135 -24.857 -13.123  0.00  0.00    +0.064 C 
ATOM     13  C   UNL     1      38.744 -25.931 -13.005  0.00  0.00    +0.096 C 
ATOM     14  C   UNL     1      35.044 -23.981 -14.888  0.00  0.00    +0.048 C 
ATOM     15  C   UNL     1      34.863 -24.464 -13.606  0.00  0.00    +0.020 C 
ATOM     16  C   UNL     1      36.554 -25.416 -11.853  0.00  0.00    +0.247 C 
ATOM     17  H   UNL     1      36.793 -23.783 -16.043  0.00  0.00    +0.152 HD
ATOM     18  H   UNL     1      38.283 -26.038 -10.942  0.00  0.00    +0.150 HD
ENDBRANCH   2  14
BRANCH   5  20
ATOM     19  F   UNL     1      36.201 -21.969 -18.635  0.00  0.00    -0.204 F 
ATOM     20  C   UNL     1      33.898 -21.477 -18.962  0.00  0.00    +0.045 C 
ATOM     21  C   UNL     1      35.236 -21.364 -19.342  0.00  0.00    +0.142 C 
ATOM     22  C   UNL     1      32.907 -20.841 -19.713  0.00  0.00    +0.004 C 
ATOM     23  C   UNL     1      35.583 -20.617 -20.469  0.00  0.00    +0.030 C 
ATOM     24  C   UNL     1      33.253 -20.094 -20.838  0.00  0.00    +0.000 C 
ATOM     25  C   UNL     1      34.591 -19.982 -21.217  0.00  0.00    +0.002 C 
ENDBRANCH   5  20
TORSDOF 2
ENDMDL
MODEL 3
REMARK VINA RESULT:     -11.0     10.603     14.108
REMARK  Name = 11992146
REMARK  2 active torsions:
REMARK  status: ('A' for Active; 'I' for Inactive)
REMARK    1  A    between atoms: C_2  and  C_14
REMARK    2  A    between atoms: C_5  and  C_20
REMARK                            x       y       z     vdW  Elec       q    Type
REMARK                         _______ _______ _______ _____ _____    ______ ____
ROOT
ATOM      1  N   UNL     1      31.568  -9.535 -21.360  0.00  0.00    -0.244 NA
ATOM      2  C   UNL     1      32.590 -11.981 -22.241  0.00  0.00    +0.016 C 
ATOM      3  C   UNL     1      33.017 -10.796 -22.829  0.00  0.00    +0.020 C 
ATOM      4  C   UNL     1      31.655 -11.946 -21.214  0.00  0.00    +0.022 C 
ATOM      5  C   UNL     1      32.479  -9.609 -22.356  0.00  0.00    +0.084 C 
ATOM      6  C   UNL     1      31.178 -10.707 -20.814  0.00  0.00    +0.099 C 
ENDROOT
BRANCH   2  14
ATOM      7  O   UNL     1      35.495 -16.755 -21.755  0.00  0.00    -0.270 OA
ATOM      8  N   UNL     1      32.942 -13.684 -23.985  0.00  0.00    -0.316 N 
ATOM      9  N   UNL     1      34.747 -17.354 -23.858  0.00  0.00    -0.300 N 
ATOM     10  C   UNL     1      33.548 -14.899 -24.125  0.00  0.00    +0.031 C 
ATOM     11  C   UNL     1      33.617 -15.704 -25.366  0.00  0.00    +0.063 C 
ATOM     12  C   UNL     1      34.113 -15.253 -22.917  0.00  0.00    +0.064 C 
ATOM     13  C   UNL     1      33.799 -17.173 -24.964  0.00  0.00    +0.096 C 
ATOM     14  C   UNL     1      33.118 -13.245 -22.696  0.00  0.00    +0.048 C 
ATOM     15  C   UNL     1      33.847 -14.198 -22.011  0.00  0.00    +0.020 C 
ATOM     16  C   UNL     1      34.840 -16.497 -22.761  0.00  0.00    +0.247 C 
ATOM     17  H   UNL     1      32.457 -13.201 -24.694  0.00  0.00    +0.152 HD
ATOM     18  H   UNL     1      35.354 -18.129 -23.892  0.00  0.00    +0.150 HD
ENDBRANCH   2  14
BRANCH   5  20
ATOM     19  F   UNL     1      30.602  -7.682 -23.166  0.00  0.00    -0.204 F 
ATOM     20  C   UNL     1      32.874  -8.339 -22.917  0.00  0.00    +0.045 C 
ATOM     21  C   UNL     1      31.907  -7.410 -23.308  0.00  0.00    +0.142 C 
ATOM     22  C   UNL     1      34.228  -8.036 -23.071  0.00  0.00    +0.004 C 
ATOM     23  C   UNL     1      32.294  -6.185 -23.853  0.00  0.00    +0.030 C 
ATOM     24  C   UNL     1      34.615  -6.812 -23.616  0.00  0.00    +0.000 C 
ATOM     25  C   UNL     1      33.648  -5.886 -24.007  0.00  0.00    +0.002 C 
ENDBRANCH   5  20
TORSDOF 2
ENDMDL
MODEL 4
REMARK VINA RESULT:     -11.0     10.790     14.309
REMARK  Name = 11992146
REMARK  2 active torsions:
REMARK  status: ('A' for Active; 'I' for Inactive)
REMARK    1  A    between atoms: C_2  and  C_14
REMARK    2  A    between atoms: C_5  and  C_20
REMARK                            x       y       z     vdW  Elec       q    Type
REMARK                         _______ _______ _______ _____ _____    ______ ____
ROOT
ATOM      1  N   UNL     1      31.692  -9.282 -21.483  0.00  0.00    -0.244 NA
ATOM      2  C   UNL     1      32.659 -11.763 -22.328  0.00  0.00    +0.016 C 
ATOM      3  C   UNL     1      33.116 -10.597 -22.929  0.00  0.00    +0.020 C 
ATOM      4  C   UNL     1      31.721 -11.693 -21.305  0.00  0.00    +0.022 C 
ATOM      5  C   UNL     1      32.605  -9.391 -22.474  0.00  0.00    +0.084 C 
ATOM      6  C   UNL     1      31.272 -10.438 -20.923  0.00  0.00    +0.099 C 
ENDROOT
BRANCH   2  14
ATOM      7  O   UNL     1      33.519 -15.907 -26.010  0.00  0.00    -0.270 OA
ATOM      8  N   UNL     1      33.775 -13.917 -21.900  0.00  0.00    -0.316 N 
ATOM      9  N   UNL     1      34.792 -16.984 -24.410  0.00  0.00    -0.300 N 
ATOM     10  C   UNL     1      34.134 -15.041 -22.586  0.00  0.00    +0.031 C 
ATOM     11  C   UNL     1      34.798 -16.237 -22.019  0.00  0.00    +0.063 C 
ATOM     12  C   UNL     1      33.754 -14.894 -23.904  0.00  0.00    +0.064 C 
ATOM     13  C   UNL     1      35.552 -16.938 -23.155  0.00  0.00    +0.096 C 
ATOM     14  C   UNL     1      33.158 -13.046 -22.763  0.00  0.00    +0.048 C 
ATOM     15  C   UNL     1      33.126 -13.629 -24.015  0.00  0.00    +0.020 C 
ATOM     16  C   UNL     1      33.996 -15.939 -24.879  0.00  0.00    +0.247 C 
ATOM     17  H   UNL     1      33.933 -13.757 -20.940  0.00  0.00    +0.152 HD
ATOM     18  H   UNL     1      34.848 -17.803 -24.954  0.00  0.00    +0.150 HD
ENDBRANCH   2  14
BRANCH   5  20
ATOM     19  F   UNL     1      30.777  -7.475 -23.415  0.00  0.00    -0.204 F 
ATOM     20  C   UNL     1      33.032  -8.138 -23.050  0.00  0.00    +0.045 C 
ATOM     21  C   UNL     1      32.089  -7.215 -23.507  0.00  0.00    +0.142 C 
ATOM     22  C   UNL     1      34.394  -7.847 -23.153  0.00  0.00    +0.004 C 
ATOM     23  C   UNL     1      32.507  -6.006 -24.066  0.00  0.00    +0.030 C 
ATOM     24  C   UNL     1      34.812  -6.640 -23.711  0.00  0.00    +0.000 C 
ATOM     25  C   UNL     1      33.869  -5.719 -24.168  0.00  0.00    +0.002 C 
ENDBRANCH   5  20
TORSDOF 2
ENDMDL
MODEL 5
REMARK VINA RESULT:     -10.8      3.052      7.534
REMARK  Name = 11992146
REMARK  2 active torsions:
REMARK  status: ('A' for Active; 'I' for Inactive)
REMARK    1  A    between atoms: C_2  and  C_14
REMARK    2  A    between atoms: C_5  and  C_20
REMARK                            x       y       z     vdW  Elec       q    Type
REMARK                         _______ _______ _______ _____ _____    ______ ____
ROOT
ATOM      1  N   UNL     1      33.468 -24.633 -13.904  0.00  0.00    -0.244 NA
ATOM      2  C   UNL     1      33.801 -23.169 -16.260  0.00  0.00    +0.016 C 
ATOM      3  C   UNL     1      34.913 -23.609 -15.551  0.00  0.00    +0.020 C 
ATOM      4  C   UNL     1      32.525 -23.458 -15.795  0.00  0.00    +0.022 C 
ATOM      5  C   UNL     1      34.694 -24.332 -14.389  0.00  0.00    +0.084 C 
ATOM      6  C   UNL     1      32.413 -24.187 -14.621  0.00  0.00    +0.099 C 
ENDROOT
BRANCH   2  14
ATOM      7  O   UNL     1      32.065 -20.411 -20.826  0.00  0.00    -0.270 OA
ATOM      8  N   UNL     1      35.214 -22.153 -18.003  0.00  0.00    -0.316 N 
ATOM      9  N   UNL     1      34.268 -19.863 -21.259  0.00  0.00    -0.300 N 
ATOM     10  C   UNL     1      35.066 -21.427 -19.150  0.00  0.00    +0.031 C 
ATOM     11  C   UNL     1      36.157 -20.965 -20.039  0.00  0.00    +0.063 C 
ATOM     12  C   UNL     1      33.721 -21.210 -19.364  0.00  0.00    +0.064 C 
ATOM     13  C   UNL     1      35.654 -19.731 -20.796  0.00  0.00    +0.096 C 
ATOM     14  C   UNL     1      33.972 -22.412 -17.477  0.00  0.00    +0.048 C 
ATOM     15  C   UNL     1      33.025 -21.843 -18.306  0.00  0.00    +0.020 C 
ATOM     16  C   UNL     1      33.253 -20.471 -20.521  0.00  0.00    +0.247 C 
ATOM     17  H   UNL     1      36.072 -22.442 -17.616  0.00  0.00    +0.152 HD
ATOM     18  H   UNL     1      34.040 -19.500 -22.146  0.00  0.00    +0.150 HD
ENDBRANCH   2  14
BRANCH   5  20
ATOM     19  F   UNL     1      36.123 -26.647 -15.090  0.00  0.00    -0.204 F 
ATOM     20  C   UNL     1      35.798 -24.822 -13.599  0.00  0.00    +0.045 C 
ATOM     21  C   UNL     1      36.480 -25.979 -13.984  0.00  0.00    +0.142 C 
ATOM     22  C   UNL     1      36.187 -24.140 -12.445  0.00  0.00    +0.004 C 
ATOM     23  C   UNL     1      37.545 -26.451 -13.215  0.00  0.00    +0.030 C 
ATOM     24  C   UNL     1      37.251 -24.611 -11.677  0.00  0.00    +0.000 C 
ATOM     25  C   UNL     1      37.930 -25.767 -12.062  0.00  0.00    +0.002 C 
ENDBRANCH   5  20
TORSDOF 2
ENDMDL
MODEL 6
REMARK VINA RESULT:     -10.8      8.158     12.352
REMARK  Name = 11992146
REMARK  2 active torsions:
REMARK  status: ('A' for Active; 'I' for Inactive)
REMARK    1  A    between atoms: C_2  and  C_14
REMARK    2  A    between atoms: C_5  and  C_20
REMARK                            x       y       z     vdW  Elec       q    Type
REMARK                         _______ _______ _______ _____ _____    ______ ____
ROOT
ATOM      1  N   UNL     1      34.925 -17.738 -24.137  0.00  0.00    -0.244 NA
ATOM      2  C   UNL     1      34.035 -15.201 -23.376  0.00  0.00    +0.016 C 
ATOM      3  C   UNL     1      34.519 -16.086 -22.419  0.00  0.00    +0.020 C 
ATOM      4  C   UNL     1      33.994 -15.582 -24.712  0.00  0.00    +0.022 C 
ATOM      5  C   UNL     1      34.948 -17.332 -22.848  0.00  0.00    +0.084 C 
ATOM      6  C   UNL     1      34.447 -16.851 -25.038  0.00  0.00    +0.099 C 
ENDROOT
BRANCH   2  14
ATOM      7  O   UNL     1      33.836  -9.600 -23.596  0.00  0.00    -0.270 OA
ATOM      8  N   UNL     1      32.707 -13.709 -21.936  0.00  0.00    -0.316 N 
ATOM      9  N   UNL     1      32.138  -9.658 -22.030  0.00  0.00    -0.300 N 
ATOM     10  C   UNL     1      32.454 -12.375 -21.796  0.00  0.00    +0.031 C 
ATOM     11  C   UNL     1      31.591 -11.751 -20.766  0.00  0.00    +0.063 C 
ATOM     12  C   UNL     1      33.157 -11.689 -22.765  0.00  0.00    +0.064 C 
ATOM     13  C   UNL     1      31.096 -10.409 -21.319  0.00  0.00    +0.096 C 
ATOM     14  C   UNL     1      33.574 -13.891 -22.984  0.00  0.00    +0.048 C 
ATOM     15  C   UNL     1      33.875 -12.652 -23.515  0.00  0.00    +0.020 C 
ATOM     16  C   UNL     1      33.093 -10.244 -22.861  0.00  0.00    +0.247 C 
ATOM     17  H   UNL     1      32.328 -14.425 -21.374  0.00  0.00    +0.152 HD
ATOM     18  H   UNL     1      32.163  -8.680 -21.913  0.00  0.00    +0.150 HD
ENDBRANCH   2  14
BRANCH   5  20
ATOM     19  F   UNL     1      33.408 -19.500 -21.938  0.00  0.00    -0.204 F 
ATOM     20  C   UNL     1      35.463 -18.303 -21.912  0.00  0.00    +0.045 C 
ATOM     21  C   UNL     1      34.662 -19.364 -21.485  0.00  0.00    +0.142 C 
ATOM     22  C   UNL     1      36.768 -18.180 -21.429  0.00  0.00    +0.004 C 
ATOM     23  C   UNL     1      35.165 -20.298 -20.578  0.00  0.00    +0.030 C 
ATOM     24  C   UNL     1      37.270 -19.113 -20.523  0.00  0.00    +0.000 C 
ATOM     25  C   UNL     1      36.468 -20.172 -20.096  0.00  0.00    +0.002 C 
ENDBRANCH   5  20
TORSDOF 2
ENDMDL
MODEL 7
REMARK VINA RESULT:     -10.4      8.719     12.338
REMARK  Name = 11992146
REMARK  2 active torsions:
REMARK  status: ('A' for Active; 'I' for Inactive)
REMARK    1  A    between atoms: C_2  and  C_14
REMARK    2  A    between atoms: C_5  and  C_20
REMARK                            x       y       z     vdW  Elec       q    Type
REMARK                         _______ _______ _______ _____ _____    ______ ____
ROOT
ATOM      1  N   UNL     1      33.307 -11.958 -25.875  0.00  0.00    -0.244 NA
ATOM      2  C   UNL     1      33.958 -14.327 -24.544  0.00  0.00    +0.016 C 
ATOM      3  C   UNL     1      34.092 -13.104 -23.896  0.00  0.00    +0.020 C 
ATOM      4  C   UNL     1      33.499 -14.368 -25.855  0.00  0.00    +0.022 C 
ATOM      5  C   UNL     1      33.756 -11.958 -24.600  0.00  0.00    +0.084 C 
ATOM      6  C   UNL     1      33.191 -13.164 -26.471  0.00  0.00    +0.099 C 
ENDROOT
BRANCH   2  14
ATOM      7  O   UNL     1      34.599 -19.878 -24.057  0.00  0.00    -0.270 OA
ATOM      8  N   UNL     1      34.644 -15.567 -22.530  0.00  0.00    -0.316 N 
ATOM      9  N   UNL     1      35.464 -19.533 -21.943  0.00  0.00    -0.300 N 
ATOM     10  C   UNL     1      34.901 -16.854 -22.156  0.00  0.00    +0.031 C 
ATOM     11  C   UNL     1      35.284 -17.311 -20.800  0.00  0.00    +0.063 C 
ATOM     12  C   UNL     1      34.723 -17.676 -23.249  0.00  0.00    +0.064 C 
ATOM     13  C   UNL     1      36.054 -18.628 -20.949  0.00  0.00    +0.096 C 
ATOM     14  C   UNL     1      34.293 -15.551 -23.858  0.00  0.00    +0.048 C 
ATOM     15  C   UNL     1      34.328 -16.849 -24.329  0.00  0.00    +0.020 C 
ATOM     16  C   UNL     1      34.915 -19.110 -23.153  0.00  0.00    +0.247 C 
ATOM     17  H   UNL     1      34.701 -14.778 -21.943  0.00  0.00    +0.152 HD
ATOM     18  H   UNL     1      35.456 -20.497 -21.743  0.00  0.00    +0.150 HD
ENDBRANCH   2  14
BRANCH   5  20
ATOM     19  F   UNL     1      35.882 -10.215 -25.182  0.00  0.00    -0.204 F 
ATOM     20  C   UNL     1      33.870 -10.654 -23.993  0.00  0.00    +0.045 C 
ATOM     21  C   UNL     1      34.944  -9.820 -24.310  0.00  0.00    +0.142 C 
ATOM     22  C   UNL     1      32.902 -10.223 -23.083  0.00  0.00    +0.004 C 
ATOM     23  C   UNL     1      35.050  -8.560 -23.718  0.00  0.00    +0.030 C 
ATOM     24  C   UNL     1      33.008  -8.965 -22.491  0.00  0.00    +0.000 C 
ATOM     25  C   UNL     1      34.083  -8.133 -22.808  0.00  0.00    +0.002 C 
ENDBRANCH   5  20
TORSDOF 2
ENDMDL
MODEL 8
REMARK VINA RESULT:     -10.4      9.689     13.686
REMARK  Name = 11992146
REMARK  2 active torsions:
REMARK  status: ('A' for Active; 'I' for Inactive)
REMARK    1  A    between atoms: C_2  and  C_14
REMARK    2  A    between atoms: C_5  and  C_20
REMARK                            x       y       z     vdW  Elec       q    Type
REMARK                         _______ _______ _______ _____ _____    ______ ____
ROOT
ATOM      1  N   UNL     1      33.969 -16.076 -25.403  0.00  0.00    -0.244 NA
ATOM      2  C   UNL     1      33.592 -13.555 -24.260  0.00  0.00    +0.016 C 
ATOM      3  C   UNL     1      33.997 -14.624 -23.470  0.00  0.00    +0.020 C 
ATOM      4  C   UNL     1      33.375 -13.742 -25.619  0.00  0.00    +0.022 C 
ATOM      5  C   UNL     1      34.170 -15.854 -24.085  0.00  0.00    +0.084 C 
ATOM      6  C   UNL     1      33.576 -15.012 -26.138  0.00  0.00    +0.099 C 
ENDROOT
BRANCH   2  14
ATOM      7  O   UNL     1      34.576  -8.074 -23.585  0.00  0.00    -0.270 OA
ATOM      8  N   UNL     1      32.537 -12.052 -22.619  0.00  0.00    -0.316 N 
ATOM      9  N   UNL     1      32.830  -8.007 -22.073  0.00  0.00    -0.300 N 
ATOM     10  C   UNL     1      32.561 -10.732 -22.272  0.00  0.00    +0.031 C 
ATOM     11  C   UNL     1      31.799 -10.104 -21.168  0.00  0.00    +0.063 C 
ATOM     12  C   UNL     1      33.437 -10.072 -23.108  0.00  0.00    +0.064 C 
ATOM     13  C   UNL     1      31.622  -8.619 -21.506  0.00  0.00    +0.096 C 
ATOM     14  C   UNL     1      33.397 -12.252 -23.670  0.00  0.00    +0.048 C 
ATOM     15  C   UNL     1      33.975 -11.039 -23.992  0.00  0.00    +0.020 C 
ATOM     16  C   UNL     1      33.681  -8.649 -22.972  0.00  0.00    +0.247 C 
ATOM     17  H   UNL     1      31.990 -12.748 -22.185  0.00  0.00    +0.152 HD
ATOM     18  H   UNL     1      33.053  -7.087 -21.801  0.00  0.00    +0.150 HD
ENDBRANCH   2  14
BRANCH   5  20
ATOM     19  F   UNL     1      33.555 -18.474 -24.893  0.00  0.00    -0.204 F 
ATOM     20  C   UNL     1      34.590 -17.011 -23.329  0.00  0.00    +0.045 C 
ATOM     21  C   UNL     1      34.260 -18.295 -23.767  0.00  0.00    +0.142 C 
ATOM     22  C   UNL     1      35.326 -16.845 -22.155  0.00  0.00    +0.004 C 
ATOM     23  C   UNL     1      34.666 -19.410 -23.031  0.00  0.00    +0.030 C 
ATOM     24  C   UNL     1      35.731 -17.958 -21.419  0.00  0.00    +0.000 C 
ATOM     25  C   UNL     1      35.400 -19.241 -21.857  0.00  0.00    +0.002 C 
ENDBRANCH   5  20
TORSDOF 2
ENDMDL
MODEL 9
REMARK VINA RESULT:     -10.3      9.531     13.336
REMARK  Name = 11992146
REMARK  2 active torsions:
REMARK  status: ('A' for Active; 'I' for Inactive)
REMARK    1  A    between atoms: C_2  and  C_14
REMARK    2  A    between atoms: C_5  and  C_20
REMARK                            x       y       z     vdW  Elec       q    Type
REMARK                         _______ _______ _______ _____ _____    ______ ____
ROOT
ATOM      1  N   UNL     1      34.098 -15.853 -25.368  0.00  0.00    -0.244 NA
ATOM      2  C   UNL     1      33.381 -13.555 -23.951  0.00  0.00    +0.016 C 
ATOM      3  C   UNL     1      33.811 -14.687 -23.269  0.00  0.00    +0.020 C 
ATOM      4  C   UNL     1      33.308 -13.569 -25.339  0.00  0.00    +0.022 C 
ATOM      5  C   UNL     1      34.155 -15.801 -24.018  0.00  0.00    +0.084 C 
ATOM      6  C   UNL     1      33.675 -14.734 -25.995  0.00  0.00    +0.099 C 
ENDROOT
BRANCH   2  14
ATOM      7  O   UNL     1      30.830 -10.681 -19.865  0.00  0.00    -0.270 OA
ATOM      8  N   UNL     1      33.362 -11.111 -23.649  0.00  0.00    -0.316 N 
ATOM      9  N   UNL     1      31.852  -8.766 -20.655  0.00  0.00    -0.300 N 
ATOM     10  C   UNL     1      32.874 -10.189 -22.767  0.00  0.00    +0.031 C 
ATOM     11  C   UNL     1      33.008  -8.718 -22.876  0.00  0.00    +0.063 C 
ATOM     12  C   UNL     1      32.208 -10.853 -21.758  0.00  0.00    +0.064 C 
ATOM     13  C   UNL     1      32.899  -8.132 -21.464  0.00  0.00    +0.096 C 
ATOM     14  C   UNL     1      33.010 -12.367 -23.220  0.00  0.00    +0.048 C 
ATOM     15  C   UNL     1      32.287 -12.237 -22.050  0.00  0.00    +0.020 C 
ATOM     16  C   UNL     1      31.570 -10.131 -20.675  0.00  0.00    +0.247 C 
ATOM     17  H   UNL     1      33.883 -10.907 -24.460  0.00  0.00    +0.152 HD
ATOM     18  H   UNL     1      31.316  -8.191 -20.060  0.00  0.00    +0.150 HD
ENDBRANCH   2  14
BRANCH   5  20
ATOM     19  F   UNL     1      33.377 -18.349 -24.914  0.00  0.00    -0.204 F 
ATOM     20  C   UNL     1      34.611 -17.014 -23.380  0.00  0.00    +0.045 C 
ATOM     21  C   UNL     1      34.198 -18.259 -23.858  0.00  0.00    +0.142 C 
ATOM     22  C   UNL     1      35.467 -16.942 -22.280  0.00  0.00    +0.004 C 
ATOM     23  C   UNL     1      34.638 -19.428 -23.236  0.00  0.00    +0.030 C 
ATOM     24  C   UNL     1      35.907 -18.110 -21.658  0.00  0.00    +0.000 C 
ATOM     25  C   UNL     1      35.493 -19.353 -22.136  0.00  0.00    +0.002 C 
ENDBRANCH   5  20
TORSDOF 2
ENDMDL
