MODEL 1
REMARK VINA RESULT:     -11.9      0.000      0.000
REMARK  Name = 23658582
REMARK  4 active torsions:
REMARK  status: ('A' for Active; 'I' for Inactive)
REMARK    1  A    between atoms: N_3  and  C_13
REMARK    2  A    between atoms: C_8  and  C_25
REMARK    3  A    between atoms: C_15  and  C_22
REMARK    4  A    between atoms: N_24  and  C_29
REMARK                            x       y       z     vdW  Elec       q    Type
REMARK                         _______ _______ _______ _____ _____    ______ ____
ROOT
ATOM      1 CL   UNL     1      32.964 -12.911 -26.394  0.00  0.00    -0.082 Cl
ATOM      2  O   UNL     1      34.315 -14.828 -21.780  0.00  0.00    -0.352 OA
ATOM      3  N   UNL     1      34.872 -18.218 -22.403  0.00  0.00    -0.295 N 
ATOM      4  N   UNL     1      34.667 -16.091 -21.319  0.00  0.00    -0.062 NA
ATOM      5  C   UNL     1      34.221 -16.192 -23.554  0.00  0.00    +0.072 A 
ATOM      6  C   UNL     1      34.051 -14.891 -23.114  0.00  0.00    +0.183 A 
ATOM      7  C   UNL     1      34.604 -16.887 -22.391  0.00  0.00    +0.174 A 
ATOM      8  C   UNL     1      33.665 -13.830 -23.929  0.00  0.00    +0.101 C 
ATOM      9  C   UNL     1      33.999 -16.487 -24.907  0.00  0.00    +0.007 C 
ATOM     10  C   UNL     1      33.447 -14.140 -25.275  0.00  0.00    +0.065 C 
ATOM     11  C   UNL     1      33.610 -15.443 -25.757  0.00  0.00    +0.012 C 
ATOM     12  H   UNL     1      34.685 -18.653 -23.267  0.00  0.00    +0.154 HD
ENDROOT
BRANCH   3  13
ATOM     13  C   UNL     1      35.369 -19.106 -21.408  0.00  0.00    +0.049 C 
ATOM     14  C   UNL     1      34.499 -19.978 -20.755  0.00  0.00    +0.018 C 
ATOM     15  C   UNL     1      34.986 -20.849 -19.780  0.00  0.00    +0.073 C 
ATOM     16  C   UNL     1      36.726 -19.105 -21.088  0.00  0.00    +0.015 C 
ATOM     17  C   UNL     1      36.343 -20.848 -19.460  0.00  0.00    +0.004 C 
ATOM     18  C   UNL     1      37.214 -19.975 -20.114  0.00  0.00    +0.001 C 
BRANCH  15  22
ATOM     19  F   UNL     1      34.000 -23.024 -19.641  0.00  0.00    -0.166 F 
ATOM     20  F   UNL     1      34.382 -21.997 -17.771  0.00  0.00    -0.166 F 
ATOM     21  F   UNL     1      32.769 -21.327 -19.066  0.00  0.00    -0.166 F 
ATOM     22  C   UNL     1      34.056 -21.781 -19.079  0.00  0.00    +0.419 C 
ENDBRANCH  15  22
ENDBRANCH   3  13
BRANCH   8  25
ATOM     23  O   UNL     1      34.197 -11.553 -23.795  0.00  0.00    -0.270 OA
ATOM     24  N   UNL     1      32.572 -12.387 -22.344  0.00  0.00    -0.278 N 
ATOM     25  C   UNL     1      33.510 -12.494 -23.379  0.00  0.00    +0.253 C 
ATOM     26  H   UNL     1      32.093 -13.214 -22.111  0.00  0.00    +0.155 HD
BRANCH  24  29
ATOM     27  N   UNL     1      31.537 -10.242 -19.509  0.00  0.00    -0.221 NA
ATOM     28  N   UNL     1      31.893  -8.859 -21.449  0.00  0.00    -0.221 NA
ATOM     29  C   UNL     1      32.225 -11.238 -21.589  0.00  0.00    +0.089 C 
ATOM     30  C   UNL     1      31.872 -11.313 -20.257  0.00  0.00    +0.117 C 
ATOM     31  C   UNL     1      32.217  -9.973 -22.138  0.00  0.00    +0.117 C 
ATOM     32  C   UNL     1      31.567  -9.063 -20.158  0.00  0.00    +0.199 C 
ENDBRANCH  24  29
ENDBRANCH   8  25
TORSDOF 4
ENDMDL
MODEL 2
REMARK VINA RESULT:     -11.7      4.661      9.151
REMARK  Name = 23658582
REMARK  4 active torsions:
REMARK  status: ('A' for Active; 'I' for Inactive)
REMARK    1  A    between atoms: N_3  and  C_13
REMARK    2  A    between atoms: C_8  and  C_25
REMARK    3  A    between atoms: C_15  and  C_22
REMARK    4  A    between atoms: N_24  and  C_29
REMARK                            x       y       z     vdW  Elec       q    Type
REMARK                         _______ _______ _______ _____ _____    ______ ____
ROOT
ATOM      1 CL   UNL     1      34.648 -19.740 -24.158  0.00  0.00    -0.082 Cl
ATOM      2  O   UNL     1      34.655 -15.284 -21.525  0.00  0.00    -0.352 OA
ATOM      3  N   UNL     1      34.099 -12.856 -23.972  0.00  0.00    -0.295 N 
ATOM      4  N   UNL     1      34.493 -13.949 -21.876  0.00  0.00    -0.062 NA
ATOM      5  C   UNL     1      34.333 -15.253 -23.742  0.00  0.00    +0.072 A 
ATOM      6  C   UNL     1      34.558 -16.060 -22.640  0.00  0.00    +0.183 A 
ATOM      7  C   UNL     1      34.303 -13.954 -23.199  0.00  0.00    +0.174 A 
ATOM      8  C   UNL     1      34.667 -17.447 -22.692  0.00  0.00    +0.101 C 
ATOM      9  C   UNL     1      34.200 -15.848 -25.005  0.00  0.00    +0.007 C 
ATOM     10  C   UNL     1      34.533 -18.025 -23.958  0.00  0.00    +0.065 C 
ATOM     11  C   UNL     1      34.304 -17.242 -25.094  0.00  0.00    +0.012 C 
ATOM     12  H   UNL     1      34.069 -13.049 -24.937  0.00  0.00    +0.154 HD
ENDROOT
BRANCH   3  13
ATOM     13  C   UNL     1      33.923 -11.480 -23.656  0.00  0.00    +0.049 C 
ATOM     14  C   UNL     1      32.810 -11.069 -22.923  0.00  0.00    +0.018 C 
ATOM     15  C   UNL     1      32.638  -9.720 -22.613  0.00  0.00    +0.073 C 
ATOM     16  C   UNL     1      34.865 -10.541 -24.078  0.00  0.00    +0.015 C 
ATOM     17  C   UNL     1      33.579  -8.782 -23.036  0.00  0.00    +0.004 C 
ATOM     18  C   UNL     1      34.693  -9.193 -23.768  0.00  0.00    +0.001 C 
BRANCH  15  22
ATOM     19  F   UNL     1      30.576 -10.292 -21.544  0.00  0.00    -0.166 F 
ATOM     20  F   UNL     1      31.760  -8.726 -20.622  0.00  0.00    -0.166 F 
ATOM     21  F   UNL     1      30.708  -8.337 -22.486  0.00  0.00    -0.166 F 
ATOM     22  C   UNL     1      31.446  -9.280 -21.831  0.00  0.00    +0.419 C 
ENDBRANCH  15  22
ENDBRANCH   3  13
BRANCH   8  25
ATOM     23  O   UNL     1      35.734 -17.835 -20.643  0.00  0.00    -0.270 OA
ATOM     24  N   UNL     1      34.167 -19.400 -21.377  0.00  0.00    -0.278 N 
ATOM     25  C   UNL     1      34.906 -18.214 -21.481  0.00  0.00    +0.253 C 
ATOM     26  H   UNL     1      33.542 -19.582 -22.114  0.00  0.00    +0.155 HD
BRANCH  24  29
ATOM     27  N   UNL     1      35.464 -21.814 -18.886  0.00  0.00    -0.221 NA
ATOM     28  N   UNL     1      33.058 -21.779 -18.765  0.00  0.00    -0.221 NA
ATOM     29  C   UNL     1      34.205 -20.370 -20.343  0.00  0.00    +0.089 C 
ATOM     30  C   UNL     1      35.391 -20.890 -19.867  0.00  0.00    +0.117 C 
ATOM     31  C   UNL     1      33.058 -20.856 -19.750  0.00  0.00    +0.117 C 
ATOM     32  C   UNL     1      34.277 -22.208 -18.388  0.00  0.00    +0.199 C 
ENDBRANCH  24  29
ENDBRANCH   8  25
TORSDOF 4
ENDMDL
MODEL 3
REMARK VINA RESULT:     -11.4      7.000     11.381
REMARK  Name = 23658582
REMARK  4 active torsions:
REMARK  status: ('A' for Active; 'I' for Inactive)
REMARK    1  A    between atoms: N_3  and  C_13
REMARK    2  A    between atoms: C_8  and  C_25
REMARK    3  A    between atoms: C_15  and  C_22
REMARK    4  A    between atoms: N_24  and  C_29
REMARK                            x       y       z     vdW  Elec       q    Type
REMARK                         _______ _______ _______ _____ _____    ______ ____
ROOT
ATOM      1 CL   UNL     1      31.951 -24.538 -14.420  0.00  0.00    -0.082 Cl
ATOM      2  O   UNL     1      35.785 -22.532 -17.259  0.00  0.00    -0.352 OA
ATOM      3  N   UNL     1      34.136 -20.805 -19.807  0.00  0.00    -0.295 N 
ATOM      4  N   UNL     1      35.836 -21.744 -18.404  0.00  0.00    -0.062 NA
ATOM      5  C   UNL     1      33.659 -22.153 -17.855  0.00  0.00    +0.072 A 
ATOM      6  C   UNL     1      34.486 -22.773 -16.934  0.00  0.00    +0.183 A 
ATOM      7  C   UNL     1      34.561 -21.532 -18.741  0.00  0.00    +0.174 A 
ATOM      8  C   UNL     1      34.032 -23.523 -15.852  0.00  0.00    +0.101 C 
ATOM      9  C   UNL     1      32.269 -22.272 -17.711  0.00  0.00    +0.007 C 
ATOM     10  C   UNL     1      32.644 -23.633 -15.722  0.00  0.00    +0.065 C 
ATOM     11  C   UNL     1      31.777 -23.020 -16.633  0.00  0.00    +0.012 C 
ATOM     12  H   UNL     1      33.161 -20.835 -19.945  0.00  0.00    +0.154 HD
ENDROOT
BRANCH   3  13
ATOM     13  C   UNL     1      34.828 -20.010 -20.764  0.00  0.00    +0.049 C 
ATOM     14  C   UNL     1      34.164 -19.553 -21.901  0.00  0.00    +0.018 C 
ATOM     15  C   UNL     1      34.842 -18.773 -22.838  0.00  0.00    +0.073 C 
ATOM     16  C   UNL     1      36.170 -19.688 -20.562  0.00  0.00    +0.015 C 
ATOM     17  C   UNL     1      36.184 -18.451 -22.638  0.00  0.00    +0.004 C 
ATOM     18  C   UNL     1      36.848 -18.909 -21.499  0.00  0.00    +0.001 C 
BRANCH  15  22
ATOM     19  F   UNL     1      34.877 -18.377 -25.198  0.00  0.00    -0.166 F 
ATOM     20  F   UNL     1      32.980 -18.965 -24.328  0.00  0.00    -0.166 F 
ATOM     21  F   UNL     1      33.770 -16.972 -23.962  0.00  0.00    -0.166 F 
ATOM     22  C   UNL     1      34.133 -18.285 -24.056  0.00  0.00    +0.419 C 
ENDBRANCH  15  22
ENDBRANCH   3  13
BRANCH   8  25
ATOM     23  O   UNL     1      35.037 -25.370 -14.822  0.00  0.00    -0.270 OA
ATOM     24  N   UNL     1      35.747 -23.241 -14.187  0.00  0.00    -0.278 N 
ATOM     25  C   UNL     1      34.974 -24.140 -14.934  0.00  0.00    +0.253 C 
ATOM     26  H   UNL     1      35.597 -22.286 -14.376  0.00  0.00    +0.155 HD
BRANCH  24  29
ATOM     27  N   UNL     1      37.480 -23.369 -10.918  0.00  0.00    -0.221 NA
ATOM     28  N   UNL     1      38.804 -24.543 -12.553  0.00  0.00    -0.221 NA
ATOM     29  C   UNL     1      36.717 -23.531 -13.195  0.00  0.00    +0.089 C 
ATOM     30  C   UNL     1      36.578 -23.111 -11.887  0.00  0.00    +0.117 C 
ATOM     31  C   UNL     1      37.861 -24.249 -13.473  0.00  0.00    +0.117 C 
ATOM     32  C   UNL     1      38.554 -24.078 -11.314  0.00  0.00    +0.199 C 
ENDBRANCH  24  29
ENDBRANCH   8  25
TORSDOF 4
ENDMDL
MODEL 4
REMARK VINA RESULT:     -11.4      5.347      9.584
REMARK  Name = 23658582
REMARK  4 active torsions:
REMARK  status: ('A' for Active; 'I' for Inactive)
REMARK    1  A    between atoms: N_3  and  C_13
REMARK    2  A    between atoms: C_8  and  C_25
REMARK    3  A    between atoms: C_15  and  C_22
REMARK    4  A    between atoms: N_24  and  C_29
REMARK                            x       y       z     vdW  Elec       q    Type
REMARK                         _______ _______ _______ _____ _____    ______ ____
ROOT
ATOM      1 CL   UNL     1      35.047 -19.565 -24.197  0.00  0.00    -0.082 Cl
ATOM      2  O   UNL     1      34.445 -15.369 -21.229  0.00  0.00    -0.352 OA
ATOM      3  N   UNL     1      33.746 -12.816 -23.507  0.00  0.00    -0.295 N 
ATOM      4  N   UNL     1      34.155 -14.033 -21.484  0.00  0.00    -0.062 NA
ATOM      5  C   UNL     1      34.227 -15.186 -23.451  0.00  0.00    +0.072 A 
ATOM      6  C   UNL     1      34.486 -16.054 -22.404  0.00  0.00    +0.183 A 
ATOM      7  C   UNL     1      34.030 -13.947 -22.811  0.00  0.00    +0.174 A 
ATOM      8  C   UNL     1      34.747 -17.413 -22.558  0.00  0.00    +0.101 C 
ATOM      9  C   UNL     1      34.220 -15.684 -24.763  0.00  0.00    +0.007 C 
ATOM     10  C   UNL     1      34.737 -17.894 -23.871  0.00  0.00    +0.065 C 
ATOM     11  C   UNL     1      34.479 -17.048 -24.954  0.00  0.00    +0.012 C 
ATOM     12  H   UNL     1      33.783 -12.930 -24.484  0.00  0.00    +0.154 HD
ENDROOT
BRANCH   3  13
ATOM     13  C   UNL     1      33.407 -11.496 -23.095  0.00  0.00    +0.049 C 
ATOM     14  C   UNL     1      34.134 -10.408 -23.574  0.00  0.00    +0.018 C 
ATOM     15  C   UNL     1      33.801  -9.114 -23.171  0.00  0.00    +0.073 C 
ATOM     16  C   UNL     1      32.345 -11.292 -22.214  0.00  0.00    +0.015 C 
ATOM     17  C   UNL     1      32.741  -8.910 -22.289  0.00  0.00    +0.004 C 
ATOM     18  C   UNL     1      32.012 -10.000 -21.810  0.00  0.00    +0.001 C 
BRANCH  15  22
ATOM     19  F   UNL     1      35.410  -7.394 -22.750  0.00  0.00    -0.166 F 
ATOM     20  F   UNL     1      35.388  -8.253 -24.741  0.00  0.00    -0.166 F 
ATOM     21  F   UNL     1      33.780  -6.931 -24.113  0.00  0.00    -0.166 F 
ATOM     22  C   UNL     1      34.580  -7.949 -23.682  0.00  0.00    +0.419 C 
ENDBRANCH  15  22
ENDBRANCH   3  13
BRANCH   8  25
ATOM     23  O   UNL     1      35.914 -17.965 -20.604  0.00  0.00    -0.270 OA
ATOM     24  N   UNL     1      34.199 -19.387 -21.295  0.00  0.00    -0.278 N 
ATOM     25  C   UNL     1      35.009 -18.250 -21.399  0.00  0.00    +0.253 C 
ATOM     26  H   UNL     1      33.516 -19.493 -21.996  0.00  0.00    +0.155 HD
BRANCH  24  29
ATOM     27  N   UNL     1      35.494 -21.900 -18.903  0.00  0.00    -0.221 NA
ATOM     28  N   UNL     1      33.087 -21.900 -18.813  0.00  0.00    -0.221 NA
ATOM     29  C   UNL     1      34.235 -20.405 -20.308  0.00  0.00    +0.089 C 
ATOM     30  C   UNL     1      35.422 -20.932 -19.841  0.00  0.00    +0.117 C 
ATOM     31  C   UNL     1      33.088 -20.932 -19.754  0.00  0.00    +0.117 C 
ATOM     32  C   UNL     1      34.306 -22.332 -18.440  0.00  0.00    +0.199 C 
ENDBRANCH  24  29
ENDBRANCH   8  25
TORSDOF 4
ENDMDL
MODEL 5
REMARK VINA RESULT:     -11.0      6.146     10.456
REMARK  Name = 23658582
REMARK  4 active torsions:
REMARK  status: ('A' for Active; 'I' for Inactive)
REMARK    1  A    between atoms: N_3  and  C_13
REMARK    2  A    between atoms: C_8  and  C_25
REMARK    3  A    between atoms: C_15  and  C_22
REMARK    4  A    between atoms: N_24  and  C_29
REMARK                            x       y       z     vdW  Elec       q    Type
REMARK                         _______ _______ _______ _____ _____    ______ ____
ROOT
ATOM      1 CL   UNL     1      36.304 -23.378 -15.745  0.00  0.00    -0.082 Cl
ATOM      2  O   UNL     1      33.135 -21.438 -19.347  0.00  0.00    -0.352 OA
ATOM      3  N   UNL     1      35.212 -19.429 -21.306  0.00  0.00    -0.295 N 
ATOM      4  N   UNL     1      33.303 -20.577 -20.426  0.00  0.00    -0.062 NA
ATOM      5  C   UNL     1      35.303 -20.877 -19.370  0.00  0.00    +0.072 A 
ATOM      6  C   UNL     1      34.330 -21.615 -18.720  0.00  0.00    +0.183 A 
ATOM      7  C   UNL     1      34.599 -20.255 -20.420  0.00  0.00    +0.174 A 
ATOM      8  C   UNL     1      34.564 -22.408 -17.599  0.00  0.00    +0.101 C 
ATOM      9  C   UNL     1      36.620 -20.911 -18.888  0.00  0.00    +0.007 C 
ATOM     10  C   UNL     1      35.881 -22.432 -17.130  0.00  0.00    +0.065 C 
ATOM     11  C   UNL     1      36.891 -21.699 -17.761  0.00  0.00    +0.012 C 
ATOM     12  H   UNL     1      36.154 -19.241 -21.089  0.00  0.00    +0.154 HD
ENDROOT
BRANCH   3  13
ATOM     13  C   UNL     1      34.755 -18.781 -22.488  0.00  0.00    +0.049 C 
ATOM     14  C   UNL     1      34.693 -17.389 -22.541  0.00  0.00    +0.018 C 
ATOM     15  C   UNL     1      34.246 -16.753 -23.699  0.00  0.00    +0.073 C 
ATOM     16  C   UNL     1      34.371 -19.538 -23.595  0.00  0.00    +0.015 C 
ATOM     17  C   UNL     1      33.861 -17.510 -24.805  0.00  0.00    +0.004 C 
ATOM     18  C   UNL     1      33.923 -18.904 -24.752  0.00  0.00    +0.001 C 
BRANCH  15  22
ATOM     19  F   UNL     1      33.065 -14.744 -23.159  0.00  0.00    -0.166 F 
ATOM     20  F   UNL     1      35.231 -14.645 -23.145  0.00  0.00    -0.166 F 
ATOM     21  F   UNL     1      34.164 -14.788 -25.034  0.00  0.00    -0.166 F 
ATOM     22  C   UNL     1      34.177 -15.265 -23.756  0.00  0.00    +0.419 C 
ENDBRANCH  15  22
ENDBRANCH   3  13
BRANCH   8  25
ATOM     23  O   UNL     1      32.739 -23.875 -17.659  0.00  0.00    -0.270 OA
ATOM     24  N   UNL     1      33.329 -22.942 -15.604  0.00  0.00    -0.278 N 
ATOM     25  C   UNL     1      33.478 -23.150 -16.981  0.00  0.00    +0.253 C 
ATOM     26  H   UNL     1      33.987 -22.340 -15.187  0.00  0.00    +0.155 HD
BRANCH  24  29
ATOM     27  N   UNL     1      31.754 -25.007 -12.964  0.00  0.00    -0.221 NA
ATOM     28  N   UNL     1      30.080 -23.578 -13.945  0.00  0.00    -0.221 NA
ATOM     29  C   UNL     1      32.352 -23.489 -14.733  0.00  0.00    +0.089 C 
ATOM     30  C   UNL     1      32.657 -24.465 -13.807  0.00  0.00    +0.117 C 
ATOM     31  C   UNL     1      31.035 -23.080 -14.758  0.00  0.00    +0.117 C 
ATOM     32  C   UNL     1      30.503 -24.525 -13.085  0.00  0.00    +0.199 C 
ENDBRANCH  24  29
ENDBRANCH   8  25
TORSDOF 4
ENDMDL
MODEL 6
REMARK VINA RESULT:     -10.9      4.414      7.506
REMARK  Name = 23658582
REMARK  4 active torsions:
REMARK  status: ('A' for Active; 'I' for Inactive)
REMARK    1  A    between atoms: N_3  and  C_13
REMARK    2  A    between atoms: C_8  and  C_25
REMARK    3  A    between atoms: C_15  and  C_22
REMARK    4  A    between atoms: N_24  and  C_29
REMARK                            x       y       z     vdW  Elec       q    Type
REMARK                         _______ _______ _______ _____ _____    ______ ____
ROOT
ATOM      1 CL   UNL     1      37.393 -19.369 -21.563  0.00  0.00    -0.082 Cl
ATOM      2  O   UNL     1      32.763 -20.824 -19.763  0.00  0.00    -0.352 OA
ATOM      3  N   UNL     1      33.520 -22.808 -16.992  0.00  0.00    -0.295 N 
ATOM      4  N   UNL     1      32.340 -21.610 -18.698  0.00  0.00    -0.062 NA
ATOM      5  C   UNL     1      34.619 -21.520 -18.720  0.00  0.00    +0.072 A 
ATOM      6  C   UNL     1      34.123 -20.772 -19.773  0.00  0.00    +0.183 A 
ATOM      7  C   UNL     1      33.460 -22.014 -18.091  0.00  0.00    +0.174 A 
ATOM      8  C   UNL     1      34.916 -20.083 -20.688  0.00  0.00    +0.101 C 
ATOM      9  C   UNL     1      36.008 -21.606 -18.539  0.00  0.00    +0.007 C 
ATOM     10  C   UNL     1      36.298 -20.178 -20.495  0.00  0.00    +0.065 C 
ATOM     11  C   UNL     1      36.836 -20.925 -19.442  0.00  0.00    +0.012 C 
ATOM     12  H   UNL     1      34.435 -23.072 -16.742  0.00  0.00    +0.154 HD
ENDROOT
BRANCH   3  13
ATOM     13  C   UNL     1      32.516 -23.334 -16.131  0.00  0.00    +0.049 C 
ATOM     14  C   UNL     1      31.170 -23.218 -16.478  0.00  0.00    +0.018 C 
ATOM     15  C   UNL     1      30.186 -23.734 -15.635  0.00  0.00    +0.073 C 
ATOM     16  C   UNL     1      32.878 -23.968 -14.942  0.00  0.00    +0.015 C 
ATOM     17  C   UNL     1      30.547 -24.367 -14.446  0.00  0.00    +0.004 C 
ATOM     18  C   UNL     1      31.894 -24.483 -14.100  0.00  0.00    +0.001 C 
BRANCH  15  22
ATOM     19  F   UNL     1      27.926 -23.370 -14.938  0.00  0.00    -0.166 F 
ATOM     20  F   UNL     1      28.493 -22.592 -16.881  0.00  0.00    -0.166 F 
ATOM     21  F   UNL     1      28.256 -24.735 -16.598  0.00  0.00    -0.166 F 
ATOM     22  C   UNL     1      28.746 -23.608 -16.004  0.00  0.00    +0.419 C 
ENDBRANCH  15  22
ENDBRANCH   3  13
BRANCH   8  25
ATOM     23  O   UNL     1      33.306 -19.748 -22.355  0.00  0.00    -0.270 OA
ATOM     24  N   UNL     1      34.961 -18.126 -22.088  0.00  0.00    -0.278 N 
ATOM     25  C   UNL     1      34.307 -19.322 -21.766  0.00  0.00    +0.253 C 
ATOM     26  H   UNL     1      35.747 -17.905 -21.538  0.00  0.00    +0.155 HD
BRANCH  24  29
ATOM     27  N   UNL     1      34.035 -16.724 -25.387  0.00  0.00    -0.221 NA
ATOM     28  N   UNL     1      34.277 -14.920 -23.809  0.00  0.00    -0.221 NA
ATOM     29  C   UNL     1      34.635 -17.192 -23.104  0.00  0.00    +0.089 C 
ATOM     30  C   UNL     1      34.349 -17.584 -24.396  0.00  0.00    +0.117 C 
ATOM     31  C   UNL     1      34.584 -15.835 -22.866  0.00  0.00    +0.117 C 
ATOM     32  C   UNL     1      34.017 -15.426 -25.030  0.00  0.00    +0.199 C 
ENDBRANCH  24  29
ENDBRANCH   8  25
TORSDOF 4
ENDMDL
MODEL 7
REMARK VINA RESULT:     -10.3      4.128      6.929
REMARK  Name = 23658582
REMARK  4 active torsions:
REMARK  status: ('A' for Active; 'I' for Inactive)
REMARK    1  A    between atoms: N_3  and  C_13
REMARK    2  A    between atoms: C_8  and  C_25
REMARK    3  A    between atoms: C_15  and  C_22
REMARK    4  A    between atoms: N_24  and  C_29
REMARK                            x       y       z     vdW  Elec       q    Type
REMARK                         _______ _______ _______ _____ _____    ______ ____
ROOT
ATOM      1 CL   UNL     1      37.536 -18.817 -22.287  0.00  0.00    -0.082 Cl
ATOM      2  O   UNL     1      32.952 -20.305 -20.401  0.00  0.00    -0.352 OA
ATOM      3  N   UNL     1      33.774 -22.277 -17.639  0.00  0.00    -0.295 N 
ATOM      4  N   UNL     1      32.554 -21.092 -19.326  0.00  0.00    -0.062 NA
ATOM      5  C   UNL     1      34.831 -20.984 -19.389  0.00  0.00    +0.072 A 
ATOM      6  C   UNL     1      34.311 -20.242 -20.435  0.00  0.00    +0.183 A 
ATOM      7  C   UNL     1      33.687 -21.486 -18.739  0.00  0.00    +0.174 A 
ATOM      8  C   UNL     1      35.081 -19.549 -21.366  0.00  0.00    +0.101 C 
ATOM      9  C   UNL     1      36.224 -21.058 -19.233  0.00  0.00    +0.007 C 
ATOM     10  C   UNL     1      36.467 -19.633 -21.198  0.00  0.00    +0.065 C 
ATOM     11  C   UNL     1      37.030 -20.373 -20.153  0.00  0.00    +0.012 C 
ATOM     12  H   UNL     1      34.696 -22.533 -17.405  0.00  0.00    +0.154 HD
ENDROOT
BRANCH   3  13
ATOM     13  C   UNL     1      32.790 -22.809 -16.759  0.00  0.00    +0.049 C 
ATOM     14  C   UNL     1      33.173 -23.378 -15.546  0.00  0.00    +0.018 C 
ATOM     15  C   UNL     1      32.208 -23.899 -14.684  0.00  0.00    +0.073 C 
ATOM     16  C   UNL     1      31.441 -22.759 -17.111  0.00  0.00    +0.015 C 
ATOM     17  C   UNL     1      30.860 -23.850 -15.035  0.00  0.00    +0.004 C 
ATOM     18  C   UNL     1      30.476 -23.280 -16.250  0.00  0.00    +0.001 C 
BRANCH  15  22
ATOM     19  F   UNL     1      32.602 -23.633 -12.339  0.00  0.00    -0.166 F 
ATOM     20  F   UNL     1      31.819 -25.546 -12.993  0.00  0.00    -0.166 F 
ATOM     21  F   UNL     1      33.885 -25.016 -13.421  0.00  0.00    -0.166 F 
ATOM     22  C   UNL     1      32.618 -24.510 -13.386  0.00  0.00    +0.419 C 
ENDBRANCH  15  22
ENDBRANCH   3  13
BRANCH   8  25
ATOM     23  O   UNL     1      33.665 -19.346 -23.220  0.00  0.00    -0.270 OA
ATOM     24  N   UNL     1      34.822 -17.448 -22.511  0.00  0.00    -0.278 N 
ATOM     25  C   UNL     1      34.447 -18.796 -22.434  0.00  0.00    +0.253 C 
ATOM     26  H   UNL     1      35.452 -17.138 -21.821  0.00  0.00    +0.155 HD
BRANCH  24  29
ATOM     27  N   UNL     1      33.591 -14.264 -23.944  0.00  0.00    -0.221 NA
ATOM     28  N   UNL     1      34.014 -15.818 -25.736  0.00  0.00    -0.221 NA
ATOM     29  C   UNL     1      34.409 -16.474 -23.454  0.00  0.00    +0.089 C 
ATOM     30  C   UNL     1      33.990 -15.215 -23.074  0.00  0.00    +0.117 C 
ATOM     31  C   UNL     1      34.399 -16.723 -24.811  0.00  0.00    +0.117 C 
ATOM     32  C   UNL     1      33.627 -14.627 -25.240  0.00  0.00    +0.199 C 
ENDBRANCH  24  29
ENDBRANCH   8  25
TORSDOF 4
ENDMDL
MODEL 8
REMARK VINA RESULT:     -10.2      6.570     11.445
REMARK  Name = 23658582
REMARK  4 active torsions:
REMARK  status: ('A' for Active; 'I' for Inactive)
REMARK    1  A    between atoms: N_3  and  C_13
REMARK    2  A    between atoms: C_8  and  C_25
REMARK    3  A    between atoms: C_15  and  C_22
REMARK    4  A    between atoms: N_24  and  C_29
REMARK                            x       y       z     vdW  Elec       q    Type
REMARK                         _______ _______ _______ _____ _____    ______ ____
ROOT
ATOM      1 CL   UNL     1      33.951 -24.271 -14.734  0.00  0.00    -0.082 Cl
ATOM      2  O   UNL     1      36.596 -21.387 -18.121  0.00  0.00    -0.352 OA
ATOM      3  N   UNL     1      34.226 -20.539 -20.541  0.00  0.00    -0.295 N 
ATOM      4  N   UNL     1      36.269 -20.735 -19.305  0.00  0.00    -0.062 NA
ATOM      5  C   UNL     1      34.420 -21.783 -18.475  0.00  0.00    +0.072 A 
ATOM      6  C   UNL     1      35.491 -22.010 -17.629  0.00  0.00    +0.183 A 
ATOM      7  C   UNL     1      34.970 -20.985 -19.497  0.00  0.00    +0.174 A 
ATOM      8  C   UNL     1      35.422 -22.765 -16.460  0.00  0.00    +0.101 C 
ATOM      9  C   UNL     1      33.171 -22.338 -18.158  0.00  0.00    +0.007 C 
ATOM     10  C   UNL     1      34.171 -23.312 -16.158  0.00  0.00    +0.065 C 
ATOM     11  C   UNL     1      33.066 -23.104 -16.989  0.00  0.00    +0.012 C 
ATOM     12  H   UNL     1      33.310 -20.899 -20.559  0.00  0.00    +0.154 HD
ENDROOT
BRANCH   3  13
ATOM     13  C   UNL     1      34.515 -19.652 -21.616  0.00  0.00    +0.049 C 
ATOM     14  C   UNL     1      34.478 -18.274 -21.412  0.00  0.00    +0.018 C 
ATOM     15  C   UNL     1      34.762 -17.405 -22.466  0.00  0.00    +0.073 C 
ATOM     16  C   UNL     1      34.837 -20.163 -22.874  0.00  0.00    +0.015 C 
ATOM     17  C   UNL     1      35.083 -17.915 -23.723  0.00  0.00    +0.004 C 
ATOM     18  C   UNL     1      35.121 -19.295 -23.927  0.00  0.00    +0.001 C 
BRANCH  15  22
ATOM     19  F   UNL     1      33.525 -15.360 -22.580  0.00  0.00    -0.166 F 
ATOM     20  F   UNL     1      34.943 -15.561 -20.952  0.00  0.00    -0.166 F 
ATOM     21  F   UNL     1      35.659 -15.264 -22.984  0.00  0.00    -0.166 F 
ATOM     22  C   UNL     1      34.721 -15.930 -22.249  0.00  0.00    +0.419 C 
ENDBRANCH  15  22
ENDBRANCH   3  13
BRANCH   8  25
ATOM     23  O   UNL     1      37.206 -21.979 -15.162  0.00  0.00    -0.270 OA
ATOM     24  N   UNL     1      36.994 -24.284 -15.454  0.00  0.00    -0.278 N 
ATOM     25  C   UNL     1      36.600 -22.952 -15.631  0.00  0.00    +0.253 C 
ATOM     26  H   UNL     1      36.422 -24.961 -15.882  0.00  0.00    +0.155 HD
BRANCH  24  29
ATOM     27  N   UNL     1      39.012 -26.002 -12.868  0.00  0.00    -0.221 NA
ATOM     28  N   UNL     1      40.494 -25.026 -14.498  0.00  0.00    -0.221 NA
ATOM     29  C   UNL     1      38.112 -24.782 -14.737  0.00  0.00    +0.089 C 
ATOM     30  C   UNL     1      37.972 -25.513 -13.575  0.00  0.00    +0.117 C 
ATOM     31  C   UNL     1      39.409 -24.567 -15.155  0.00  0.00    +0.117 C 
ATOM     32  C   UNL     1      40.227 -25.725 -13.378  0.00  0.00    +0.199 C 
ENDBRANCH  24  29
ENDBRANCH   8  25
TORSDOF 4
ENDMDL
MODEL 9
REMARK VINA RESULT:     -10.2      5.199      9.410
REMARK  Name = 23658582
REMARK  4 active torsions:
REMARK  status: ('A' for Active; 'I' for Inactive)
REMARK    1  A    between atoms: N_3  and  C_13
REMARK    2  A    between atoms: C_8  and  C_25
REMARK    3  A    between atoms: C_15  and  C_22
REMARK    4  A    between atoms: N_24  and  C_29
REMARK                            x       y       z     vdW  Elec       q    Type
REMARK                         _______ _______ _______ _____ _____    ______ ____
ROOT
ATOM      1 CL   UNL     1      34.758 -18.421 -25.121  0.00  0.00    -0.082 Cl
ATOM      2  O   UNL     1      34.371 -15.226 -21.067  0.00  0.00    -0.352 OA
ATOM      3  N   UNL     1      32.750 -12.416 -22.359  0.00  0.00    -0.295 N 
ATOM      4  N   UNL     1      33.840 -13.955 -20.881  0.00  0.00    -0.062 NA
ATOM      5  C   UNL     1      33.556 -14.588 -23.054  0.00  0.00    +0.072 A 
ATOM      6  C   UNL     1      34.199 -15.602 -22.364  0.00  0.00    +0.183 A 
ATOM      7  C   UNL     1      33.362 -13.594 -22.075  0.00  0.00    +0.174 A 
ATOM      8  C   UNL     1      34.599 -16.808 -22.934  0.00  0.00    +0.101 C 
ATOM      9  C   UNL     1      33.277 -14.763 -24.418  0.00  0.00    +0.007 C 
ATOM     10  C   UNL     1      34.314 -16.967 -24.294  0.00  0.00    +0.065 C 
ATOM     11  C   UNL     1      33.666 -15.966 -25.024  0.00  0.00    +0.012 C 
ATOM     12  H   UNL     1      32.546 -12.293 -23.314  0.00  0.00    +0.154 HD
ENDROOT
BRANCH   3  13
ATOM     13  C   UNL     1      32.349 -11.323 -21.541  0.00  0.00    +0.049 C 
ATOM     14  C   UNL     1      32.414 -10.021 -22.036  0.00  0.00    +0.018 C 
ATOM     15  C   UNL     1      32.020  -8.949 -21.234  0.00  0.00    +0.073 C 
ATOM     16  C   UNL     1      31.888 -11.554 -20.245  0.00  0.00    +0.015 C 
ATOM     17  C   UNL     1      31.560  -9.180 -19.938  0.00  0.00    +0.004 C 
ATOM     18  C   UNL     1      31.494 -10.483 -19.443  0.00  0.00    +0.001 C 
BRANCH  15  22
ATOM     19  F   UNL     1      30.879  -7.046 -22.130  0.00  0.00    -0.166 F 
ATOM     20  F   UNL     1      32.598  -6.657 -20.867  0.00  0.00    -0.166 F 
ATOM     21  F   UNL     1      32.882  -7.454 -22.870  0.00  0.00    -0.166 F 
ATOM     22  C   UNL     1      32.092  -7.556 -21.762  0.00  0.00    +0.419 C 
ENDBRANCH  15  22
ENDBRANCH   3  13
BRANCH   8  25
ATOM     23  O   UNL     1      36.503 -17.913 -22.137  0.00  0.00    -0.270 OA
ATOM     24  N   UNL     1      34.417 -18.662 -21.411  0.00  0.00    -0.278 N 
ATOM     25  C   UNL     1      35.269 -17.817 -22.132  0.00  0.00    +0.253 C 
ATOM     26  H   UNL     1      33.454 -18.474 -21.495  0.00  0.00    +0.155 HD
BRANCH  24  29
ATOM     27  N   UNL     1      34.110 -21.674 -19.279  0.00  0.00    -0.221 NA
ATOM     28  N   UNL     1      36.431 -21.043 -19.414  0.00  0.00    -0.221 NA
ATOM     29  C   UNL     1      34.763 -19.754 -20.575  0.00  0.00    +0.089 C 
ATOM     30  C   UNL     1      33.817 -20.626 -20.075  0.00  0.00    +0.117 C 
ATOM     31  C   UNL     1      36.067 -20.013 -20.207  0.00  0.00    +0.117 C 
ATOM     32  C   UNL     1      35.417 -21.822 -18.992  0.00  0.00    +0.199 C 
ENDBRANCH  24  29
ENDBRANCH   8  25
TORSDOF 4
ENDMDL
