MODEL 1
REMARK VINA RESULT:     -11.5      0.000      0.000
REMARK  Name = 42611257
REMARK  7 active torsions:
REMARK  status: ('A' for Active; 'I' for Inactive)
REMARK    1  A    between atoms: C_2  and  C_6
REMARK    2  A    between atoms: C_2  and  C_22
REMARK    3  A    between atoms: C_10  and  C_14
REMARK    4  A    between atoms: C_23  and  N_28
REMARK    5  A    between atoms: N_28  and  S_30
REMARK    6  A    between atoms: S_30  and  C_33
REMARK    7  A    between atoms: C_33  and  C_34
REMARK                            x       y       z     vdW  Elec       q    Type
REMARK                         _______ _______ _______ _____ _____    ______ ____
ROOT
ATOM      1  O   UNL     1      35.082 -13.054 -22.022  0.00  0.00    -0.286 OA
ATOM      2  C   UNL     1      33.998 -13.132 -22.641  0.00  0.00    +0.201 C 
ENDROOT
BRANCH   2   6
ATOM      3  N   UNL     1      33.219 -15.097 -25.564  0.00  0.00    -0.297 N 
ATOM      4  N   UNL     1      33.726 -17.404 -25.095  0.00  0.00    -0.229 NA
ATOM      5  C   UNL     1      34.026 -15.541 -23.530  0.00  0.00    +0.036 C 
ATOM      6  C   UNL     1      33.785 -14.146 -23.633  0.00  0.00    +0.056 C 
ATOM      7  C   UNL     1      33.663 -16.104 -24.750  0.00  0.00    +0.132 C 
ATOM      8  C   UNL     1      34.514 -16.407 -22.537  0.00  0.00    +0.004 C 
ATOM      9  C   UNL     1      33.288 -13.902 -24.896  0.00  0.00    +0.066 C 
ATOM     10  C   UNL     1      34.600 -17.764 -22.843  0.00  0.00    +0.019 C 
ATOM     11  C   UNL     1      34.203 -18.191 -24.104  0.00  0.00    +0.100 C 
ATOM     12  H   UNL     1      32.899 -15.213 -26.488  0.00  0.00    +0.154 HD
BRANCH  10  14
ATOM     13 CL   UNL     1      36.635 -21.647 -18.812  0.00  0.00    -0.082 Cl
ATOM     14  C   UNL     1      35.094 -18.707 -21.866  0.00  0.00    +0.002 C 
ATOM     15  C   UNL     1      36.439 -18.686 -21.494  0.00  0.00    +0.001 C 
ATOM     16  C   UNL     1      34.226 -19.637 -21.294  0.00  0.00    +0.001 C 
ATOM     17  C   UNL     1      36.915 -19.595 -20.549  0.00  0.00    +0.011 C 
ATOM     18  C   UNL     1      34.703 -20.547 -20.351  0.00  0.00    +0.011 C 
ATOM     19  C   UNL     1      36.047 -20.526 -19.977  0.00  0.00    +0.058 C 
ENDBRANCH  10  14
ENDBRANCH   2   6
BRANCH   2  22
ATOM     20  F   UNL     1      33.981 -10.522 -23.715  0.00  0.00    -0.203 F 
ATOM     21  F   UNL     1      31.889 -13.648 -20.822  0.00  0.00    -0.204 F 
ATOM     22  C   UNL     1      32.959 -12.107 -22.278  0.00  0.00    +0.095 C 
ATOM     23  C   UNL     1      32.045  -9.882 -22.509  0.00  0.00    +0.092 C 
ATOM     24  C   UNL     1      33.008 -10.833 -22.846  0.00  0.00    +0.160 C 
ATOM     25  C   UNL     1      31.946 -12.428 -21.374  0.00  0.00    +0.145 C 
ATOM     26  C   UNL     1      31.032 -10.204 -21.605  0.00  0.00    +0.020 C 
ATOM     27  C   UNL     1      30.983 -11.477 -21.038  0.00  0.00    +0.031 C 
BRANCH  23  28
ATOM     28  N   UNL     1      32.092  -8.578 -23.089  0.00  0.00    -0.217 N 
ATOM     29  H   UNL     1      32.029  -8.456 -24.064  0.00  0.00    +0.173 HD
BRANCH  28  30
ATOM     30  S   UNL     1      32.262  -7.226 -22.036  0.00  0.00    +0.054 S 
ATOM     31  O   UNL     1      30.947  -6.656 -21.806  0.00  0.00    -0.154 OA
ATOM     32  O   UNL     1      33.133  -7.543 -20.922  0.00  0.00    -0.154 OA
BRANCH  30  33
ATOM     33  C   UNL     1      33.131  -6.102 -23.106  0.00  0.00    +0.172 C 
BRANCH  33  34
ATOM     34  C   UNL     1      34.475  -6.670 -23.531  0.00  0.00    +0.027 C 
ATOM     35  C   UNL     1      35.039  -5.925 -24.729  0.00  0.00    +0.002 C 
ENDBRANCH  33  34
ENDBRANCH  30  33
ENDBRANCH  28  30
ENDBRANCH  23  28
ENDBRANCH   2  22
TORSDOF 7
ENDMDL
MODEL 2
REMARK VINA RESULT:     -11.1      5.715     10.731
REMARK  Name = 42611257
REMARK  7 active torsions:
REMARK  status: ('A' for Active; 'I' for Inactive)
REMARK    1  A    between atoms: C_2  and  C_6
REMARK    2  A    between atoms: C_2  and  C_22
REMARK    3  A    between atoms: C_10  and  C_14
REMARK    4  A    between atoms: C_23  and  N_28
REMARK    5  A    between atoms: N_28  and  S_30
REMARK    6  A    between atoms: S_30  and  C_33
REMARK    7  A    between atoms: C_33  and  C_34
REMARK                            x       y       z     vdW  Elec       q    Type
REMARK                         _______ _______ _______ _____ _____    ______ ____
ROOT
ATOM      1  O   UNL     1      35.250 -17.215 -20.535  0.00  0.00    -0.286 OA
ATOM      2  C   UNL     1      35.054 -18.230 -21.238  0.00  0.00    +0.201 C 
ENDROOT
BRANCH   2   6
ATOM      3  N   UNL     1      34.208 -18.690 -24.715  0.00  0.00    -0.297 N 
ATOM      4  N   UNL     1      33.641 -16.548 -25.657  0.00  0.00    -0.229 NA
ATOM      5  C   UNL     1      34.311 -16.940 -23.331  0.00  0.00    +0.036 C 
ATOM      6  C   UNL     1      34.674 -18.113 -22.617  0.00  0.00    +0.056 C 
ATOM      7  C   UNL     1      34.027 -17.335 -24.635  0.00  0.00    +0.132 C 
ATOM      8  C   UNL     1      34.188 -15.574 -23.028  0.00  0.00    +0.004 C 
ATOM      9  C   UNL     1      34.602 -19.174 -23.493  0.00  0.00    +0.066 C 
ATOM     10  C   UNL     1      33.792 -14.715 -24.050  0.00  0.00    +0.019 C 
ATOM     11  C   UNL     1      33.539 -15.245 -25.309  0.00  0.00    +0.100 C 
ATOM     12  H   UNL     1      34.076 -19.234 -25.525  0.00  0.00    +0.154 HD
BRANCH  10  14
ATOM     13 CL   UNL     1      33.195  -8.877 -23.030  0.00  0.00    -0.082 Cl
ATOM     14  C   UNL     1      33.645 -13.299 -23.803  0.00  0.00    +0.002 C 
ATOM     15  C   UNL     1      32.997 -12.854 -22.650  0.00  0.00    +0.001 C 
ATOM     16  C   UNL     1      34.154 -12.375 -24.717  0.00  0.00    +0.001 C 
ATOM     17  C   UNL     1      32.858 -11.487 -22.411  0.00  0.00    +0.011 C 
ATOM     18  C   UNL     1      34.014 -11.009 -24.478  0.00  0.00    +0.011 C 
ATOM     19  C   UNL     1      33.366 -10.564 -23.325  0.00  0.00    +0.058 C 
ENDBRANCH  10  14
ENDBRANCH   2   6
BRANCH   2  22
ATOM     20  F   UNL     1      32.897 -19.761 -20.256  0.00  0.00    -0.203 F 
ATOM     21  F   UNL     1      37.596 -19.405 -20.810  0.00  0.00    -0.204 F 
ATOM     22  C   UNL     1      35.240 -19.554 -20.548  0.00  0.00    +0.095 C 
ATOM     23  C   UNL     1      34.301 -21.488 -19.445  0.00  0.00    +0.092 C 
ATOM     24  C   UNL     1      34.130 -20.260 -20.086  0.00  0.00    +0.160 C 
ATOM     25  C   UNL     1      36.522 -20.075 -20.370  0.00  0.00    +0.145 C 
ATOM     26  C   UNL     1      35.584 -22.009 -19.267  0.00  0.00    +0.020 C 
ATOM     27  C   UNL     1      36.693 -21.302 -19.730  0.00  0.00    +0.031 C 
BRANCH  23  28
ATOM     28  N   UNL     1      33.167 -22.213 -18.970  0.00  0.00    -0.217 N 
ATOM     29  H   UNL     1      32.300 -22.157 -19.435  0.00  0.00    +0.173 HD
BRANCH  28  30
ATOM     30  S   UNL     1      33.356 -23.190 -17.565  0.00  0.00    +0.054 S 
ATOM     31  O   UNL     1      33.371 -24.584 -17.973  0.00  0.00    -0.154 OA
ATOM     32  O   UNL     1      34.397 -22.664 -16.705  0.00  0.00    -0.154 OA
BRANCH  30  33
ATOM     33  C   UNL     1      31.792 -22.902 -16.770  0.00  0.00    +0.172 C 
BRANCH  33  34
ATOM     34  C   UNL     1      31.874 -23.166 -15.275  0.00  0.00    +0.027 C 
ATOM     35  C   UNL     1      30.511 -23.046 -14.614  0.00  0.00    +0.002 C 
ENDBRANCH  33  34
ENDBRANCH  30  33
ENDBRANCH  28  30
ENDBRANCH  23  28
ENDBRANCH   2  22
TORSDOF 7
ENDMDL
MODEL 3
REMARK VINA RESULT:     -10.9      4.640     10.067
REMARK  Name = 42611257
REMARK  7 active torsions:
REMARK  status: ('A' for Active; 'I' for Inactive)
REMARK    1  A    between atoms: C_2  and  C_6
REMARK    2  A    between atoms: C_2  and  C_22
REMARK    3  A    between atoms: C_10  and  C_14
REMARK    4  A    between atoms: C_23  and  N_28
REMARK    5  A    between atoms: N_28  and  S_30
REMARK    6  A    between atoms: S_30  and  C_33
REMARK    7  A    between atoms: C_33  and  C_34
REMARK                            x       y       z     vdW  Elec       q    Type
REMARK                         _______ _______ _______ _____ _____    ______ ____
ROOT
ATOM      1  O   UNL     1      33.958 -12.279 -24.434  0.00  0.00    -0.286 OA
ATOM      2  C   UNL     1      33.537 -13.115 -23.606  0.00  0.00    +0.201 C 
ENDROOT
BRANCH   2   6
ATOM      3  N   UNL     1      31.888 -12.804 -20.412  0.00  0.00    -0.297 N 
ATOM      4  N   UNL     1      31.307 -10.491 -20.071  0.00  0.00    -0.229 NA
ATOM      5  C   UNL     1      32.452 -11.388 -22.045  0.00  0.00    +0.036 C 
ATOM      6  C   UNL     1      32.866 -12.697 -22.408  0.00  0.00    +0.056 C 
ATOM      7  C   UNL     1      31.846 -11.490 -20.796  0.00  0.00    +0.132 C 
ATOM      8  C   UNL     1      32.517 -10.113 -22.630  0.00  0.00    +0.004 C 
ATOM      9  C   UNL     1      32.505 -13.547 -21.385  0.00  0.00    +0.066 C 
ATOM     10  C   UNL     1      31.973  -9.044 -21.921  0.00  0.00    +0.019 C 
ATOM     11  C   UNL     1      31.398  -9.288 -20.681  0.00  0.00    +0.100 C 
ATOM     12  H   UNL     1      31.530 -13.160 -19.567  0.00  0.00    +0.154 HD
BRANCH  10  14
ATOM     13 CL   UNL     1      32.117  -3.533 -24.178  0.00  0.00    -0.082 Cl
ATOM     14  C   UNL     1      32.009  -7.706 -22.468  0.00  0.00    +0.002 C 
ATOM     15  C   UNL     1      33.135  -7.267 -23.165  0.00  0.00    +0.001 C 
ATOM     16  C   UNL     1      30.917  -6.855 -22.299  0.00  0.00    +0.001 C 
ATOM     17  C   UNL     1      33.168  -5.977 -23.694  0.00  0.00    +0.011 C 
ATOM     18  C   UNL     1      30.950  -5.565 -22.828  0.00  0.00    +0.011 C 
ATOM     19  C   UNL     1      32.076  -5.125 -23.525  0.00  0.00    +0.058 C 
ENDBRANCH  10  14
ENDBRANCH   2   6
BRANCH   2  22
ATOM     20  F   UNL     1      35.395 -14.724 -22.220  0.00  0.00    -0.203 F 
ATOM     21  F   UNL     1      32.175 -14.459 -25.694  0.00  0.00    -0.204 F 
ATOM     22  C   UNL     1      33.781 -14.560 -23.948  0.00  0.00    +0.095 C 
ATOM     23  C   UNL     1      34.942 -16.639 -23.539  0.00  0.00    +0.092 C 
ATOM     24  C   UNL     1      34.715 -15.299 -23.222  0.00  0.00    +0.160 C 
ATOM     25  C   UNL     1      33.074 -15.160 -24.990  0.00  0.00    +0.145 C 
ATOM     26  C   UNL     1      34.235 -17.239 -24.582  0.00  0.00    +0.020 C 
ATOM     27  C   UNL     1      33.301 -16.499 -25.307  0.00  0.00    +0.031 C 
BRANCH  23  28
ATOM     28  N   UNL     1      35.897 -17.399 -22.798  0.00  0.00    -0.217 N 
ATOM     29  H   UNL     1      36.773 -17.627 -23.186  0.00  0.00    +0.173 HD
BRANCH  28  30
ATOM     30  S   UNL     1      35.476 -17.904 -21.207  0.00  0.00    +0.054 S 
ATOM     31  O   UNL     1      36.665 -18.434 -20.564  0.00  0.00    -0.154 OA
ATOM     32  O   UNL     1      34.663 -16.904 -20.544  0.00  0.00    -0.154 OA
BRANCH  30  33
ATOM     33  C   UNL     1      34.431 -19.292 -21.585  0.00  0.00    +0.172 C 
BRANCH  33  34
ATOM     34  C   UNL     1      34.394 -20.286 -20.436  0.00  0.00    +0.027 C 
ATOM     35  C   UNL     1      32.968 -20.651 -20.061  0.00  0.00    +0.002 C 
ENDBRANCH  33  34
ENDBRANCH  30  33
ENDBRANCH  28  30
ENDBRANCH  23  28
ENDBRANCH   2  22
TORSDOF 7
ENDMDL
MODEL 4
REMARK VINA RESULT:     -10.6      4.356      7.385
REMARK  Name = 42611257
REMARK  7 active torsions:
REMARK  status: ('A' for Active; 'I' for Inactive)
REMARK    1  A    between atoms: C_2  and  C_6
REMARK    2  A    between atoms: C_2  and  C_22
REMARK    3  A    between atoms: C_10  and  C_14
REMARK    4  A    between atoms: C_23  and  N_28
REMARK    5  A    between atoms: N_28  and  S_30
REMARK    6  A    between atoms: S_30  and  C_33
REMARK    7  A    between atoms: C_33  and  C_34
REMARK                            x       y       z     vdW  Elec       q    Type
REMARK                         _______ _______ _______ _____ _____    ______ ____
ROOT
ATOM      1  O   UNL     1      36.510 -19.667 -20.360  0.00  0.00    -0.286 OA
ATOM      2  C   UNL     1      35.338 -19.526 -20.771  0.00  0.00    +0.201 C 
ENDROOT
BRANCH   2   6
ATOM      3  N   UNL     1      32.225 -21.155 -19.952  0.00  0.00    -0.297 N 
ATOM      4  N   UNL     1      32.592 -22.608 -18.067  0.00  0.00    -0.229 NA
ATOM      5  C   UNL     1      34.300 -21.206 -19.129  0.00  0.00    +0.036 C 
ATOM      6  C   UNL     1      34.263 -20.306 -20.227  0.00  0.00    +0.056 C 
ATOM      7  C   UNL     1      33.013 -21.717 -18.985  0.00  0.00    +0.132 C 
ATOM      8  C   UNL     1      35.279 -21.654 -18.227  0.00  0.00    +0.004 C 
ATOM      9  C   UNL     1      32.974 -20.295 -20.713  0.00  0.00    +0.066 C 
ATOM     10  C   UNL     1      34.895 -22.576 -17.256  0.00  0.00    +0.019 C 
ATOM     11  C   UNL     1      33.574 -23.005 -17.226  0.00  0.00    +0.100 C 
ATOM     12  H   UNL     1      31.267 -21.340 -20.082  0.00  0.00    +0.154 HD
BRANCH  10  14
ATOM     13 CL   UNL     1      38.848 -24.642 -13.308  0.00  0.00    -0.082 Cl
ATOM     14  C   UNL     1      35.855 -23.078 -16.299  0.00  0.00    +0.002 C 
ATOM     15  C   UNL     1      37.157 -22.579 -16.289  0.00  0.00    +0.001 C 
ATOM     16  C   UNL     1      35.478 -24.062 -15.385  0.00  0.00    +0.001 C 
ATOM     17  C   UNL     1      38.083 -23.062 -15.364  0.00  0.00    +0.011 C 
ATOM     18  C   UNL     1      36.404 -24.545 -14.460  0.00  0.00    +0.011 C 
ATOM     19  C   UNL     1      37.706 -24.045 -14.450  0.00  0.00    +0.058 C 
ENDBRANCH  10  14
ENDBRANCH   2   6
BRANCH   2  22
ATOM     20  F   UNL     1      34.938 -16.784 -20.234  0.00  0.00    -0.203 F 
ATOM     21  F   UNL     1      35.334 -20.177 -23.528  0.00  0.00    -0.204 F 
ATOM     22  C   UNL     1      35.140 -18.502 -21.856  0.00  0.00    +0.095 C 
ATOM     23  C   UNL     1      34.763 -16.211 -22.526  0.00  0.00    +0.092 C 
ATOM     24  C   UNL     1      34.947 -17.161 -21.521  0.00  0.00    +0.160 C 
ATOM     25  C   UNL     1      35.149 -18.892 -23.195  0.00  0.00    +0.145 C 
ATOM     26  C   UNL     1      34.773 -16.602 -23.866  0.00  0.00    +0.020 C 
ATOM     27  C   UNL     1      34.966 -17.942 -24.199  0.00  0.00    +0.031 C 
BRANCH  23  28
ATOM     28  N   UNL     1      34.566 -14.838 -22.187  0.00  0.00    -0.217 N 
ATOM     29  H   UNL     1      34.939 -14.464 -21.355  0.00  0.00    +0.173 HD
BRANCH  28  30
ATOM     30  S   UNL     1      33.661 -13.855 -23.273  0.00  0.00    +0.054 S 
ATOM     31  O   UNL     1      34.407 -12.634 -23.517  0.00  0.00    -0.154 OA
ATOM     32  O   UNL     1      33.149 -14.639 -24.378  0.00  0.00    -0.154 OA
BRANCH  30  33
ATOM     33  C   UNL     1      32.287 -13.420 -22.231  0.00  0.00    +0.172 C 
BRANCH  33  34
ATOM     34  C   UNL     1      32.682 -13.425 -20.763  0.00  0.00    +0.027 C 
ATOM     35  C   UNL     1      31.924 -12.367 -19.979  0.00  0.00    +0.002 C 
ENDBRANCH  33  34
ENDBRANCH  30  33
ENDBRANCH  28  30
ENDBRANCH  23  28
ENDBRANCH   2  22
TORSDOF 7
ENDMDL
MODEL 5
REMARK VINA RESULT:     -10.5      5.664     10.743
REMARK  Name = 42611257
REMARK  7 active torsions:
REMARK  status: ('A' for Active; 'I' for Inactive)
REMARK    1  A    between atoms: C_2  and  C_6
REMARK    2  A    between atoms: C_2  and  C_22
REMARK    3  A    between atoms: C_10  and  C_14
REMARK    4  A    between atoms: C_23  and  N_28
REMARK    5  A    between atoms: N_28  and  S_30
REMARK    6  A    between atoms: S_30  and  C_33
REMARK    7  A    between atoms: C_33  and  C_34
REMARK                            x       y       z     vdW  Elec       q    Type
REMARK                         _______ _______ _______ _____ _____    ______ ____
ROOT
ATOM      1  O   UNL     1      35.902 -17.822 -20.585  0.00  0.00    -0.286 OA
ATOM      2  C   UNL     1      35.252 -18.724 -21.156  0.00  0.00    +0.201 C 
ENDROOT
BRANCH   2   6
ATOM      3  N   UNL     1      34.403 -19.147 -24.636  0.00  0.00    -0.297 N 
ATOM      4  N   UNL     1      33.732 -17.012 -25.527  0.00  0.00    -0.229 NA
ATOM      5  C   UNL     1      34.436 -17.425 -23.215  0.00  0.00    +0.036 C 
ATOM      6  C   UNL     1      34.857 -18.595 -22.529  0.00  0.00    +0.056 C 
ATOM      7  C   UNL     1      34.161 -17.804 -24.526  0.00  0.00    +0.132 C 
ATOM      8  C   UNL     1      34.253 -16.073 -22.881  0.00  0.00    +0.004 C 
ATOM      9  C   UNL     1      34.826 -19.638 -23.429  0.00  0.00    +0.066 C 
ATOM     10  C   UNL     1      33.810 -15.210 -23.881  0.00  0.00    +0.019 C 
ATOM     11  C   UNL     1      33.572 -15.723 -25.150  0.00  0.00    +0.100 C 
ATOM     12  H   UNL     1      34.289 -19.679 -25.457  0.00  0.00    +0.154 HD
BRANCH  10  14
ATOM     13 CL   UNL     1      32.941  -9.431 -22.727  0.00  0.00    -0.082 Cl
ATOM     14  C   UNL     1      33.601 -13.808 -23.601  0.00  0.00    +0.002 C 
ATOM     15  C   UNL     1      34.080 -12.840 -24.484  0.00  0.00    +0.001 C 
ATOM     16  C   UNL     1      32.918 -13.422 -22.448  0.00  0.00    +0.001 C 
ATOM     17  C   UNL     1      33.876 -11.487 -24.214  0.00  0.00    +0.011 C 
ATOM     18  C   UNL     1      32.714 -12.069 -22.177  0.00  0.00    +0.011 C 
ATOM     19  C   UNL     1      33.193 -11.101 -23.060  0.00  0.00    +0.058 C 
ENDBRANCH  10  14
ENDBRANCH   2   6
BRANCH   2  22
ATOM     20  F   UNL     1      37.174 -20.080 -19.596  0.00  0.00    -0.203 F 
ATOM     21  F   UNL     1      32.649 -19.831 -21.002  0.00  0.00    -0.204 F 
ATOM     22  C   UNL     1      34.921 -19.929 -20.317  0.00  0.00    +0.095 C 
ATOM     23  C   UNL     1      35.614 -21.670 -18.791  0.00  0.00    +0.092 C 
ATOM     24  C   UNL     1      35.919 -20.552 -19.569  0.00  0.00    +0.160 C 
ATOM     25  C   UNL     1      33.616 -20.422 -20.288  0.00  0.00    +0.145 C 
ATOM     26  C   UNL     1      34.308 -22.162 -18.762  0.00  0.00    +0.020 C 
ATOM     27  C   UNL     1      33.310 -21.539 -19.510  0.00  0.00    +0.031 C 
BRANCH  23  28
ATOM     28  N   UNL     1      36.633 -22.310 -18.024  0.00  0.00    -0.217 N 
ATOM     29  H   UNL     1      37.183 -23.028 -18.413  0.00  0.00    +0.173 HD
BRANCH  28  30
ATOM     30  S   UNL     1      36.875 -21.791 -16.400  0.00  0.00    +0.054 S 
ATOM     31  O   UNL     1      37.500 -20.481 -16.425  0.00  0.00    -0.154 OA
ATOM     32  O   UNL     1      35.690 -22.026 -15.599  0.00  0.00    -0.154 OA
BRANCH  30  33
ATOM     33  C   UNL     1      38.122 -22.948 -15.883  0.00  0.00    +0.172 C 
BRANCH  33  34
ATOM     34  C   UNL     1      37.631 -23.818 -14.738  0.00  0.00    +0.027 C 
ATOM     35  C   UNL     1      38.623 -24.920 -14.411  0.00  0.00    +0.002 C 
ENDBRANCH  33  34
ENDBRANCH  30  33
ENDBRANCH  28  30
ENDBRANCH  23  28
ENDBRANCH   2  22
TORSDOF 7
ENDMDL
MODEL 6
REMARK VINA RESULT:     -10.3      8.365     12.860
REMARK  Name = 42611257
REMARK  7 active torsions:
REMARK  status: ('A' for Active; 'I' for Inactive)
REMARK    1  A    between atoms: C_2  and  C_6
REMARK    2  A    between atoms: C_2  and  C_22
REMARK    3  A    between atoms: C_10  and  C_14
REMARK    4  A    between atoms: C_23  and  N_28
REMARK    5  A    between atoms: N_28  and  S_30
REMARK    6  A    between atoms: S_30  and  C_33
REMARK    7  A    between atoms: C_33  and  C_34
REMARK                            x       y       z     vdW  Elec       q    Type
REMARK                         _______ _______ _______ _____ _____    ______ ____
ROOT
ATOM      1  O   UNL     1      33.818 -23.369 -19.181  0.00  0.00    -0.286 OA
ATOM      2  C   UNL     1      34.264 -22.834 -18.143  0.00  0.00    +0.201 C 
ENDROOT
BRANCH   2   6
ATOM      3  N   UNL     1      37.371 -21.073 -17.637  0.00  0.00    -0.297 N 
ATOM      4  N   UNL     1      37.586 -19.390 -19.347  0.00  0.00    -0.229 NA
ATOM      5  C   UNL     1      35.701 -20.941 -19.114  0.00  0.00    +0.036 C 
ATOM      6  C   UNL     1      35.413 -21.977 -18.187  0.00  0.00    +0.056 C 
ATOM      7  C   UNL     1      36.928 -20.398 -18.744  0.00  0.00    +0.132 C 
ATOM      8  C   UNL     1      35.063 -20.389 -20.238  0.00  0.00    +0.004 C 
ATOM      9  C   UNL     1      36.458 -22.035 -17.290  0.00  0.00    +0.066 C 
ATOM     10  C   UNL     1      35.702 -19.342 -20.899  0.00  0.00    +0.019 C 
ATOM     11  C   UNL     1      36.927 -18.898 -20.421  0.00  0.00    +0.100 C 
ATOM     12  H   UNL     1      38.216 -20.896 -17.165  0.00  0.00    +0.154 HD
BRANCH  10  14
ATOM     13 CL   UNL     1      33.210 -16.824 -25.687  0.00  0.00    -0.082 Cl
ATOM     14  C   UNL     1      35.098 -18.732 -22.062  0.00  0.00    +0.002 C 
ATOM     15  C   UNL     1      34.427 -19.521 -22.996  0.00  0.00    +0.001 C 
ATOM     16  C   UNL     1      35.186 -17.352 -22.249  0.00  0.00    +0.001 C 
ATOM     17  C   UNL     1      33.843 -18.932 -24.117  0.00  0.00    +0.011 C 
ATOM     18  C   UNL     1      34.602 -16.763 -23.370  0.00  0.00    +0.011 C 
ATOM     19  C   UNL     1      33.931 -17.552 -24.304  0.00  0.00    +0.058 C 
ENDBRANCH  10  14
ENDBRANCH   2   6
BRANCH   2  22
ATOM     20  F   UNL     1      35.401 -24.338 -16.043  0.00  0.00    -0.203 F 
ATOM     21  F   UNL     1      31.611 -21.975 -17.645  0.00  0.00    -0.204 F 
ATOM     22  C   UNL     1      33.524 -23.150 -16.871  0.00  0.00    +0.095 C 
ATOM     23  C   UNL     1      33.460 -24.194 -14.693  0.00  0.00    +0.092 C 
ATOM     24  C   UNL     1      34.145 -23.900 -15.872  0.00  0.00    +0.160 C 
ATOM     25  C   UNL     1      32.217 -22.695 -16.692  0.00  0.00    +0.145 C 
ATOM     26  C   UNL     1      32.153 -23.738 -14.514  0.00  0.00    +0.020 C 
ATOM     27  C   UNL     1      31.533 -22.989 -15.513  0.00  0.00    +0.031 C 
BRANCH  23  28
ATOM     28  N   UNL     1      34.092 -24.960 -13.668  0.00  0.00    -0.217 N 
ATOM     29  H   UNL     1      33.932 -25.929 -13.589  0.00  0.00    +0.173 HD
BRANCH  28  30
ATOM     30  S   UNL     1      35.144 -24.144 -12.575  0.00  0.00    +0.054 S 
ATOM     31  O   UNL     1      35.844 -23.102 -13.305  0.00  0.00    -0.154 OA
ATOM     32  O   UNL     1      34.466 -23.844 -11.331  0.00  0.00    -0.154 OA
BRANCH  30  33
ATOM     33  C   UNL     1      36.326 -25.433 -12.256  0.00  0.00    +0.172 C 
BRANCH  33  34
ATOM     34  C   UNL     1      37.326 -25.562 -13.393  0.00  0.00    +0.027 C 
ATOM     35  C   UNL     1      37.104 -26.838 -14.188  0.00  0.00    +0.002 C 
ENDBRANCH  33  34
ENDBRANCH  30  33
ENDBRANCH  28  30
ENDBRANCH  23  28
ENDBRANCH   2  22
TORSDOF 7
ENDMDL
MODEL 7
REMARK VINA RESULT:     -10.2      4.360     10.012
REMARK  Name = 42611257
REMARK  7 active torsions:
REMARK  status: ('A' for Active; 'I' for Inactive)
REMARK    1  A    between atoms: C_2  and  C_6
REMARK    2  A    between atoms: C_2  and  C_22
REMARK    3  A    between atoms: C_10  and  C_14
REMARK    4  A    between atoms: C_23  and  N_28
REMARK    5  A    between atoms: N_28  and  S_30
REMARK    6  A    between atoms: S_30  and  C_33
REMARK    7  A    between atoms: C_33  and  C_34
REMARK                            x       y       z     vdW  Elec       q    Type
REMARK                         _______ _______ _______ _____ _____    ______ ____
ROOT
ATOM      1  O   UNL     1      30.555 -11.638 -22.107  0.00  0.00    -0.286 OA
ATOM      2  C   UNL     1      31.538 -11.588 -21.336  0.00  0.00    +0.201 C 
ENDROOT
BRANCH   2   6
ATOM      3  N   UNL     1      31.877  -9.169 -18.681  0.00  0.00    -0.297 N 
ATOM      4  N   UNL     1      32.678  -7.102 -19.624  0.00  0.00    -0.229 NA
ATOM      5  C   UNL     1      32.232  -9.156 -20.886  0.00  0.00    +0.036 C 
ATOM      6  C   UNL     1      31.767 -10.442 -20.503  0.00  0.00    +0.056 C 
ATOM      7  C   UNL     1      32.290  -8.387 -19.727  0.00  0.00    +0.132 C 
ATOM      8  C   UNL     1      32.617  -8.543 -22.089  0.00  0.00    +0.004 C 
ATOM      9  C   UNL     1      31.556 -10.420 -19.141  0.00  0.00    +0.066 C 
ATOM     10  C   UNL     1      33.027  -7.212 -22.038  0.00  0.00    +0.019 C 
ATOM     11  C   UNL     1      33.037  -6.562 -20.811  0.00  0.00    +0.100 C 
ATOM     12  H   UNL     1      31.820  -8.877 -17.742  0.00  0.00    +0.154 HD
BRANCH  10  14
ATOM     13 CL   UNL     1      34.719  -4.371 -26.993  0.00  0.00    -0.082 Cl
ATOM     14  C   UNL     1      33.436  -6.524 -23.241  0.00  0.00    +0.002 C 
ATOM     15  C   UNL     1      32.520  -5.743 -23.946  0.00  0.00    +0.001 C 
ATOM     16  C   UNL     1      34.750  -6.639 -23.697  0.00  0.00    +0.001 C 
ATOM     17  C   UNL     1      32.916  -5.077 -25.105  0.00  0.00    +0.011 C 
ATOM     18  C   UNL     1      35.146  -5.974 -24.857  0.00  0.00    +0.011 C 
ATOM     19  C   UNL     1      34.230  -5.193 -25.561  0.00  0.00    +0.058 C 
ENDBRANCH  10  14
ENDBRANCH   2   6
BRANCH   2  22
ATOM     20  F   UNL     1      33.079 -12.326 -23.582  0.00  0.00    -0.203 F 
ATOM     21  F   UNL     1      31.848 -13.306 -19.105  0.00  0.00    -0.204 F 
ATOM     22  C   UNL     1      32.444 -12.789 -21.345  0.00  0.00    +0.095 C 
ATOM     23  C   UNL     1      34.018 -14.212 -22.501  0.00  0.00    +0.092 C 
ATOM     24  C   UNL     1      33.179 -13.098 -22.490  0.00  0.00    +0.160 C 
ATOM     25  C   UNL     1      32.549 -13.594 -20.211  0.00  0.00    +0.145 C 
ATOM     26  C   UNL     1      34.123 -15.017 -21.365  0.00  0.00    +0.020 C 
ATOM     27  C   UNL     1      33.389 -14.707 -20.221  0.00  0.00    +0.031 C 
BRANCH  23  28
ATOM     28  N   UNL     1      34.772 -14.531 -23.671  0.00  0.00    -0.217 N 
ATOM     29  H   UNL     1      35.489 -13.935 -23.988  0.00  0.00    +0.173 HD
BRANCH  28  30
ATOM     30  S   UNL     1      34.393 -15.986 -24.510  0.00  0.00    +0.054 S 
ATOM     31  O   UNL     1      32.951 -16.159 -24.501  0.00  0.00    -0.154 OA
ATOM     32  O   UNL     1      35.138 -16.079 -25.749  0.00  0.00    -0.154 OA
BRANCH  30  33
ATOM     33  C   UNL     1      35.062 -17.184 -23.379  0.00  0.00    +0.172 C 
BRANCH  33  34
ATOM     34  C   UNL     1      34.335 -18.514 -23.487  0.00  0.00    +0.027 C 
ATOM     35  C   UNL     1      34.705 -19.445 -22.344  0.00  0.00    +0.002 C 
ENDBRANCH  33  34
ENDBRANCH  30  33
ENDBRANCH  28  30
ENDBRANCH  23  28
ENDBRANCH   2  22
TORSDOF 7
ENDMDL
MODEL 8
REMARK VINA RESULT:     -10.1      4.425     10.312
REMARK  Name = 42611257
REMARK  7 active torsions:
REMARK  status: ('A' for Active; 'I' for Inactive)
REMARK    1  A    between atoms: C_2  and  C_6
REMARK    2  A    between atoms: C_2  and  C_22
REMARK    3  A    between atoms: C_10  and  C_14
REMARK    4  A    between atoms: C_23  and  N_28
REMARK    5  A    between atoms: N_28  and  S_30
REMARK    6  A    between atoms: S_30  and  C_33
REMARK    7  A    between atoms: C_33  and  C_34
REMARK                            x       y       z     vdW  Elec       q    Type
REMARK                         _______ _______ _______ _____ _____    ______ ____
ROOT
ATOM      1  O   UNL     1      30.278 -11.775 -21.545  0.00  0.00    -0.286 OA
ATOM      2  C   UNL     1      31.466 -11.455 -21.321  0.00  0.00    +0.201 C 
ENDROOT
BRANCH   2   6
ATOM      3  N   UNL     1      32.068  -9.170 -18.596  0.00  0.00    -0.297 N 
ATOM      4  N   UNL     1      32.840  -7.078 -19.505  0.00  0.00    -0.229 NA
ATOM      5  C   UNL     1      32.250  -9.062 -20.819  0.00  0.00    +0.036 C 
ATOM      6  C   UNL     1      31.786 -10.354 -20.458  0.00  0.00    +0.056 C 
ATOM      7  C   UNL     1      32.415  -8.349 -19.635  0.00  0.00    +0.132 C 
ATOM      8  C   UNL     1      32.553  -8.400 -22.020  0.00  0.00    +0.004 C 
ATOM      9  C   UNL     1      31.683 -10.392 -19.084  0.00  0.00    +0.066 C 
ATOM     10  C   UNL     1      32.997  -7.082 -21.942  0.00  0.00    +0.019 C 
ATOM     11  C   UNL     1      33.118  -6.490 -20.691  0.00  0.00    +0.100 C 
ATOM     12  H   UNL     1      32.091  -8.921 -17.643  0.00  0.00    +0.154 HD
BRANCH  10  14
ATOM     13 CL   UNL     1      34.349  -4.053 -26.889  0.00  0.00    -0.082 Cl
ATOM     14  C   UNL     1      33.326  -6.346 -23.142  0.00  0.00    +0.002 C 
ATOM     15  C   UNL     1      34.575  -6.511 -23.741  0.00  0.00    +0.001 C 
ATOM     16  C   UNL     1      32.394  -5.471 -23.700  0.00  0.00    +0.001 C 
ATOM     17  C   UNL     1      34.891  -5.802 -24.900  0.00  0.00    +0.011 C 
ATOM     18  C   UNL     1      32.710  -4.762 -24.859  0.00  0.00    +0.011 C 
ATOM     19  C   UNL     1      33.959  -4.928 -25.459  0.00  0.00    +0.058 C 
ENDBRANCH  10  14
ENDBRANCH   2   6
BRANCH   2  22
ATOM     20  F   UNL     1      32.355 -13.935 -20.306  0.00  0.00    -0.203 F 
ATOM     21  F   UNL     1      32.717 -10.681 -23.741  0.00  0.00    -0.204 F 
ATOM     22  C   UNL     1      32.512 -12.291 -22.007  0.00  0.00    +0.095 C 
ATOM     23  C   UNL     1      33.878 -14.282 -22.087  0.00  0.00    +0.092 C 
ATOM     24  C   UNL     1      32.907 -13.508 -21.452  0.00  0.00    +0.160 C 
ATOM     25  C   UNL     1      33.088 -11.848 -23.198  0.00  0.00    +0.145 C 
ATOM     26  C   UNL     1      34.454 -13.839 -23.279  0.00  0.00    +0.020 C 
ATOM     27  C   UNL     1      34.059 -12.623 -23.834  0.00  0.00    +0.031 C 
BRANCH  23  28
ATOM     28  N   UNL     1      34.284 -15.528 -21.521  0.00  0.00    -0.217 N 
ATOM     29  H   UNL     1      34.220 -15.688 -20.551  0.00  0.00    +0.173 HD
BRANCH  28  30
ATOM     30  S   UNL     1      34.888 -16.744 -22.581  0.00  0.00    +0.054 S 
ATOM     31  O   UNL     1      33.785 -17.243 -23.382  0.00  0.00    -0.154 OA
ATOM     32  O   UNL     1      36.122 -16.317 -23.210  0.00  0.00    -0.154 OA
BRANCH  30  33
ATOM     33  C   UNL     1      35.287 -18.016 -21.404  0.00  0.00    +0.172 C 
BRANCH  33  34
ATOM     34  C   UNL     1      34.564 -19.314 -21.726  0.00  0.00    +0.027 C 
ATOM     35  C   UNL     1      34.342 -20.151 -20.478  0.00  0.00    +0.002 C 
ENDBRANCH  33  34
ENDBRANCH  30  33
ENDBRANCH  28  30
ENDBRANCH  23  28
ENDBRANCH   2  22
TORSDOF 7
ENDMDL
MODEL 9
REMARK VINA RESULT:      -9.8      8.267     11.972
REMARK  Name = 42611257
REMARK  7 active torsions:
REMARK  status: ('A' for Active; 'I' for Inactive)
REMARK    1  A    between atoms: C_2  and  C_6
REMARK    2  A    between atoms: C_2  and  C_22
REMARK    3  A    between atoms: C_10  and  C_14
REMARK    4  A    between atoms: C_23  and  N_28
REMARK    5  A    between atoms: N_28  and  S_30
REMARK    6  A    between atoms: S_30  and  C_33
REMARK    7  A    between atoms: C_33  and  C_34
REMARK                            x       y       z     vdW  Elec       q    Type
REMARK                         _______ _______ _______ _____ _____    ______ ____
ROOT
ATOM      1  O   UNL     1      33.799 -23.483 -19.187  0.00  0.00    -0.286 OA
ATOM      2  C   UNL     1      34.187 -22.892 -18.157  0.00  0.00    +0.201 C 
ENDROOT
BRANCH   2   6
ATOM      3  N   UNL     1      37.302 -21.158 -17.605  0.00  0.00    -0.297 N 
ATOM      4  N   UNL     1      37.547 -19.464 -19.299  0.00  0.00    -0.229 NA
ATOM      5  C   UNL     1      35.649 -21.002 -19.098  0.00  0.00    +0.036 C 
ATOM      6  C   UNL     1      35.343 -22.043 -18.182  0.00  0.00    +0.056 C 
ATOM      7  C   UNL     1      36.876 -20.472 -18.711  0.00  0.00    +0.132 C 
ATOM      8  C   UNL     1      35.026 -20.438 -20.224  0.00  0.00    +0.004 C 
ATOM      9  C   UNL     1      36.378 -22.116 -17.274  0.00  0.00    +0.066 C 
ATOM     10  C   UNL     1      35.680 -19.390 -20.870  0.00  0.00    +0.019 C 
ATOM     11  C   UNL     1      36.903 -18.958 -20.376  0.00  0.00    +0.100 C 
ATOM     12  H   UNL     1      38.143 -20.990 -17.122  0.00  0.00    +0.154 HD
BRANCH  10  14
ATOM     13 CL   UNL     1      33.265 -16.825 -25.674  0.00  0.00    -0.082 Cl
ATOM     14  C   UNL     1      35.093 -18.767 -22.035  0.00  0.00    +0.002 C 
ATOM     15  C   UNL     1      35.172 -17.384 -22.202  0.00  0.00    +0.001 C 
ATOM     16  C   UNL     1      34.447 -19.549 -22.993  0.00  0.00    +0.001 C 
ATOM     17  C   UNL     1      34.608 -16.784 -23.327  0.00  0.00    +0.011 C 
ATOM     18  C   UNL     1      33.882 -18.949 -24.117  0.00  0.00    +0.011 C 
ATOM     19  C   UNL     1      33.962 -17.566 -24.285  0.00  0.00    +0.058 C 
ENDBRANCH  10  14
ENDBRANCH   2   6
BRANCH   2  22
ATOM     20  F   UNL     1      31.521 -22.008 -17.879  0.00  0.00    -0.203 F 
ATOM     21  F   UNL     1      35.191 -24.268 -15.893  0.00  0.00    -0.204 F 
ATOM     22  C   UNL     1      33.372 -23.132 -16.915  0.00  0.00    +0.095 C 
ATOM     23  C   UNL     1      31.303 -22.889 -15.691  0.00  0.00    +0.092 C 
ATOM     24  C   UNL     1      32.059 -22.668 -16.843  0.00  0.00    +0.160 C 
ATOM     25  C   UNL     1      33.930 -23.818 -15.835  0.00  0.00    +0.145 C 
ATOM     26  C   UNL     1      31.861 -23.576 -14.612  0.00  0.00    +0.020 C 
ATOM     27  C   UNL     1      33.174 -24.040 -14.684  0.00  0.00    +0.031 C 
BRANCH  23  28
ATOM     28  N   UNL     1      29.958 -22.416 -15.614  0.00  0.00    -0.217 N 
ATOM     29  H   UNL     1      29.766 -21.467 -15.431  0.00  0.00    +0.173 HD
BRANCH  28  30
ATOM     30  S   UNL     1      28.683 -23.548 -15.853  0.00  0.00    +0.054 S 
ATOM     31  O   UNL     1      28.773 -24.061 -17.208  0.00  0.00    -0.154 OA
ATOM     32  O   UNL     1      28.578 -24.454 -14.727  0.00  0.00    -0.154 OA
BRANCH  30  33
ATOM     33  C   UNL     1      27.281 -22.456 -15.807  0.00  0.00    +0.172 C 
BRANCH  33  34
ATOM     34  C   UNL     1      26.783 -22.133 -17.206  0.00  0.00    +0.027 C 
ATOM     35  C   UNL     1      25.706 -21.063 -17.181  0.00  0.00    +0.002 C 
ENDBRANCH  33  34
ENDBRANCH  30  33
ENDBRANCH  28  30
ENDBRANCH  23  28
ENDBRANCH   2  22
TORSDOF 7
ENDMDL
