MODEL 1
REMARK VINA RESULT:     -11.4      0.000      0.000
REMARK  Name = 10274777
REMARK  10 active torsions:
REMARK  status: ('A' for Active; 'I' for Inactive)
REMARK    1  A    between atoms: C_2  and  C_25
REMARK    2  A    between atoms: C_5  and  O_10
REMARK    3  A    between atoms: O_10  and  C_11
REMARK    4  A    between atoms: C_11  and  C_12
REMARK    5  A    between atoms: C_12  and  C_15
REMARK    6  A    between atoms: C_17  and  C_19
REMARK    7  A    between atoms: C_25  and  C_26
REMARK    8  A    between atoms: C_26  and  O_27
REMARK    9  A    between atoms: C_26  and  C_30
REMARK   10  A    between atoms: C_30  and  O_31
REMARK                            x       y       z     vdW  Elec       q    Type
REMARK                         _______ _______ _______ _____ _____    ______ ____
ROOT
ATOM      1  S   UNL     1      32.153 -23.885 -13.977  0.00  0.00    -0.087 S 
ATOM      2  C   UNL     1      34.945 -23.730 -13.711  0.00  0.00    -0.013 C 
ATOM      3  C   UNL     1      33.777 -23.616 -14.490  0.00  0.00    +0.029 C 
ATOM      4  C   UNL     1      33.830 -23.251 -15.839  0.00  0.00    +0.040 C 
ATOM      5  C   UNL     1      35.099 -22.994 -16.412  0.00  0.00    +0.139 C 
ATOM      6  C   UNL     1      36.181 -23.470 -14.306  0.00  0.00    -0.001 C 
ATOM      7  C   UNL     1      36.259 -23.106 -15.643  0.00  0.00    +0.037 C 
ATOM      8  C   UNL     1      32.517 -23.203 -16.416  0.00  0.00    +0.010 C 
ATOM      9  C   UNL     1      31.526 -23.524 -15.520  0.00  0.00    +0.036 C 
ENDROOT
BRANCH   5  10
ATOM     10  O   UNL     1      35.218 -22.631 -17.731  0.00  0.00    -0.475 OA
BRANCH  10  11
ATOM     11  C   UNL     1      36.083 -21.540 -18.017  0.00  0.00    +0.213 C 
BRANCH  11  12
ATOM     12  C   UNL     1      36.396 -21.508 -19.510  0.00  0.00    +0.105 C 
BRANCH  12  15
ATOM     13  O   UNL     1      33.711 -19.607 -21.093  0.00  0.00    -0.449 OA
ATOM     14  N   UNL     1      35.968 -19.727 -21.171  0.00  0.00    -0.373 NA
ATOM     15  C   UNL     1      35.465 -20.616 -20.281  0.00  0.00    +0.134 C 
ATOM     16  C   UNL     1      34.115 -20.566 -20.213  0.00  0.00    +0.216 C 
ATOM     17  C   UNL     1      34.878 -19.151 -21.626  0.00  0.00    +0.277 C 
ATOM     18  C   UNL     1      33.068 -21.264 -19.460  0.00  0.00    +0.055 C 
BRANCH  17  19
ATOM     19  C   UNL     1      34.737 -18.110 -22.606  0.00  0.00    +0.066 C 
ATOM     20  C   UNL     1      35.138 -16.805 -22.306  0.00  0.00    +0.006 C 
ATOM     21  C   UNL     1      34.198 -18.395 -23.863  0.00  0.00    +0.006 C 
ATOM     22  C   UNL     1      35.001 -15.793 -23.256  0.00  0.00    +0.000 C 
ATOM     23  C   UNL     1      34.061 -17.383 -24.814  0.00  0.00    +0.000 C 
ATOM     24  C   UNL     1      34.462 -16.082 -24.511  0.00  0.00    +0.000 C 
ENDBRANCH  17  19
ENDBRANCH  12  15
ENDBRANCH  11  12
ENDBRANCH  10  11
ENDBRANCH   5  10
BRANCH   2  25
ATOM     25  C   UNL     1      34.918 -24.117 -12.266  0.00  0.00    +0.068 C 
BRANCH  25  26
ATOM     26  C   UNL     1      36.321 -24.393 -11.707  0.00  0.00    +0.218 C 
BRANCH  26  27
ATOM     27  O   UNL     1      36.389 -25.756 -11.304  0.00  0.00    -0.342 OA
ATOM     28  C   UNL     1      37.259 -26.503 -12.143  0.00  0.00    +0.175 C 
ENDBRANCH  26  27
BRANCH  26  30
ATOM     29  O   UNL     1      36.376 -23.882  -9.329  0.00  0.00    -0.248 OA
ATOM     30  C   UNL     1      36.601 -23.543 -10.483  0.00  0.00    +0.342 C 
BRANCH  30  31
ATOM     31  O   UNL     1      37.155 -22.346 -10.807  0.00  0.00    -0.479 OA
ATOM     32  H   UNL     1      36.609 -21.592 -10.921  0.00  0.00    +0.295 HD
ENDBRANCH  30  31
ENDBRANCH  26  30
ENDBRANCH  25  26
ENDBRANCH   2  25
TORSDOF 10
ENDMDL
MODEL 2
REMARK VINA RESULT:     -11.1      7.374     11.722
REMARK  Name = 10274777
REMARK  10 active torsions:
REMARK  status: ('A' for Active; 'I' for Inactive)
REMARK    1  A    between atoms: C_2  and  C_25
REMARK    2  A    between atoms: C_5  and  O_10
REMARK    3  A    between atoms: O_10  and  C_11
REMARK    4  A    between atoms: C_11  and  C_12
REMARK    5  A    between atoms: C_12  and  C_15
REMARK    6  A    between atoms: C_17  and  C_19
REMARK    7  A    between atoms: C_25  and  C_26
REMARK    8  A    between atoms: C_26  and  O_27
REMARK    9  A    between atoms: C_26  and  C_30
REMARK   10  A    between atoms: C_30  and  O_31
REMARK                            x       y       z     vdW  Elec       q    Type
REMARK                         _______ _______ _______ _____ _____    ______ ____
ROOT
ATOM      1  S   UNL     1      34.318 -16.206 -25.110  0.00  0.00    -0.087 S 
ATOM      2  C   UNL     1      34.717 -16.056 -22.334  0.00  0.00    -0.013 C 
ATOM      3  C   UNL     1      34.208 -15.519 -23.533  0.00  0.00    +0.029 C 
ATOM      4  C   UNL     1      33.523 -14.300 -23.556  0.00  0.00    +0.040 C 
ATOM      5  C   UNL     1      33.348 -13.608 -22.333  0.00  0.00    +0.139 C 
ATOM      6  C   UNL     1      34.528 -15.349 -21.145  0.00  0.00    -0.001 C 
ATOM      7  C   UNL     1      33.851 -14.137 -21.142  0.00  0.00    +0.037 C 
ATOM      8  C   UNL     1      33.105 -13.965 -24.887  0.00  0.00    +0.010 C 
ATOM      9  C   UNL     1      33.471 -14.908 -25.818  0.00  0.00    +0.036 C 
ENDROOT
BRANCH   5  10
ATOM     10  O   UNL     1      32.684 -12.407 -22.290  0.00  0.00    -0.475 OA
BRANCH  10  11
ATOM     11  C   UNL     1      31.916 -12.146 -21.123  0.00  0.00    +0.213 C 
BRANCH  11  12
ATOM     12  C   UNL     1      30.967 -10.979 -21.382  0.00  0.00    +0.105 C 
BRANCH  12  15
ATOM     13  O   UNL     1      32.677  -7.763 -21.138  0.00  0.00    -0.449 OA
ATOM     14  N   UNL     1      32.018  -9.208 -22.750  0.00  0.00    -0.373 NA
ATOM     15  C   UNL     1      31.682  -9.666 -21.519  0.00  0.00    +0.134 C 
ATOM     16  C   UNL     1      32.066  -8.821 -20.535  0.00  0.00    +0.216 C 
ATOM     17  C   UNL     1      32.609  -8.069 -22.464  0.00  0.00    +0.277 C 
ATOM     18  C   UNL     1      31.974  -8.792 -19.072  0.00  0.00    +0.055 C 
BRANCH  17  19
ATOM     19  C   UNL     1      33.195  -7.099 -23.346  0.00  0.00    +0.066 C 
ATOM     20  C   UNL     1      32.398  -6.108 -23.930  0.00  0.00    +0.006 C 
ATOM     21  C   UNL     1      34.563  -7.139 -23.629  0.00  0.00    +0.006 C 
ATOM     22  C   UNL     1      32.965  -5.166 -24.787  0.00  0.00    +0.000 C 
ATOM     23  C   UNL     1      35.130  -6.196 -24.486  0.00  0.00    +0.000 C 
ATOM     24  C   UNL     1      34.332  -5.210 -25.066  0.00  0.00    +0.000 C 
ENDBRANCH  17  19
ENDBRANCH  12  15
ENDBRANCH  11  12
ENDBRANCH  10  11
ENDBRANCH   5  10
BRANCH   2  25
ATOM     25  C   UNL     1      35.452 -17.357 -22.279  0.00  0.00    +0.068 C 
BRANCH  25  26
ATOM     26  C   UNL     1      35.194 -18.122 -20.973  0.00  0.00    +0.218 C 
BRANCH  26  27
ATOM     27  O   UNL     1      36.448 -18.476 -20.400  0.00  0.00    -0.342 OA
ATOM     28  C   UNL     1      37.421 -18.740 -21.400  0.00  0.00    +0.175 C 
ENDBRANCH  26  27
BRANCH  26  30
ATOM     29  O   UNL     1      34.325 -20.329 -20.434  0.00  0.00    -0.248 OA
ATOM     30  C   UNL     1      34.432 -19.406 -21.231  0.00  0.00    +0.342 C 
BRANCH  30  31
ATOM     31  O   UNL     1      33.852 -19.420 -22.459  0.00  0.00    -0.479 OA
ATOM     32  H   UNL     1      32.935 -19.600 -22.542  0.00  0.00    +0.295 HD
ENDBRANCH  30  31
ENDBRANCH  26  30
ENDBRANCH  25  26
ENDBRANCH   2  25
TORSDOF 10
ENDMDL
MODEL 3
REMARK VINA RESULT:     -10.7      2.981      4.711
REMARK  Name = 10274777
REMARK  10 active torsions:
REMARK  status: ('A' for Active; 'I' for Inactive)
REMARK    1  A    between atoms: C_2  and  C_25
REMARK    2  A    between atoms: C_5  and  O_10
REMARK    3  A    between atoms: O_10  and  C_11
REMARK    4  A    between atoms: C_11  and  C_12
REMARK    5  A    between atoms: C_12  and  C_15
REMARK    6  A    between atoms: C_17  and  C_19
REMARK    7  A    between atoms: C_25  and  C_26
REMARK    8  A    between atoms: C_26  and  O_27
REMARK    9  A    between atoms: C_26  and  C_30
REMARK   10  A    between atoms: C_30  and  O_31
REMARK                            x       y       z     vdW  Elec       q    Type
REMARK                         _______ _______ _______ _____ _____    ______ ____
ROOT
ATOM      1  S   UNL     1      35.864 -23.084 -15.173  0.00  0.00    -0.087 S 
ATOM      2  C   UNL     1      33.620 -23.014 -16.861  0.00  0.00    -0.013 C 
ATOM      3  C   UNL     1      34.966 -22.695 -16.593  0.00  0.00    +0.029 C 
ATOM      4  C   UNL     1      35.747 -21.988 -17.511  0.00  0.00    +0.040 C 
ATOM      5  C   UNL     1      35.150 -21.595 -18.733  0.00  0.00    +0.139 C 
ATOM      6  C   UNL     1      33.061 -22.612 -18.075  0.00  0.00    -0.001 C 
ATOM      7  C   UNL     1      33.816 -21.909 -19.003  0.00  0.00    +0.037 C 
ATOM      8  C   UNL     1      37.078 -21.784 -17.013  0.00  0.00    +0.010 C 
ATOM      9  C   UNL     1      37.271 -22.326 -15.764  0.00  0.00    +0.036 C 
ENDROOT
BRANCH   5  10
ATOM     10  O   UNL     1      35.865 -20.898 -19.676  0.00  0.00    -0.475 OA
BRANCH  10  11
ATOM     11  C   UNL     1      35.118 -20.068 -20.557  0.00  0.00    +0.213 C 
BRANCH  11  12
ATOM     12  C   UNL     1      35.976 -18.887 -21.002  0.00  0.00    +0.105 C 
BRANCH  12  15
ATOM     13  O   UNL     1      34.393 -17.477 -23.974  0.00  0.00    -0.449 OA
ATOM     14  N   UNL     1      35.216 -16.754 -21.995  0.00  0.00    -0.373 NA
ATOM     15  C   UNL     1      35.347 -18.097 -22.114  0.00  0.00    +0.134 C 
ATOM     16  C   UNL     1      34.862 -18.557 -23.290  0.00  0.00    +0.216 C 
ATOM     17  C   UNL     1      34.641 -16.435 -23.132  0.00  0.00    +0.277 C 
ATOM     18  C   UNL     1      34.739 -19.865 -23.943  0.00  0.00    +0.055 C 
BRANCH  17  19
ATOM     19  C   UNL     1      34.234 -15.146 -23.619  0.00  0.00    +0.066 C 
ATOM     20  C   UNL     1      34.352 -14.017 -22.802  0.00  0.00    +0.006 C 
ATOM     21  C   UNL     1      33.718 -15.012 -24.911  0.00  0.00    +0.006 C 
ATOM     22  C   UNL     1      33.957 -12.765 -23.273  0.00  0.00    +0.000 C 
ATOM     23  C   UNL     1      33.324 -13.759 -25.382  0.00  0.00    +0.000 C 
ATOM     24  C   UNL     1      33.443 -12.636 -24.563  0.00  0.00    +0.000 C 
ENDBRANCH  17  19
ENDBRANCH  12  15
ENDBRANCH  11  12
ENDBRANCH  10  11
ENDBRANCH   5  10
BRANCH   2  25
ATOM     25  C   UNL     1      32.761 -23.771 -15.898  0.00  0.00    +0.068 C 
BRANCH  25  26
ATOM     26  C   UNL     1      31.645 -22.903 -15.300  0.00  0.00    +0.218 C 
BRANCH  26  27
ATOM     27  O   UNL     1      31.662 -23.054 -13.885  0.00  0.00    -0.342 OA
ATOM     28  C   UNL     1      32.541 -24.095 -13.483  0.00  0.00    +0.175 C 
ENDBRANCH  26  27
BRANCH  26  30
ATOM     29  O   UNL     1      29.691 -24.349 -15.402  0.00  0.00    -0.248 OA
ATOM     30  C   UNL     1      30.281 -23.349 -15.789  0.00  0.00    +0.342 C 
BRANCH  30  31
ATOM     31  O   UNL     1      29.763 -22.495 -16.709  0.00  0.00    -0.479 OA
ATOM     32  H   UNL     1      28.901 -22.641 -17.050  0.00  0.00    +0.295 HD
ENDBRANCH  30  31
ENDBRANCH  26  30
ENDBRANCH  25  26
ENDBRANCH   2  25
TORSDOF 10
ENDMDL
MODEL 4
REMARK VINA RESULT:     -10.4      2.037      3.171
REMARK  Name = 10274777
REMARK  10 active torsions:
REMARK  status: ('A' for Active; 'I' for Inactive)
REMARK    1  A    between atoms: C_2  and  C_25
REMARK    2  A    between atoms: C_5  and  O_10
REMARK    3  A    between atoms: O_10  and  C_11
REMARK    4  A    between atoms: C_11  and  C_12
REMARK    5  A    between atoms: C_12  and  C_15
REMARK    6  A    between atoms: C_17  and  C_19
REMARK    7  A    between atoms: C_25  and  C_26
REMARK    8  A    between atoms: C_26  and  O_27
REMARK    9  A    between atoms: C_26  and  C_30
REMARK   10  A    between atoms: C_30  and  O_31
REMARK                            x       y       z     vdW  Elec       q    Type
REMARK                         _______ _______ _______ _____ _____    ______ ____
ROOT
ATOM      1  S   UNL     1      33.604 -23.369 -15.586  0.00  0.00    -0.087 S 
ATOM      2  C   UNL     1      36.227 -22.489 -16.065  0.00  0.00    -0.013 C 
ATOM      3  C   UNL     1      34.907 -22.709 -16.502  0.00  0.00    +0.029 C 
ATOM      4  C   UNL     1      34.505 -22.393 -17.803  0.00  0.00    +0.040 C 
ATOM      5  C   UNL     1      35.465 -21.839 -18.684  0.00  0.00    +0.139 C 
ATOM      6  C   UNL     1      37.150 -21.941 -16.957  0.00  0.00    -0.001 C 
ATOM      7  C   UNL     1      36.776 -21.619 -18.254  0.00  0.00    +0.037 C 
ATOM      8  C   UNL     1      33.120 -22.708 -18.010  0.00  0.00    +0.010 C 
ATOM      9  C   UNL     1      32.519 -23.240 -16.894  0.00  0.00    +0.036 C 
ENDROOT
BRANCH   5  10
ATOM     10  O   UNL     1      35.132 -21.508 -19.974  0.00  0.00    -0.475 OA
BRANCH  10  11
ATOM     11  C   UNL     1      34.711 -20.169 -20.199  0.00  0.00    +0.213 C 
BRANCH  11  12
ATOM     12  C   UNL     1      35.797 -19.408 -20.956  0.00  0.00    +0.105 C 
BRANCH  12  15
ATOM     13  O   UNL     1      34.400 -17.730 -23.882  0.00  0.00    -0.449 OA
ATOM     14  N   UNL     1      35.128 -17.186 -21.810  0.00  0.00    -0.373 NA
ATOM     15  C   UNL     1      35.243 -18.518 -22.031  0.00  0.00    +0.134 C 
ATOM     16  C   UNL     1      34.814 -18.872 -23.264  0.00  0.00    +0.216 C 
ATOM     17  C   UNL     1      34.620 -16.764 -22.946  0.00  0.00    +0.277 C 
ATOM     18  C   UNL     1      34.705 -20.119 -24.027  0.00  0.00    +0.055 C 
BRANCH  17  19
ATOM     19  C   UNL     1      34.262 -15.432 -23.347  0.00  0.00    +0.066 C 
ATOM     20  C   UNL     1      34.374 -14.372 -22.442  0.00  0.00    +0.006 C 
ATOM     21  C   UNL     1      33.799 -15.187 -24.642  0.00  0.00    +0.006 C 
ATOM     22  C   UNL     1      34.027 -13.079 -22.829  0.00  0.00    +0.000 C 
ATOM     23  C   UNL     1      33.451 -13.893 -25.030  0.00  0.00    +0.000 C 
ATOM     24  C   UNL     1      33.565 -12.839 -24.124  0.00  0.00    +0.000 C 
ENDBRANCH  17  19
ENDBRANCH  12  15
ENDBRANCH  11  12
ENDBRANCH  10  11
ENDBRANCH   5  10
BRANCH   2  25
ATOM     25  C   UNL     1      36.686 -22.816 -14.679  0.00  0.00    +0.068 C 
BRANCH  25  26
ATOM     26  C   UNL     1      36.918 -24.319 -14.476  0.00  0.00    +0.218 C 
BRANCH  26  27
ATOM     27  O   UNL     1      36.201 -24.737 -13.320  0.00  0.00    -0.342 OA
ATOM     28  C   UNL     1      35.848 -23.632 -12.499  0.00  0.00    +0.175 C 
ENDBRANCH  26  27
BRANCH  26  30
ATOM     29  O   UNL     1      38.826 -25.220 -13.265  0.00  0.00    -0.248 OA
ATOM     30  C   UNL     1      38.384 -24.621 -14.236  0.00  0.00    +0.342 C 
BRANCH  30  31
ATOM     31  O   UNL     1      39.172 -24.162 -15.243  0.00  0.00    -0.479 OA
ATOM     32  H   UNL     1      38.907 -24.277 -16.135  0.00  0.00    +0.295 HD
ENDBRANCH  30  31
ENDBRANCH  26  30
ENDBRANCH  25  26
ENDBRANCH   2  25
TORSDOF 10
ENDMDL
MODEL 5
REMARK VINA RESULT:     -10.4      6.353     12.979
REMARK  Name = 10274777
REMARK  10 active torsions:
REMARK  status: ('A' for Active; 'I' for Inactive)
REMARK    1  A    between atoms: C_2  and  C_25
REMARK    2  A    between atoms: C_5  and  O_10
REMARK    3  A    between atoms: O_10  and  C_11
REMARK    4  A    between atoms: C_11  and  C_12
REMARK    5  A    between atoms: C_12  and  C_15
REMARK    6  A    between atoms: C_17  and  C_19
REMARK    7  A    between atoms: C_25  and  C_26
REMARK    8  A    between atoms: C_26  and  O_27
REMARK    9  A    between atoms: C_26  and  C_30
REMARK   10  A    between atoms: C_30  and  O_31
REMARK                            x       y       z     vdW  Elec       q    Type
REMARK                         _______ _______ _______ _____ _____    ______ ____
ROOT
ATOM      1  S   UNL     1      31.265 -10.521 -20.677  0.00  0.00    -0.087 S 
ATOM      2  C   UNL     1      32.858 -10.434 -22.987  0.00  0.00    -0.013 C 
ATOM      3  C   UNL     1      32.320 -11.138 -21.893  0.00  0.00    +0.029 C 
ATOM      4  C   UNL     1      32.610 -12.488 -21.677  0.00  0.00    +0.040 C 
ATOM      5  C   UNL     1      33.468 -13.142 -22.595  0.00  0.00    +0.139 C 
ATOM      6  C   UNL     1      33.701 -11.107 -23.874  0.00  0.00    -0.001 C 
ATOM      7  C   UNL     1      34.004 -12.448 -23.682  0.00  0.00    +0.037 C 
ATOM      8  C   UNL     1      31.948 -12.981 -20.503  0.00  0.00    +0.010 C 
ATOM      9  C   UNL     1      31.192 -12.022 -19.872  0.00  0.00    +0.036 C 
ENDROOT
BRANCH   5  10
ATOM     10  O   UNL     1      33.791 -14.467 -22.438  0.00  0.00    -0.475 OA
BRANCH  10  11
ATOM     11  C   UNL     1      34.251 -15.152 -23.596  0.00  0.00    +0.213 C 
BRANCH  11  12
ATOM     12  C   UNL     1      35.405 -16.078 -23.222  0.00  0.00    +0.105 C 
BRANCH  12  15
ATOM     13  O   UNL     1      34.043 -19.430 -22.735  0.00  0.00    -0.449 OA
ATOM     14  N   UNL     1      35.261 -17.916 -21.575  0.00  0.00    -0.373 NA
ATOM     15  C   UNL     1      34.944 -17.445 -22.806  0.00  0.00    +0.134 C 
ATOM     16  C   UNL     1      34.216 -18.332 -23.522  0.00  0.00    +0.216 C 
ATOM     17  C   UNL     1      34.698 -19.104 -21.586  0.00  0.00    +0.277 C 
ATOM     18  C   UNL     1      33.614 -18.368 -24.859  0.00  0.00    +0.055 C 
BRANCH  17  19
ATOM     19  C   UNL     1      34.673 -20.111 -20.562  0.00  0.00    +0.066 C 
ATOM     20  C   UNL     1      35.869 -20.595 -20.022  0.00  0.00    +0.006 C 
ATOM     21  C   UNL     1      33.454 -20.614 -20.099  0.00  0.00    +0.006 C 
ATOM     22  C   UNL     1      35.846 -21.572 -19.028  0.00  0.00    +0.000 C 
ATOM     23  C   UNL     1      33.431 -21.592 -19.104  0.00  0.00    +0.000 C 
ATOM     24  C   UNL     1      34.626 -22.071 -18.569  0.00  0.00    +0.000 C 
ENDBRANCH  17  19
ENDBRANCH  12  15
ENDBRANCH  11  12
ENDBRANCH  10  11
ENDBRANCH   5  10
BRANCH   2  25
ATOM     25  C   UNL     1      32.564  -8.990 -23.244  0.00  0.00    +0.068 C 
BRANCH  25  26
ATOM     26  C   UNL     1      33.254  -8.061 -22.235  0.00  0.00    +0.218 C 
BRANCH  26  27
ATOM     27  O   UNL     1      32.254  -7.321 -21.543  0.00  0.00    -0.342 OA
ATOM     28  C   UNL     1      32.676  -6.979 -20.230  0.00  0.00    +0.175 C 
ENDBRANCH  26  27
BRANCH  26  30
ATOM     29  O   UNL     1      35.379  -7.083 -22.899  0.00  0.00    -0.248 OA
ATOM     30  C   UNL     1      34.156  -7.064 -22.934  0.00  0.00    +0.342 C 
BRANCH  30  31
ATOM     31  O   UNL     1      33.451  -6.138 -23.633  0.00  0.00    -0.479 OA
ATOM     32  H   UNL     1      33.877  -5.362 -23.945  0.00  0.00    +0.295 HD
ENDBRANCH  30  31
ENDBRANCH  26  30
ENDBRANCH  25  26
ENDBRANCH   2  25
TORSDOF 10
ENDMDL
MODEL 6
REMARK VINA RESULT:     -10.2      6.614     12.871
REMARK  Name = 10274777
REMARK  10 active torsions:
REMARK  status: ('A' for Active; 'I' for Inactive)
REMARK    1  A    between atoms: C_2  and  C_25
REMARK    2  A    between atoms: C_5  and  O_10
REMARK    3  A    between atoms: O_10  and  C_11
REMARK    4  A    between atoms: C_11  and  C_12
REMARK    5  A    between atoms: C_12  and  C_15
REMARK    6  A    between atoms: C_17  and  C_19
REMARK    7  A    between atoms: C_25  and  C_26
REMARK    8  A    between atoms: C_26  and  O_27
REMARK    9  A    between atoms: C_26  and  C_30
REMARK   10  A    between atoms: C_30  and  O_31
REMARK                            x       y       z     vdW  Elec       q    Type
REMARK                         _______ _______ _______ _____ _____    ______ ____
ROOT
ATOM      1  S   UNL     1      33.925  -8.603 -23.452  0.00  0.00    -0.087 S 
ATOM      2  C   UNL     1      32.268 -10.346 -22.001  0.00  0.00    -0.013 C 
ATOM      3  C   UNL     1      33.296 -10.124 -22.939  0.00  0.00    +0.029 C 
ATOM      4  C   UNL     1      33.941 -11.185 -23.581  0.00  0.00    +0.040 C 
ATOM      5  C   UNL     1      33.535 -12.504 -23.266  0.00  0.00    +0.139 C 
ATOM      6  C   UNL     1      31.892 -11.659 -21.711  0.00  0.00    -0.001 C 
ATOM      7  C   UNL     1      32.517 -12.728 -22.336  0.00  0.00    +0.037 C 
ATOM      8  C   UNL     1      34.946 -10.708 -24.489  0.00  0.00    +0.010 C 
ATOM      9  C   UNL     1      35.038  -9.337 -24.513  0.00  0.00    +0.036 C 
ENDROOT
BRANCH   5  10
ATOM     10  O   UNL     1      34.130 -13.588 -23.862  0.00  0.00    -0.475 OA
BRANCH  10  11
ATOM     11  C   UNL     1      33.800 -14.866 -23.335  0.00  0.00    +0.213 C 
BRANCH  11  12
ATOM     12  C   UNL     1      35.062 -15.716 -23.217  0.00  0.00    +0.105 C 
BRANCH  12  15
ATOM     13  O   UNL     1      34.139 -19.235 -22.908  0.00  0.00    -0.449 OA
ATOM     14  N   UNL     1      35.096 -17.622 -21.643  0.00  0.00    -0.373 NA
ATOM     15  C   UNL     1      34.770 -17.148 -22.870  0.00  0.00    +0.134 C 
ATOM     16  C   UNL     1      34.196 -18.092 -23.649  0.00  0.00    +0.216 C 
ATOM     17  C   UNL     1      34.697 -18.872 -21.720  0.00  0.00    +0.277 C 
ATOM     18  C   UNL     1      33.659 -18.154 -25.012  0.00  0.00    +0.055 C 
BRANCH  17  19
ATOM     19  C   UNL     1      34.764 -19.913 -20.733  0.00  0.00    +0.066 C 
ATOM     20  C   UNL     1      36.004 -20.345 -20.250  0.00  0.00    +0.006 C 
ATOM     21  C   UNL     1      33.593 -20.502 -20.250  0.00  0.00    +0.006 C 
ATOM     22  C   UNL     1      36.070 -21.356 -19.292  0.00  0.00    +0.000 C 
ATOM     23  C   UNL     1      33.659 -21.514 -19.292  0.00  0.00    +0.000 C 
ATOM     24  C   UNL     1      34.897 -21.941 -18.813  0.00  0.00    +0.000 C 
ENDBRANCH  17  19
ENDBRANCH  12  15
ENDBRANCH  11  12
ENDBRANCH  10  11
ENDBRANCH   5  10
BRANCH   2  25
ATOM     25  C   UNL     1      31.562  -9.231 -21.296  0.00  0.00    +0.068 C 
BRANCH  25  26
ATOM     26  C   UNL     1      32.330  -8.734 -20.064  0.00  0.00    +0.218 C 
BRANCH  26  27
ATOM     27  O   UNL     1      31.561  -9.023 -18.902  0.00  0.00    -0.342 OA
ATOM     28  C   UNL     1      31.681 -10.388 -18.525  0.00  0.00    +0.175 C 
ENDBRANCH  26  27
BRANCH  26  30
ATOM     29  O   UNL     1      32.014  -6.483 -20.929  0.00  0.00    -0.248 OA
ATOM     30  C   UNL     1      32.534  -7.233 -20.114  0.00  0.00    +0.342 C 
BRANCH  30  31
ATOM     31  O   UNL     1      33.357  -6.795 -19.126  0.00  0.00    -0.479 OA
ATOM     32  H   UNL     1      33.996  -6.133 -19.308  0.00  0.00    +0.295 HD
ENDBRANCH  30  31
ENDBRANCH  26  30
ENDBRANCH  25  26
ENDBRANCH   2  25
TORSDOF 10
ENDMDL
MODEL 7
REMARK VINA RESULT:     -10.2      1.826      2.586
REMARK  Name = 10274777
REMARK  10 active torsions:
REMARK  status: ('A' for Active; 'I' for Inactive)
REMARK    1  A    between atoms: C_2  and  C_25
REMARK    2  A    between atoms: C_5  and  O_10
REMARK    3  A    between atoms: O_10  and  C_11
REMARK    4  A    between atoms: C_11  and  C_12
REMARK    5  A    between atoms: C_12  and  C_15
REMARK    6  A    between atoms: C_17  and  C_19
REMARK    7  A    between atoms: C_25  and  C_26
REMARK    8  A    between atoms: C_26  and  O_27
REMARK    9  A    between atoms: C_26  and  C_30
REMARK   10  A    between atoms: C_30  and  O_31
REMARK                            x       y       z     vdW  Elec       q    Type
REMARK                         _______ _______ _______ _____ _____    ______ ____
ROOT
ATOM      1  S   UNL     1      34.725 -24.475 -12.669  0.00  0.00    -0.087 S 
ATOM      2  C   UNL     1      36.686 -23.497 -14.426  0.00  0.00    -0.013 C 
ATOM      3  C   UNL     1      35.337 -23.758 -14.113  0.00  0.00    +0.029 C 
ATOM      4  C   UNL     1      34.305 -23.441 -15.000  0.00  0.00    +0.040 C 
ATOM      5  C   UNL     1      34.647 -22.843 -16.237  0.00  0.00    +0.139 C 
ATOM      6  C   UNL     1      36.990 -22.907 -15.654  0.00  0.00    -0.001 C 
ATOM      7  C   UNL     1      35.983 -22.582 -16.552  0.00  0.00    +0.037 C 
ATOM      8  C   UNL     1      33.026 -23.801 -14.459  0.00  0.00    +0.010 C 
ATOM      9  C   UNL     1      33.113 -24.368 -13.209  0.00  0.00    +0.036 C 
ENDROOT
BRANCH   5  10
ATOM     10  O   UNL     1      33.679 -22.507 -17.151  0.00  0.00    -0.475 OA
BRANCH  10  11
ATOM     11  C   UNL     1      34.034 -22.616 -18.523  0.00  0.00    +0.213 C 
BRANCH  11  12
ATOM     12  C   UNL     1      33.215 -21.626 -19.347  0.00  0.00    +0.105 C 
BRANCH  12  15
ATOM     13  O   UNL     1      35.737 -19.643 -21.087  0.00  0.00    -0.449 OA
ATOM     14  N   UNL     1      33.488 -19.881 -21.077  0.00  0.00    -0.373 NA
ATOM     15  C   UNL     1      34.069 -20.713 -20.179  0.00  0.00    +0.134 C 
ATOM     16  C   UNL     1      35.416 -20.592 -20.164  0.00  0.00    +0.216 C 
ATOM     17  C   UNL     1      34.529 -19.266 -21.591  0.00  0.00    +0.277 C 
ATOM     18  C   UNL     1      36.524 -21.209 -19.427  0.00  0.00    +0.055 C 
BRANCH  17  19
ATOM     19  C   UNL     1      34.580 -18.252 -22.607  0.00  0.00    +0.066 C 
ATOM     20  C   UNL     1      35.054 -16.973 -22.300  0.00  0.00    +0.006 C 
ATOM     21  C   UNL     1      34.155 -18.537 -23.907  0.00  0.00    +0.006 C 
ATOM     22  C   UNL     1      35.104 -15.988 -23.286  0.00  0.00    +0.000 C 
ATOM     23  C   UNL     1      34.205 -17.551 -24.894  0.00  0.00    +0.000 C 
ATOM     24  C   UNL     1      34.679 -16.277 -24.583  0.00  0.00    +0.000 C 
ENDBRANCH  17  19
ENDBRANCH  12  15
ENDBRANCH  11  12
ENDBRANCH  10  11
ENDBRANCH   5  10
BRANCH   2  25
ATOM     25  C   UNL     1      37.811 -23.824 -13.496  0.00  0.00    +0.068 C 
BRANCH  25  26
ATOM     26  C   UNL     1      38.157 -25.320 -13.496  0.00  0.00    +0.218 C 
BRANCH  26  27
ATOM     27  O   UNL     1      38.086 -25.802 -12.159  0.00  0.00    -0.342 OA
ATOM     28  C   UNL     1      37.982 -24.735 -11.226  0.00  0.00    +0.175 C 
ENDBRANCH  26  27
BRANCH  26  30
ATOM     29  O   UNL     1      40.487 -24.750 -13.900  0.00  0.00    -0.248 OA
ATOM     30  C   UNL     1      39.570 -25.556 -13.991  0.00  0.00    +0.342 C 
BRANCH  30  31
ATOM     31  O   UNL     1      39.721 -26.788 -14.541  0.00  0.00    -0.479 OA
ATOM     32  H   UNL     1      39.089 -27.459 -14.367  0.00  0.00    +0.295 HD
ENDBRANCH  30  31
ENDBRANCH  26  30
ENDBRANCH  25  26
ENDBRANCH   2  25
TORSDOF 10
ENDMDL
MODEL 8
REMARK VINA RESULT:     -10.0      7.220     13.294
REMARK  Name = 10274777
REMARK  10 active torsions:
REMARK  status: ('A' for Active; 'I' for Inactive)
REMARK    1  A    between atoms: C_2  and  C_25
REMARK    2  A    between atoms: C_5  and  O_10
REMARK    3  A    between atoms: O_10  and  C_11
REMARK    4  A    between atoms: C_11  and  C_12
REMARK    5  A    between atoms: C_12  and  C_15
REMARK    6  A    between atoms: C_17  and  C_19
REMARK    7  A    between atoms: C_25  and  C_26
REMARK    8  A    between atoms: C_26  and  O_27
REMARK    9  A    between atoms: C_26  and  C_30
REMARK   10  A    between atoms: C_30  and  O_31
REMARK                            x       y       z     vdW  Elec       q    Type
REMARK                         _______ _______ _______ _____ _____    ______ ____
ROOT
ATOM      1  S   UNL     1      31.616 -11.485 -20.311  0.00  0.00    -0.087 S 
ATOM      2  C   UNL     1      32.701 -10.103 -22.502  0.00  0.00    -0.013 C 
ATOM      3  C   UNL     1      32.463 -11.302 -21.802  0.00  0.00    +0.029 C 
ATOM      4  C   UNL     1      32.922 -12.532 -22.281  0.00  0.00    +0.040 C 
ATOM      5  C   UNL     1      33.639 -12.549 -23.502  0.00  0.00    +0.139 C 
ATOM      6  C   UNL     1      33.412 -10.154 -23.703  0.00  0.00    -0.001 C 
ATOM      7  C   UNL     1      33.877 -11.363 -24.199  0.00  0.00    +0.037 C 
ATOM      8  C   UNL     1      32.558 -13.603 -21.397  0.00  0.00    +0.010 C 
ATOM      9  C   UNL     1      31.852 -13.173 -20.298  0.00  0.00    +0.036 C 
ENDROOT
BRANCH   5  10
ATOM     10  O   UNL     1      34.115 -13.726 -24.025  0.00  0.00    -0.475 OA
BRANCH  10  11
ATOM     11  C   UNL     1      33.297 -14.370 -24.993  0.00  0.00    +0.213 C 
BRANCH  11  12
ATOM     12  C   UNL     1      34.051 -15.549 -25.601  0.00  0.00    +0.105 C 
BRANCH  12  15
ATOM     13  O   UNL     1      33.513 -18.684 -23.810  0.00  0.00    -0.449 OA
ATOM     14  N   UNL     1      34.933 -16.924 -23.745  0.00  0.00    -0.373 NA
ATOM     15  C   UNL     1      34.017 -16.774 -24.732  0.00  0.00    +0.134 C 
ATOM     16  C   UNL     1      33.154 -17.814 -24.794  0.00  0.00    +0.216 C 
ATOM     17  C   UNL     1      34.586 -18.081 -23.226  0.00  0.00    +0.277 C 
ATOM     18  C   UNL     1      32.003 -18.183 -25.624  0.00  0.00    +0.055 C 
BRANCH  17  19
ATOM     19  C   UNL     1      35.174 -18.803 -22.132  0.00  0.00    +0.066 C 
ATOM     20  C   UNL     1      34.418 -19.742 -21.423  0.00  0.00    +0.006 C 
ATOM     21  C   UNL     1      36.503 -18.571 -21.769  0.00  0.00    +0.006 C 
ATOM     22  C   UNL     1      34.987 -20.443 -20.361  0.00  0.00    +0.000 C 
ATOM     23  C   UNL     1      37.072 -19.273 -20.706  0.00  0.00    +0.000 C 
ATOM     24  C   UNL     1      36.315 -20.209 -20.002  0.00  0.00    +0.000 C 
ENDBRANCH  17  19
ENDBRANCH  12  15
ENDBRANCH  11  12
ENDBRANCH  10  11
ENDBRANCH   5  10
BRANCH   2  25
ATOM     25  C   UNL     1      32.222  -8.773 -22.015  0.00  0.00    +0.068 C 
BRANCH  25  26
ATOM     26  C   UNL     1      32.775  -7.608 -22.848  0.00  0.00    +0.218 C 
BRANCH  26  27
ATOM     27  O   UNL     1      33.920  -7.081 -22.187  0.00  0.00    -0.342 OA
ATOM     28  C   UNL     1      35.045  -7.032 -23.053  0.00  0.00    +0.175 C 
ENDBRANCH  26  27
BRANCH  26  30
ATOM     29  O   UNL     1      32.038  -5.308 -23.139  0.00  0.00    -0.248 OA
ATOM     30  C   UNL     1      31.761  -6.487 -22.966  0.00  0.00    +0.342 C 
BRANCH  30  31
ATOM     31  O   UNL     1      30.484  -6.941 -22.875  0.00  0.00    -0.479 OA
ATOM     32  H   UNL     1      29.768  -6.359 -23.041  0.00  0.00    +0.295 HD
ENDBRANCH  30  31
ENDBRANCH  26  30
ENDBRANCH  25  26
ENDBRANCH   2  25
TORSDOF 10
ENDMDL
MODEL 9
REMARK VINA RESULT:      -9.9      1.266      1.959
REMARK  Name = 10274777
REMARK  10 active torsions:
REMARK  status: ('A' for Active; 'I' for Inactive)
REMARK    1  A    between atoms: C_2  and  C_25
REMARK    2  A    between atoms: C_5  and  O_10
REMARK    3  A    between atoms: O_10  and  C_11
REMARK    4  A    between atoms: C_11  and  C_12
REMARK    5  A    between atoms: C_12  and  C_15
REMARK    6  A    between atoms: C_17  and  C_19
REMARK    7  A    between atoms: C_25  and  C_26
REMARK    8  A    between atoms: C_26  and  O_27
REMARK    9  A    between atoms: C_26  and  C_30
REMARK   10  A    between atoms: C_30  and  O_31
REMARK                            x       y       z     vdW  Elec       q    Type
REMARK                         _______ _______ _______ _____ _____    ______ ____
ROOT
ATOM      1  S   UNL     1      31.742 -23.266 -13.091  0.00  0.00    -0.087 S 
ATOM      2  C   UNL     1      34.386 -23.543 -13.994  0.00  0.00    -0.013 C 
ATOM      3  C   UNL     1      33.005 -23.445 -14.251  0.00  0.00    +0.029 C 
ATOM      4  C   UNL     1      32.498 -23.488 -15.553  0.00  0.00    +0.040 C 
ATOM      5  C   UNL     1      33.414 -23.632 -16.623  0.00  0.00    +0.139 C 
ATOM      6  C   UNL     1      35.264 -23.685 -15.071  0.00  0.00    -0.001 C 
ATOM      7  C   UNL     1      34.785 -23.730 -16.373  0.00  0.00    +0.037 C 
ATOM      8  C   UNL     1      31.067 -23.370 -15.557  0.00  0.00    +0.010 C 
ATOM      9  C   UNL     1      30.536 -23.245 -14.296  0.00  0.00    +0.036 C 
ENDROOT
BRANCH   5  10
ATOM     10  O   UNL     1      32.979 -23.681 -17.924  0.00  0.00    -0.475 OA
BRANCH  10  11
ATOM     11  C   UNL     1      33.762 -22.983 -18.884  0.00  0.00    +0.213 C 
BRANCH  11  12
ATOM     12  C   UNL     1      33.327 -21.522 -18.939  0.00  0.00    +0.105 C 
BRANCH  12  15
ATOM     13  O   UNL     1      35.785 -19.754 -20.979  0.00  0.00    -0.449 OA
ATOM     14  N   UNL     1      33.536 -19.945 -20.832  0.00  0.00    -0.373 NA
ATOM     15  C   UNL     1      34.150 -20.704 -19.893  0.00  0.00    +0.134 C 
ATOM     16  C   UNL     1      35.498 -20.609 -19.958  0.00  0.00    +0.216 C 
ATOM     17  C   UNL     1      34.558 -19.399 -21.452  0.00  0.00    +0.277 C 
ATOM     18  C   UNL     1      36.633 -21.180 -19.226  0.00  0.00    +0.055 C 
BRANCH  17  19
ATOM     19  C   UNL     1      34.571 -18.483 -22.558  0.00  0.00    +0.066 C 
ATOM     20  C   UNL     1      33.990 -18.844 -23.777  0.00  0.00    +0.006 C 
ATOM     21  C   UNL     1      35.166 -17.225 -22.423  0.00  0.00    +0.006 C 
ATOM     22  C   UNL     1      34.002 -17.955 -24.851  0.00  0.00    +0.000 C 
ATOM     23  C   UNL     1      35.178 -16.336 -23.498  0.00  0.00    +0.000 C 
ATOM     24  C   UNL     1      34.597 -16.700 -24.712  0.00  0.00    +0.000 C 
ENDBRANCH  17  19
ENDBRANCH  12  15
ENDBRANCH  11  12
ENDBRANCH  10  11
ENDBRANCH   5  10
BRANCH   2  25
ATOM     25  C   UNL     1      34.958 -23.499 -12.612  0.00  0.00    +0.068 C 
BRANCH  25  26
ATOM     26  C   UNL     1      36.160 -24.439 -12.444  0.00  0.00    +0.218 C 
BRANCH  26  27
ATOM     27  O   UNL     1      35.853 -25.390 -11.430  0.00  0.00    -0.342 OA
ATOM     28  C   UNL     1      35.282 -24.767 -10.288  0.00  0.00    +0.175 C 
ENDBRANCH  26  27
BRANCH  26  30
ATOM     29  O   UNL     1      38.177 -24.060 -11.139  0.00  0.00    -0.248 OA
ATOM     30  C   UNL     1      37.392 -23.679 -11.997  0.00  0.00    +0.342 C 
BRANCH  30  31
ATOM     31  O   UNL     1      37.549 -22.513 -12.675  0.00  0.00    -0.479 OA
ATOM     32  H   UNL     1      37.409 -22.488 -13.602  0.00  0.00    +0.295 HD
ENDBRANCH  30  31
ENDBRANCH  26  30
ENDBRANCH  25  26
ENDBRANCH   2  25
TORSDOF 10
ENDMDL
